# generated using pymatgen
data_HfZrTaTiMo
_symmetry_space_group_name_H-M   'P 1'
_cell_length_a   15.17809964
_cell_length_b   15.19070546
_cell_length_c   16.79098744
_cell_angle_alpha   89.98812130
_cell_angle_beta   89.97591722
_cell_angle_gamma   89.99590315
_symmetry_Int_Tables_number   1
_chemical_formula_structural   HfZrTaTiMo
_chemical_formula_sum   'Hf40 Zr40 Ta40 Ti40 Mo40'
_cell_volume   3871.43106304
_cell_formula_units_Z   40
loop_
 _symmetry_equiv_pos_site_id
 _symmetry_equiv_pos_as_xyz
  1  'x, y, z'
loop_
 _atom_site_type_symbol
 _atom_site_label
 _atom_site_symmetry_multiplicity
 _atom_site_fract_x
 _atom_site_fract_y
 _atom_site_fract_z
 _atom_site_occupancy
  Hf  Hf0  1  0.32013600  0.70390190  0.12275118  1
  Hf  Hf1  1  0.61895470  0.60142270  0.75288087  1
  Hf  Hf2  1  0.89934912  0.48131074  0.11038731  1
  Hf  Hf3  1  0.60303322  -0.00741405  0.50998104  1
  Hf  Hf4  1  0.50197465  0.89022618  0.12322717  1
  Hf  Hf5  1  0.88772142  0.30615919  0.61616979  1
  Hf  Hf6  1  0.50426820  0.69151431  0.62294859  1
  Hf  Hf7  1  0.21116469  0.81057388  0.75085998  1
  Hf  Hf8  1  0.89597507  0.50541969  0.61777065  1
  Hf  Hf9  1  -0.00653931  0.79672120  0.00575286  1
  Hf  Hf10  1  0.78439105  0.40022547  0.26214389  1
  Hf  Hf11  1  0.10020452  0.50616397  0.60799364  1
  Hf  Hf12  1  0.50652865  0.70224527  0.38879142  1
  Hf  Hf13  1  0.40276107  0.00460327  0.00771305  1
  Hf  Hf14  1  0.70979666  0.49887517  0.88256949  1
  Hf  Hf15  1  0.19078828  0.22430713  0.01583278  1
  Hf  Hf16  1  0.59003360  0.39788733  -0.01161270  1
  Hf  Hf17  1  0.80114497  0.61155057  0.00681938  1
  Hf  Hf18  1  0.09775926  0.52920203  0.37849992  1
  Hf  Hf19  1  0.38028010  0.40204129  -0.01102678  1
  Hf  Hf20  1  0.49898102  0.30707043  0.12007710  1
  Hf  Hf21  1  0.41342340  0.20177422  0.24354059  1
  Hf  Hf22  1  0.91756277  0.69891124  0.35610470  1
  Hf  Hf23  1  -0.00328106  0.57808858  0.75758911  1
  Hf  Hf24  1  0.39816350  0.00365495  0.24888192  1
  Hf  Hf25  1  0.59238890  0.00599647  0.73446537  1
  Hf  Hf26  1  0.10373032  0.90074771  0.35844383  1
  Hf  Hf27  1  0.28817687  0.32773990  0.14598179  1
  Hf  Hf28  1  0.50434560  0.10220757  0.87972626  1
  Hf  Hf29  1  0.29051651  0.69980886  0.38825477  1
  Hf  Hf30  1  0.31064017  0.30399375  0.36037202  1
  Hf  Hf31  1  0.39380814  0.19790299  0.50131839  1
  Hf  Hf32  1  0.30888835  0.91359604  0.61152203  1
  Hf  Hf33  1  0.71260627  0.69783284  0.38288657  1
  Hf  Hf34  1  0.09088306  0.71397077  0.63202290  1
  Hf  Hf35  1  0.10354431  0.30993659  0.36153194  1
  Hf  Hf36  1  0.60270324  0.00335321  0.23816673  1
  Hf  Hf37  1  0.50539884  0.89740610  0.87809071  1
  Hf  Hf38  1  0.89671636  0.90207329  0.14503264  1
  Hf  Hf39  1  0.21637867  0.59476017  0.00866773  1
  Zr  Zr40  1  0.78807488  0.40285230  0.47679860  1
  Zr  Zr41  1  0.20498707  0.60700456  0.74929069  1
  Zr  Zr42  1  -0.01220753  0.20813088  0.75157948  1
  Zr  Zr43  1  0.70107442  0.48675689  0.62987502  1
  Zr  Zr44  1  0.59741669  0.20033679  0.52989857  1
  Zr  Zr45  1  0.08547126  0.30195488  0.87385876  1
  Zr  Zr46  1  0.78795002  -0.01060656  0.75866935  1
  Zr  Zr47  1  0.30683464  0.90570828  0.38206475  1
  Zr  Zr48  1  0.41622577  0.59787105  -0.01095196  1
  Zr  Zr49  1  0.18979664  0.01548323  -0.00644938  1
  Zr  Zr50  1  0.50947945  0.10511584  0.37870138  1
  Zr  Zr51  1  0.09905671  0.70195030  0.87823582  1
  Zr  Zr52  1  0.60960901  0.80789358  0.74109984  1
  Zr  Zr53  1  -0.00906690  0.19641835  0.00786339  1
  Zr  Zr54  1  0.78920781  0.19071860  0.50210738  1
  Zr  Zr55  1  0.60460443  0.59121026  0.26024357  1
  Zr  Zr56  1  -0.00688420  0.19916187  0.48086422  1
  Zr  Zr57  1  0.81976784  0.79091005  0.50142558  1
  Zr  Zr58  1  0.30609454  0.49888071  0.63236642  1
  Zr  Zr59  1  0.20115376  0.01769892  0.76233457  1
  Zr  Zr60  1  0.40393541  0.59798407  0.26011465  1
  Zr  Zr61  1  0.39635187  0.18957079  0.73987844  1
  Zr  Zr62  1  0.58549957  0.39844369  0.49305513  1
  Zr  Zr63  1  0.89878422  0.08581530  0.63113949  1
  Zr  Zr64  1  0.29948311  0.12004370  0.88349162  1
  Zr  Zr65  1  0.81067441  -0.01071937  0.49423472  1
  Zr  Zr66  1  0.19623160  0.60274246  0.23540858  1
  Zr  Zr67  1  -0.00958898  0.62464069  0.49910137  1
  Zr  Zr68  1  -0.00903700  -0.00193703  -0.00315263  1
  Zr  Zr69  1  0.79446058  -0.00142645  -0.00276809  1
  Zr  Zr70  1  0.68588811  0.49778547  0.11317777  1
  Zr  Zr71  1  0.20232451  0.80800063  0.00318114  1
  Zr  Zr72  1  0.09814981  0.10532480  0.61910848  1
  Zr  Zr73  1  0.80468540  0.59841688  0.23896852  1
  Zr  Zr74  1  0.10140122  0.91479096  0.62720410  1
  Zr  Zr75  1  0.81677930  0.39597991  0.76421279  1
  Zr  Zr76  1  0.09166075  0.30899468  0.61682125  1
  Zr  Zr77  1  0.11050127  0.49290126  0.89354624  1
  Zr  Zr78  1  0.10364697  0.91989872  0.14021241  1
  Zr  Zr79  1  0.57920335  0.39127876  0.26648836  1
  Ta  Ta80  1  0.20205042  0.40205644  0.49332667  1
  Ta  Ta81  1  -0.00665819  0.19228211  0.25737678  1
  Ta  Ta82  1  0.91268267  0.48220900  0.90248295  1
  Ta  Ta83  1  0.71310717  0.71726521  0.87326192  1
  Ta  Ta84  1  0.30030173  0.70314329  0.61046962  1
  Ta  Ta85  1  0.31494762  0.70645104  0.87281761  1
  Ta  Ta86  1  0.49454105  0.29372191  0.86966660  1
  Ta  Ta87  1  0.71557441  0.89113348  0.62235538  1
  Ta  Ta88  1  0.41137566  0.79992896  0.25459490  1
  Ta  Ta89  1  0.29103239  0.30200922  0.62574555  1
  Ta  Ta90  1  0.29590364  0.49954923  0.37997524  1
  Ta  Ta91  1  0.19496357  0.18980936  0.24849965  1
  Ta  Ta92  1  0.48346665  0.49984119  0.12480757  1
  Ta  Ta93  1  -0.00822448  0.40963424  0.25862408  1
  Ta  Ta94  1  -0.01063867  0.40819920  0.47499805  1
  Ta  Ta95  1  0.89064269  0.87907013  0.86124548  1
  Ta  Ta96  1  0.70666663  0.29681341  0.11942089  1
  Ta  Ta97  1  0.50649416  0.69889388  0.86405002  1
  Ta  Ta98  1  0.91482154  0.88677575  0.64465053  1
  Ta  Ta99  1  0.29202459  0.10239686  0.12642161  1
  Ta  Ta100  1  0.51187282  0.89796578  0.37614020  1
  Ta  Ta101  1  0.11089015  0.47502270  0.11901215  1
  Ta  Ta102  1  0.61005979  0.79746802  -0.00176392  1
  Ta  Ta103  1  0.00207269  -0.00023594  0.48062023  1
  Ta  Ta104  1  0.89594542  0.10288752  0.86715361  1
  Ta  Ta105  1  0.77914856  0.19773370  0.74629574  1
  Ta  Ta106  1  0.08792418  0.90641391  0.86568627  1
  Ta  Ta107  1  0.21291483  0.79964037  0.24340910  1
  Ta  Ta108  1  0.30372170  0.90406786  0.12927233  1
  Ta  Ta109  1  0.60035599  0.19012116  0.01170194  1
  Ta  Ta110  1  0.39777103  0.39500859  0.49981191  1
  Ta  Ta111  1  0.89506121  0.29310933  0.13957524  1
  Ta  Ta112  1  0.52106849  0.69450311  0.12500679  1
  Ta  Ta113  1  0.49719287  0.49367857  0.84906780  1
  Ta  Ta114  1  0.40576305  0.58841184  0.49995709  1
  Ta  Ta115  1  0.70273693  0.89632546  0.36713843  1
  Ta  Ta116  1  0.20089333  0.20497352  0.48563467  1
  Ta  Ta117  1  0.60987035  0.79447654  0.25006004  1
  Ta  Ta118  1  0.49755597  0.49406100  0.64417183  1
  Ta  Ta119  1  0.41213292  0.80597151  0.50577372  1
  Ti  Ti120  1  0.47621119  0.07709663  0.61619576  1
  Ti  Ti121  1  0.60686223  0.38151250  0.75718592  1
  Ti  Ti122  1  0.79634758  0.19542776  0.00223555  1
  Ti  Ti123  1  0.39552704  -0.01101892  0.75338893  1
  Ti  Ti124  1  0.60746795  -0.00114631  0.01357822  1
  Ti  Ti125  1  0.30676771  0.50433030  0.85545194  1
  Ti  Ti126  1  0.28728492  0.10472176  0.61893079  1
  Ti  Ti127  1  0.61206339  0.19334156  0.23231611  1
  Ti  Ti128  1  0.19209180  0.20757851  0.74915303  1
  Ti  Ti129  1  0.89730980  0.10001224  0.13831168  1
  Ti  Ti130  1  0.59750951  0.19628103  0.73658041  1
  Ti  Ti131  1  0.70658194  0.09393197  0.37130880  1
  Ti  Ti132  1  0.18558815  0.40307336  0.74544634  1
  Ti  Ti133  1  0.90057811  0.89992640  0.35071833  1
  Ti  Ti134  1  0.69374976  0.09770964  0.87744065  1
  Ti  Ti135  1  0.60149963  0.60685030  -0.01114449  1
  Ti  Ti136  1  0.29328648  0.31336509  0.86069670  1
  Ti  Ti137  1  0.48910112  0.31068064  0.63936309  1
  Ti  Ti138  1  0.40458141  0.79914781  0.74056879  1
  Ti  Ti139  1  0.88642954  0.28891032  0.36164240  1
  Ti  Ti140  1  0.30438785  0.90083509  0.87967441  1
  Ti  Ti141  1  0.00737885  0.59743727  0.22689572  1
  Ti  Ti142  1  0.20257548  0.01493758  0.48564643  1
  Ti  Ti143  1  0.19050619  0.80114336  0.49998979  1
  Ti  Ti144  1  0.79773587  0.80571343  0.00275159  1
  Ti  Ti145  1  0.79878526  0.01197432  0.25210446  1
  Ti  Ti146  1  0.89874174  0.68690909  0.86933919  1
  Ti  Ti147  1  0.39886398  0.20570104  0.00951496  1
  Ti  Ti148  1  0.71569074  0.68656474  0.61924480  1
  Ti  Ti149  1  0.89571953  0.70703986  0.13157889  1
  Ti  Ti150  1  0.70556832  0.88989491  0.13335252  1
  Ti  Ti151  1  0.89494607  0.69864607  0.64698875  1
  Ti  Ti152  1  0.61072463  0.79944865  0.50946175  1
  Ti  Ti153  1  0.40975337  0.79664176  -0.00296868  1
  Ti  Ti154  1  0.00308391  0.81832019  0.49204053  1
  Ti  Ti155  1  0.60837057  0.58919647  0.49992583  1
  Ti  Ti156  1  0.68325830  0.27917602  0.37184389  1
  Ti  Ti157  1  0.00818529  0.60049737  0.01805814  1
  Ti  Ti158  1  0.01702542  0.78754153  0.23740728  1
  Ti  Ti159  1  0.69841632  0.28612920  0.88320742  1
  Mo  Mo160  1  0.90002351  0.50351093  0.36846071  1
  Mo  Mo161  1  0.49984419  0.28969607  0.37745633  1
  Mo  Mo162  1  0.69501068  0.90142686  0.88151111  1
  Mo  Mo163  1  0.00340281  0.38425227  0.01438021  1
  Mo  Mo164  1  0.09058359  0.10253023  0.87022432  1
  Mo  Mo165  1  0.80638367  0.59629608  0.76580954  1
  Mo  Mo166  1  0.49959468  0.89300364  0.62025617  1
  Mo  Mo167  1  0.10446008  0.10079937  0.37355332  1
  Mo  Mo168  1  -0.00129218  0.00837071  0.26102249  1
  Mo  Mo169  1  -0.00522024  -0.00057414  0.76507884  1
  Mo  Mo170  1  0.69815551  0.09177775  0.63044448  1
  Mo  Mo171  1  0.70890382  0.09947931  0.12368216  1
  Mo  Mo172  1  0.39371633  0.39258299  0.75528230  1
  Mo  Mo173  1  0.78931462  0.19901239  0.24994055  1
  Mo  Mo174  1  0.80038326  0.38129954  -0.00375948  1
  Mo  Mo175  1  0.00131382  0.40240516  0.75005603  1
  Mo  Mo176  1  0.20441615  0.39747265  -0.00258463  1
  Mo  Mo177  1  0.29358934  0.10313747  0.37032130  1
  Mo  Mo178  1  0.39924698  0.41123532  0.25933573  1
  Mo  Mo179  1  0.08628088  0.30228847  0.14744935  1
  Mo  Mo180  1  0.09962474  0.69912545  0.11739636  1
  Mo  Mo181  1  0.40202918  0.00121851  0.49067205  1
  Mo  Mo182  1  0.70105876  0.70944132  0.12057489  1
  Mo  Mo183  1  0.80060762  0.59872948  0.49889848  1
  Mo  Mo184  1  0.20543694  0.60789150  0.50539545  1
  Mo  Mo185  1  0.19187265  0.41124402  0.26133603  1
  Mo  Mo186  1  0.10644490  0.71728613  0.37058753  1
  Mo  Mo187  1  0.09250784  0.10963504  0.13574861  1
  Mo  Mo188  1  0.00136390  0.79336949  0.75994389  1
  Mo  Mo189  1  0.80049625  0.80310967  0.25116081  1
  Mo  Mo190  1  0.50027452  0.10176086  0.11758471  1
  Mo  Mo191  1  0.88413262  0.29470887  0.88275014  1
  Mo  Mo192  1  0.40625800  0.60972680  0.74990853  1
  Mo  Mo193  1  0.30665040  0.50231337  0.12773809  1
  Mo  Mo194  1  0.20710471  0.00623423  0.24926882  1
  Mo  Mo195  1  0.69620761  0.50662403  0.38023216  1
  Mo  Mo196  1  0.79798025  0.78570567  0.74597503  1
  Mo  Mo197  1  0.49020083  0.49833855  0.38706552  1
  Mo  Mo198  1  0.69394384  0.29957749  0.63530404  1
  Mo  Mo199  1  0.89612549  0.09394381  0.36416416  1
