# generated using pymatgen
data_HfZrTaTiMo
_symmetry_space_group_name_H-M   'P 1'
_cell_length_a   15.19899452
_cell_length_b   15.20350643
_cell_length_c   16.87046940
_cell_angle_alpha   89.99252816
_cell_angle_beta   90.02449338
_cell_angle_gamma   89.82235241
_symmetry_Int_Tables_number   1
_chemical_formula_structural   HfZrTaTiMo
_chemical_formula_sum   'Hf40 Zr40 Ta40 Ti40 Mo40'
_cell_volume   3898.37538416
_cell_formula_units_Z   40
loop_
 _symmetry_equiv_pos_site_id
 _symmetry_equiv_pos_as_xyz
  1  'x, y, z'
loop_
 _atom_site_type_symbol
 _atom_site_label
 _atom_site_symmetry_multiplicity
 _atom_site_fract_x
 _atom_site_fract_y
 _atom_site_fract_z
 _atom_site_occupancy
  Hf  Hf0  1  0.30892762  0.11744729  0.62023114  1
  Hf  Hf1  1  0.01675730  0.58412771  0.74865402  1
  Hf  Hf2  1  0.60501157  0.79994754  0.74970268  1
  Hf  Hf3  1  0.70590213  0.68836809  0.61058011  1
  Hf  Hf4  1  0.50927882  0.08308244  0.62478593  1
  Hf  Hf5  1  0.31162766  0.71339962  0.87311347  1
  Hf  Hf6  1  0.21081882  0.61661768  0.01315416  1
  Hf  Hf7  1  0.49779083  0.11152363  0.36528688  1
  Hf  Hf8  1  0.69450276  0.29065667  0.61846615  1
  Hf  Hf9  1  0.68377465  0.30226001  0.37748080  1
  Hf  Hf10  1  0.29059183  0.11099049  0.38588926  1
  Hf  Hf11  1  -0.00108337  0.81736617  0.25371012  1
  Hf  Hf12  1  0.81292944  -0.00732128  0.24675198  1
  Hf  Hf13  1  0.39242881  0.79257453  0.02084821  1
  Hf  Hf14  1  0.90499331  0.09644134  0.37486918  1
  Hf  Hf15  1  0.60100249  0.58749219  0.00891091  1
  Hf  Hf16  1  0.38618012  0.40981946  0.74664189  1
  Hf  Hf17  1  0.68829916  0.89992090  0.62027863  1
  Hf  Hf18  1  0.90411939  0.69651981  0.60920965  1
  Hf  Hf19  1  0.00498199  0.80279228  0.49454037  1
  Hf  Hf20  1  0.79141149  0.80909748  0.48344474  1
  Hf  Hf21  1  0.30079783  0.69525927  0.60822120  1
  Hf  Hf22  1  0.09306441  0.70985276  0.12664129  1
  Hf  Hf23  1  0.89218244  0.50807826  0.12394447  1
  Hf  Hf24  1  0.29737966  0.29583779  0.11504387  1
  Hf  Hf25  1  0.59047196  -0.00750861  0.00413765  1
  Hf  Hf26  1  0.09825872  0.31401148  0.63276514  1
  Hf  Hf27  1  0.90745511  0.49865827  0.87921259  1
  Hf  Hf28  1  0.48605930  0.89638529  0.35697899  1
  Hf  Hf29  1  0.08823060  0.90579108  0.63212910  1
  Hf  Hf30  1  0.60376726  0.58738933  0.74452274  1
  Hf  Hf31  1  0.48676828  0.28746983  0.63031821  1
  Hf  Hf32  1  0.89491015  0.29842437  0.87384980  1
  Hf  Hf33  1  0.70255126  0.69523578  0.87630430  1
  Hf  Hf34  1  0.20217820  0.79963532  0.74082569  1
  Hf  Hf35  1  0.29059238  0.90865154  0.38187278  1
  Hf  Hf36  1  0.58567117  0.79036061  0.48419354  1
  Hf  Hf37  1  0.30655272  0.30900738  0.88604514  1
  Hf  Hf38  1  0.51978561  0.49005025  0.36957256  1
  Hf  Hf39  1  0.30432793  0.91173317  0.61552312  1
  Zr  Zr40  1  0.19753277  0.83457622  0.01228588  1
  Zr  Zr41  1  0.59145098  0.78304014  0.25305426  1
  Zr  Zr42  1  0.49914678  0.69393260  0.62235618  1
  Zr  Zr43  1  0.49387044  0.49407744  0.87653677  1
  Zr  Zr44  1  0.18926161  0.40995788  0.00226652  1
  Zr  Zr45  1  0.79936199  0.41564558  0.74028099  1
  Zr  Zr46  1  0.79126593  0.40273456  0.24299078  1
  Zr  Zr47  1  -0.00531299  0.41084209  0.49492142  1
  Zr  Zr48  1  0.31770585  0.50330858  0.13436576  1
  Zr  Zr49  1  -0.01839620  0.79299459  0.74704741  1
  Zr  Zr50  1  0.48700917  0.88809638  0.87768897  1
  Zr  Zr51  1  0.78970121  0.19307276  0.75412870  1
  Zr  Zr52  1  0.90079344  0.08939768  0.63395689  1
  Zr  Zr53  1  0.59841602  0.39213533  0.74384576  1
  Zr  Zr54  1  0.90212704  0.29342867  0.62661098  1
  Zr  Zr55  1  0.70444008  0.09005757  0.88734108  1
  Zr  Zr56  1  0.09796113  0.10967163  0.64832237  1
  Zr  Zr57  1  0.10393244  0.69763813  0.88003369  1
  Zr  Zr58  1  0.21955617  0.21390059  0.75918485  1
  Zr  Zr59  1  0.70555139  0.09354546  0.11940805  1
  Zr  Zr60  1  0.20360987  0.39499508  0.25506533  1
  Zr  Zr61  1  0.10278977  0.11193830  0.11717277  1
  Zr  Zr62  1  0.09869905  0.91237682  0.86225165  1
  Zr  Zr63  1  0.09682919  0.51472414  0.36727843  1
  Zr  Zr64  1  0.89409699  0.30504412  0.37778502  1
  Zr  Zr65  1  0.18980348  0.00577434  0.25132315  1
  Zr  Zr66  1  0.68934580  0.67401270  0.37847218  1
  Zr  Zr67  1  0.69183059  0.30350236  0.88519936  1
  Zr  Zr68  1  0.30231887  0.70659165  0.38338238  1
  Zr  Zr69  1  0.00690471  0.20096253  0.25318263  1
  Zr  Zr70  1  0.09592084  0.49904822  0.13823092  1
  Zr  Zr71  1  0.70658014  0.88403942  0.12444998  1
  Zr  Zr72  1  0.59428551  0.78740533  0.01093247  1
  Zr  Zr73  1  0.80299553  0.78784960  0.26452944  1
  Zr  Zr74  1  0.61859777  -0.00329842  0.47435041  1
  Zr  Zr75  1  0.49546999  0.09914917  0.87157253  1
  Zr  Zr76  1  0.08691212  0.31245536  0.86446397  1
  Zr  Zr77  1  0.49633710  0.10008539  0.13398959  1
  Zr  Zr78  1  0.20357693  0.40923808  0.49236239  1
  Zr  Zr79  1  0.91195231  0.08945065  0.87076691  1
  Ta  Ta80  1  0.29432772  0.51460424  0.87839796  1
  Ta  Ta81  1  -0.01183191  0.80773963  0.00086137  1
  Ta  Ta82  1  0.80768201  0.19775533  0.00792033  1
  Ta  Ta83  1  0.31475921  0.50496836  0.37157440  1
  Ta  Ta84  1  0.20717189  0.61588550  0.24971468  1
  Ta  Ta85  1  0.19762036  0.80830336  0.24249626  1
  Ta  Ta86  1  0.40263997  0.19768080  0.00150268  1
  Ta  Ta87  1  0.20445603  0.20532473  0.24982881  1
  Ta  Ta88  1  0.89291202  0.70975456  0.11908983  1
  Ta  Ta89  1  0.89525063  0.70132584  0.88244272  1
  Ta  Ta90  1  0.59577612  0.21592962  0.24460693  1
  Ta  Ta91  1  0.29746861  0.31438499  0.61812926  1
  Ta  Ta92  1  0.90461430  0.67863047  0.38955659  1
  Ta  Ta93  1  0.79642304  -0.02413043  0.75376566  1
  Ta  Ta94  1  0.30229942  0.09177684  0.12071015  1
  Ta  Ta95  1  0.59564328  0.20306594  0.00581504  1
  Ta  Ta96  1  0.01554954  0.19333029  0.49758425  1
  Ta  Ta97  1  0.40079748  0.80241554  0.73871856  1
  Ta  Ta98  1  0.00306341  0.60001130  0.00043037  1
  Ta  Ta99  1  0.90509999  0.29564948  0.12376961  1
  Ta  Ta100  1  0.39183236  0.20461664  0.24935229  1
  Ta  Ta101  1  0.79454399  0.19653077  0.24568542  1
  Ta  Ta102  1  0.61037952  0.00300934  0.25981347  1
  Ta  Ta103  1  0.70419130  0.09052169  0.62330428  1
  Ta  Ta104  1  0.70701718  0.67463633  0.13509575  1
  Ta  Ta105  1  0.80943760  0.61007358  0.74828748  1
  Ta  Ta106  1  0.18765037  0.42717600  0.74987439  1
  Ta  Ta107  1  0.78851902  0.40855481  0.50697404  1
  Ta  Ta108  1  -0.00688033  0.00215711  0.50300939  1
  Ta  Ta109  1  0.79488320  0.18598475  0.49560869  1
  Ta  Ta110  1  0.01314236  -0.00357602  0.00242366  1
  Ta  Ta111  1  0.18329823  0.01864997  0.50393495  1
  Ta  Ta112  1  0.58110220  0.39448512  0.01684820  1
  Ta  Ta113  1  0.69755466  0.29704551  0.11998339  1
  Ta  Ta114  1  0.59746815  0.19497235  0.49608279  1
  Ta  Ta115  1  0.70795015  0.88991703  0.88440442  1
  Ta  Ta116  1  0.29988437  0.09041115  0.88017344  1
  Ta  Ta117  1  0.31526320  0.30776433  0.37894819  1
  Ta  Ta118  1  0.48687576  0.90559211  0.14354109  1
  Ta  Ta119  1  -0.01329024  0.61112728  0.25150287  1
  Ti  Ti120  1  0.29946145  0.50850807  0.61253897  1
  Ti  Ti121  1  0.10530579  0.68464575  0.61161676  1
  Ti  Ti122  1  0.58810813  0.39745330  0.50840479  1
  Ti  Ti123  1  0.40179114  -0.00108302  0.74844331  1
  Ti  Ti124  1  0.49597583  0.68493158  0.13451786  1
  Ti  Ti125  1  0.40268620  0.80871357  0.50141929  1
  Ti  Ti126  1  0.38366075  0.79528119  0.24057902  1
  Ti  Ti127  1  0.49276507  0.49814091  0.61843206  1
  Ti  Ti128  1  0.19438493  0.80853625  0.50298653  1
  Ti  Ti129  1  -0.00235687  0.39894282  0.25244251  1
  Ti  Ti130  1  0.40724892  0.59069543  0.00803477  1
  Ti  Ti131  1  0.11255834  0.28629350  0.38356336  1
  Ti  Ti132  1  0.59439672  0.18849761  0.75181049  1
  Ti  Ti133  1  0.49721451  0.68802298  0.86870978  1
  Ti  Ti134  1  0.71566068  0.49499579  0.37615407  1
  Ti  Ti135  1  0.09372369  0.91770768  0.37825346  1
  Ti  Ti136  1  0.90952419  0.50478000  0.62114279  1
  Ti  Ti137  1  0.89940074  0.90352125  0.38075281  1
  Ti  Ti138  1  -0.00459198  0.39897556  0.00849274  1
  Ti  Ti139  1  0.89398611  0.89173429  0.87469056  1
  Ti  Ti140  1  0.81821803  -0.01891299  0.00750825  1
  Ti  Ti141  1  0.40960394  0.00327986  0.49808264  1
  Ti  Ti142  1  0.49551343  0.29611105  0.87387952  1
  Ti  Ti143  1  0.21753820  0.60389956  0.74660543  1
  Ti  Ti144  1  0.00191212  0.20433957  0.00107174  1
  Ti  Ti145  1  0.10094312  0.10526172  0.86680524  1
  Ti  Ti146  1  0.80181604  0.59980002  -0.00122151  1
  Ti  Ti147  1  0.88470007  0.89846323  0.62200441  1
  Ti  Ti148  1  0.41233866  0.60225214  0.25735742  1
  Ti  Ti149  1  0.41777604  0.59591699  0.48731121  1
  Ti  Ti150  1  0.60211599  -0.00672814  0.75530041  1
  Ti  Ti151  1  0.70268296  0.49645732  0.87998262  1
  Ti  Ti152  1  0.41873394  0.38932767  0.24767236  1
  Ti  Ti153  1  0.19741169  0.19711465  -0.00842945  1
  Ti  Ti154  1  0.79088743  0.39910276  0.00922867  1
  Ti  Ti155  1  0.10272872  0.70864138  0.37441886  1
  Ti  Ti156  1  0.38327758  -0.01139584  0.00219450  1
  Ti  Ti157  1  0.90775929  0.09366930  0.12376840  1
  Ti  Ti158  1  0.21150590  0.00122830  0.75044901  1
  Ti  Ti159  1  0.40278679  0.21474581  0.49484030  1
  Mo  Mo160  1  0.40370275  0.40693682  0.50234166  1
  Mo  Mo161  1  0.10025241  0.10205001  0.38154569  1
  Mo  Mo162  1  0.40317357  0.20054297  0.75308363  1
  Mo  Mo163  1  -0.00107377  0.00161814  0.24845803  1
  Mo  Mo164  1  0.11422229  0.51160098  0.61809379  1
  Mo  Mo165  1  0.79597592  0.79394143  0.74865277  1
  Mo  Mo166  1  0.30593440  0.90665014  0.86571591  1
  Mo  Mo167  1  0.80440441  0.59638547  0.25192329  1
  Mo  Mo168  1  0.20143780  0.01493245  -0.00508639  1
  Mo  Mo169  1  0.09292123  0.90984697  0.12566059  1
  Mo  Mo170  1  0.20409157  0.60705704  0.48885424  1
  Mo  Mo171  1  0.89713241  0.50095852  0.36920127  1
  Mo  Mo172  1  0.30252855  0.70197841  0.13764030  1
  Mo  Mo173  1  0.80444456  0.00156741  0.49617794  1
  Mo  Mo174  1  0.80168423  0.79050342  0.00184052  1
  Mo  Mo175  1  0.10475471  0.50856123  0.88239262  1
  Mo  Mo176  1  0.49530854  0.90076239  0.62412039  1
  Mo  Mo177  1  0.70595566  0.11062233  0.36259110  1
  Mo  Mo178  1  0.59872569  0.39589835  0.23477193  1
  Mo  Mo179  1  -0.00546874  -0.00550076  0.75627404  1
  Mo  Mo180  1  0.39387778  0.00393519  0.25219190  1
  Mo  Mo181  1  0.01201364  0.60138415  0.49897294  1
  Mo  Mo182  1  0.50367829  0.49834982  0.13598982  1
  Mo  Mo183  1  0.70307428  0.49321156  0.11476899  1
  Mo  Mo184  1  0.49125617  0.29763355  0.12243871  1
  Mo  Mo185  1  -0.00175987  0.40891319  0.74393926  1
  Mo  Mo186  1  0.81030697  0.58450404  0.50039967  1
  Mo  Mo187  1  0.39281071  0.60383026  0.74757942  1
  Mo  Mo188  1  0.90855323  0.90124650  0.12015272  1
  Mo  Mo189  1  0.40134859  0.39986994  -0.00097982  1
  Mo  Mo190  1  0.60768799  0.57510870  0.50481703  1
  Mo  Mo191  1  0.49559462  0.30119718  0.37825398  1
  Mo  Mo192  1  0.09175624  0.30259531  0.12299459  1
  Mo  Mo193  1  0.30026071  0.91055159  0.13503392  1
  Mo  Mo194  1  0.00108419  0.20392241  0.75583095  1
  Mo  Mo195  1  0.69976023  0.49921719  0.61806744  1
  Mo  Mo196  1  0.60560901  0.58006060  0.23939345  1
  Mo  Mo197  1  0.20137692  0.20914178  0.50569775  1
  Mo  Mo198  1  0.70129007  0.90152339  0.36222591  1
  Mo  Mo199  1  0.49112796  0.68611890  0.37235718  1
