# generated using pymatgen
data_HfZrTaTiMo
_symmetry_space_group_name_H-M   'P 1'
_cell_length_a   15.21027088
_cell_length_b   15.21197670
_cell_length_c   16.80319010
_cell_angle_alpha   89.98533702
_cell_angle_beta   89.94271472
_cell_angle_gamma   90.05291644
_symmetry_Int_Tables_number   1
_chemical_formula_structural   HfZrTaTiMo
_chemical_formula_sum   'Hf40 Zr40 Ta40 Ti40 Mo40'
_cell_volume   3887.88959829
_cell_formula_units_Z   40
loop_
 _symmetry_equiv_pos_site_id
 _symmetry_equiv_pos_as_xyz
  1  'x, y, z'
loop_
 _atom_site_type_symbol
 _atom_site_label
 _atom_site_symmetry_multiplicity
 _atom_site_fract_x
 _atom_site_fract_y
 _atom_site_fract_z
 _atom_site_occupancy
  Hf  Hf0  1  0.30635740  0.30378667  0.86760722  1
  Hf  Hf1  1  0.81130852  0.40120483  -0.01269394  1
  Hf  Hf2  1  0.29308018  0.90124144  0.61229610  1
  Hf  Hf3  1  0.50271847  0.72516227  0.36503167  1
  Hf  Hf4  1  0.11632832  0.30175446  0.63621067  1
  Hf  Hf5  1  0.78653394  0.60435913  -0.00315960  1
  Hf  Hf6  1  0.29332949  0.51005027  0.37215896  1
  Hf  Hf7  1  0.49822685  0.49171343  0.12910712  1
  Hf  Hf8  1  0.49483061  0.50225226  0.60327428  1
  Hf  Hf9  1  0.59933474  0.21167369  0.25443125  1
  Hf  Hf10  1  0.69305780  0.48781289  0.61860919  1
  Hf  Hf11  1  0.01504806  0.79855828  0.24999380  1
  Hf  Hf12  1  0.59762674  -0.01322649  -0.00035676  1
  Hf  Hf13  1  0.81233512  0.19142871  0.00395323  1
  Hf  Hf14  1  0.00206892  0.20176178  0.51757854  1
  Hf  Hf15  1  0.71314506  0.50113778  0.38031732  1
  Hf  Hf16  1  0.60542232  0.81359216  0.50090074  1
  Hf  Hf17  1  0.28822868  0.49270551  0.88771679  1
  Hf  Hf18  1  0.89726453  0.89587091  0.37905992  1
  Hf  Hf19  1  0.40746185  0.01947968  0.50846961  1
  Hf  Hf20  1  0.19945074  0.20405726  0.00457453  1
  Hf  Hf21  1  0.70124538  0.69765477  0.64094032  1
  Hf  Hf22  1  0.70583811  0.09289694  0.13639268  1
  Hf  Hf23  1  0.81577765  0.18563110  0.72474376  1
  Hf  Hf24  1  0.70918535  0.69200045  0.85836619  1
  Hf  Hf25  1  0.69065552  0.08645603  0.36344150  1
  Hf  Hf26  1  0.70017259  0.30521101  0.12372684  1
  Hf  Hf27  1  0.19980771  0.80272245  0.00647391  1
  Hf  Hf28  1  -0.00748045  0.19408118  0.24916915  1
  Hf  Hf29  1  0.00492683  0.20166118  0.00023530  1
  Hf  Hf30  1  0.29615116  0.50272550  0.61503779  1
  Hf  Hf31  1  0.89635554  0.49822063  0.12970497  1
  Hf  Hf32  1  0.10964918  0.89678578  0.39024680  1
  Hf  Hf33  1  0.60802783  0.61531159  0.49041869  1
  Hf  Hf34  1  0.60662761  0.79147288  -0.00225112  1
  Hf  Hf35  1  0.00505909  0.80765352  0.74835590  1
  Hf  Hf36  1  0.31196679  0.30781411  0.61882450  1
  Hf  Hf37  1  0.30484561  0.30715332  0.13508888  1
  Hf  Hf38  1  0.41057715  0.20012212  0.73670299  1
  Hf  Hf39  1  0.00628570  0.39457764  0.25561659  1
  Zr  Zr40  1  0.90330419  0.50945598  0.63894693  1
  Zr  Zr41  1  0.59027697  0.57159341  0.76141589  1
  Zr  Zr42  1  -0.00664409  -0.00131022  0.00272050  1
  Zr  Zr43  1  0.28955281  0.10035439  0.36666090  1
  Zr  Zr44  1  -0.00912590  0.00617702  0.74004102  1
  Zr  Zr45  1  0.19652814  0.39408329  0.48527018  1
  Zr  Zr46  1  0.69362164  0.49998710  0.13536618  1
  Zr  Zr47  1  0.49188881  0.09574541  0.14294853  1
  Zr  Zr48  1  0.80071386  0.38780928  0.25794448  1
  Zr  Zr49  1  0.48718342  0.09507185  0.35948051  1
  Zr  Zr50  1  0.49862075  0.69642374  0.12780330  1
  Zr  Zr51  1  0.17923873  0.58991755  0.75376786  1
  Zr  Zr52  1  0.71315208  0.08948486  0.86796660  1
  Zr  Zr53  1  0.39285383  0.62060781  0.49013222  1
  Zr  Zr54  1  0.89372763  0.10194200  0.38959279  1
  Zr  Zr55  1  0.71066522  0.29060758  0.86701475  1
  Zr  Zr56  1  0.29482748  0.50222785  0.12951243  1
  Zr  Zr57  1  0.39398083  -0.00391875  0.00863877  1
  Zr  Zr58  1  0.29428770  0.69929499  0.88450759  1
  Zr  Zr59  1  0.50061773  0.09231327  0.86677137  1
  Zr  Zr60  1  0.60218797  0.19307297  0.00329088  1
  Zr  Zr61  1  0.31129120  0.90361242  0.37624217  1
  Zr  Zr62  1  0.77379084  -0.00687232  0.50653102  1
  Zr  Zr63  1  0.60015574  0.17042017  0.51328009  1
  Zr  Zr64  1  0.70061907  0.89101848  0.14053975  1
  Zr  Zr65  1  -0.01079994  0.60514063  0.00686481  1
  Zr  Zr66  1  0.89791499  0.51654906  0.85759695  1
  Zr  Zr67  1  0.61087025  -0.00603260  0.73924047  1
  Zr  Zr68  1  0.20151062  0.79838486  0.75184898  1
  Zr  Zr69  1  0.49109219  0.70594485  0.87826119  1
  Zr  Zr70  1  0.81663136  0.60798133  0.50261206  1
  Zr  Zr71  1  0.40416163  0.20701155  0.00132146  1
  Zr  Zr72  1  0.39304714  0.61181858  0.25535064  1
  Zr  Zr73  1  0.29354501  0.10172904  0.86498709  1
  Zr  Zr74  1  0.09530601  0.50490503  0.61174245  1
  Zr  Zr75  1  0.70484484  0.69265983  0.14562594  1
  Zr  Zr76  1  0.38919024  0.60944059  0.74554097  1
  Zr  Zr77  1  0.19090615  -0.00533141  0.75096692  1
  Zr  Zr78  1  0.51373974  0.31252747  0.60436026  1
  Zr  Zr79  1  0.59786286  0.40359262  -0.01308901  1
  Ta  Ta80  1  0.09454388  0.09291387  0.38277495  1
  Ta  Ta81  1  0.49874314  0.29555025  0.39521848  1
  Ta  Ta82  1  0.18684904  0.59861188  0.01225016  1
  Ta  Ta83  1  0.30536666  0.29375434  0.37268678  1
  Ta  Ta84  1  0.09238861  0.90320280  0.60070542  1
  Ta  Ta85  1  0.91574233  0.29618294  0.85758409  1
  Ta  Ta86  1  0.89155005  0.89582104  0.61420678  1
  Ta  Ta87  1  0.79428187  0.39406940  0.74380441  1
  Ta  Ta88  1  0.90360378  0.10228629  0.86934054  1
  Ta  Ta89  1  0.18897032  0.20189559  0.25076416  1
  Ta  Ta90  1  0.89702325  0.70768305  0.13770609  1
  Ta  Ta91  1  0.59657964  0.39994906  0.27226644  1
  Ta  Ta92  1  0.01486111  0.41001387  0.75627034  1
  Ta  Ta93  1  0.70578520  0.89201460  0.87426965  1
  Ta  Ta94  1  0.91029078  0.49919409  0.37725356  1
  Ta  Ta95  1  0.09613787  0.70481656  0.61492812  1
  Ta  Ta96  1  0.00208714  0.00021090  0.24960385  1
  Ta  Ta97  1  0.81084740  0.80271507  0.00053671  1
  Ta  Ta98  1  0.70430000  0.28956985  0.39587165  1
  Ta  Ta99  1  0.28828834  0.10684341  0.62800995  1
  Ta  Ta100  1  0.68831799  0.88745942  0.35419603  1
  Ta  Ta101  1  0.81108125  0.39099042  0.51087861  1
  Ta  Ta102  1  0.40844524  0.39705603  0.26776960  1
  Ta  Ta103  1  0.09577112  0.69719232  0.37808864  1
  Ta  Ta104  1  0.61213356  0.20355048  0.72763675  1
  Ta  Ta105  1  -0.01033192  0.78445496  0.49752436  1
  Ta  Ta106  1  0.01414988  0.40032338  -0.00985099  1
  Ta  Ta107  1  0.19568082  0.00367610  0.00283157  1
  Ta  Ta108  1  0.10365380  0.89859997  0.12729914  1
  Ta  Ta109  1  0.10367693  0.30531660  0.12753129  1
  Ta  Ta110  1  0.41265205  0.41269741  0.74994344  1
  Ta  Ta111  1  0.50218454  0.90131034  0.62440615  1
  Ta  Ta112  1  0.89878520  0.29883858  0.38523398  1
  Ta  Ta113  1  0.09832135  0.09635185  0.12967408  1
  Ta  Ta114  1  0.11415795  0.30582462  0.86209662  1
  Ta  Ta115  1  0.08816868  0.69565314  0.88314930  1
  Ta  Ta116  1  0.31360862  0.90048126  0.87784119  1
  Ta  Ta117  1  0.90697580  0.29738710  0.12206652  1
  Ta  Ta118  1  0.09539854  0.50800390  0.37538729  1
  Ta  Ta119  1  0.50607145  0.30391884  0.86278715  1
  Ti  Ti120  1  0.60264552  0.59915439  0.26844515  1
  Ti  Ti121  1  0.20390184  0.19187708  0.49888415  1
  Ti  Ti122  1  0.29176780  0.10246985  0.14103332  1
  Ti  Ti123  1  0.29380810  0.70689464  0.61756822  1
  Ti  Ti124  1  0.79982506  0.81525298  0.74723316  1
  Ti  Ti125  1  0.40080587  0.80809424  0.74654963  1
  Ti  Ti126  1  0.50077524  0.49889674  0.38845845  1
  Ti  Ti127  1  0.00140007  0.59882133  0.24465425  1
  Ti  Ti128  1  0.40241894  0.80337270  0.01215345  1
  Ti  Ti129  1  0.89566815  0.69337087  0.36168057  1
  Ti  Ti130  1  0.89559195  0.90701231  0.87596060  1
  Ti  Ti131  1  0.80183619  -0.00570495  0.00548690  1
  Ti  Ti132  1  -0.00066658  0.80053342  0.00821640  1
  Ti  Ti133  1  0.59128059  0.80151431  0.75367588  1
  Ti  Ti134  1  0.49568676  0.70643837  0.62590555  1
  Ti  Ti135  1  0.29897440  0.90297582  0.13138194  1
  Ti  Ti136  1  0.49807921  0.30503667  0.13041928  1
  Ti  Ti137  1  0.19055954  0.61420741  0.49495903  1
  Ti  Ti138  1  0.59195175  0.59147946  -0.01517595  1
  Ti  Ti139  1  0.18762230  0.62053215  0.23864670  1
  Ti  Ti140  1  0.09785053  0.90089299  0.88399166  1
  Ti  Ti141  1  0.80448811  0.19844321  0.24979190  1
  Ti  Ti142  1  0.09997527  0.49538578  0.12795359  1
  Ti  Ti143  1  0.79284549  0.79194838  0.49640340  1
  Ti  Ti144  1  0.40493056  0.80949095  0.49837914  1
  Ti  Ti145  1  0.19293150  -0.00935654  0.24774279  1
  Ti  Ti146  1  0.90210926  0.90248038  0.13140479  1
  Ti  Ti147  1  0.19888286  0.40060378  0.26082569  1
  Ti  Ti148  1  0.28395405  0.71786876  0.36991880  1
  Ti  Ti149  1  0.01121475  0.19768760  0.73584813  1
  Ti  Ti150  1  0.40385495  0.81880977  0.24006136  1
  Ti  Ti151  1  0.40144743  -0.00609087  0.74212987  1
  Ti  Ti152  1  0.80518236  0.20023322  0.52785684  1
  Ti  Ti153  1  0.09760821  0.10772483  0.87176726  1
  Ti  Ti154  1  0.39420317  0.59768898  0.00629625  1
  Ti  Ti155  1  0.09750888  0.29106076  0.37708040  1
  Ti  Ti156  1  0.81072475  -0.00113596  0.25078622  1
  Ti  Ti157  1  0.90385822  0.70248914  0.63636461  1
  Ti  Ti158  1  0.89913613  0.71438350  0.86697462  1
  Ti  Ti159  1  -0.00398012  0.39983209  0.49999816  1
  Mo  Mo160  1  0.70416033  0.08761338  0.63006847  1
  Mo  Mo161  1  0.09657813  0.69741156  0.12337354  1
  Mo  Mo162  1  0.50394222  0.91248959  0.36982398  1
  Mo  Mo163  1  0.48128409  0.49095262  0.88458666  1
  Mo  Mo164  1  0.29376521  0.70918150  0.12160728  1
  Mo  Mo165  1  0.39896099  0.40451418  0.47858418  1
  Mo  Mo166  1  0.70021426  0.88465190  0.63049377  1
  Mo  Mo167  1  0.00259548  0.61741949  0.75430651  1
  Mo  Mo168  1  0.81233695  0.80123730  0.25496815  1
  Mo  Mo169  1  0.71045997  0.70518198  0.36195204  1
  Mo  Mo170  1  0.39221122  0.21352844  0.24811795  1
  Mo  Mo171  1  0.69704092  0.49288554  0.86627956  1
  Mo  Mo172  1  0.10766164  0.09580621  0.61708461  1
  Mo  Mo173  1  0.38961956  0.20500761  0.50677543  1
  Mo  Mo174  1  0.59418682  0.79497659  0.24767219  1
  Mo  Mo175  1  0.19484370  0.00856980  0.50352960  1
  Mo  Mo176  1  0.61074445  0.40160993  0.48095084  1
  Mo  Mo177  1  0.89921406  0.09431329  0.13155679  1
  Mo  Mo178  1  0.81387864  0.59616221  0.25852801  1
  Mo  Mo179  1  0.09766539  0.49907077  0.88269700  1
  Mo  Mo180  1  0.91124286  0.31079343  0.63923442  1
  Mo  Mo181  1  0.20354606  0.79258811  0.50215171  1
  Mo  Mo182  1  0.70813878  0.29949102  0.61612646  1
  Mo  Mo183  1  0.58922972  -0.01192606  0.24551593  1
  Mo  Mo184  1  0.38641969  -0.00089139  0.23774954  1
  Mo  Mo185  1  0.49725421  0.89546517  0.86841063  1
  Mo  Mo186  1  0.90847853  0.08935431  0.61119191  1
  Mo  Mo187  1  0.20857128  0.40065083  0.74910827  1
  Mo  Mo188  1  -0.00068840  0.60304511  0.49261520  1
  Mo  Mo189  1  0.19360830  0.39829834  0.00741275  1
  Mo  Mo190  1  0.80844568  -0.01194029  0.74435017  1
  Mo  Mo191  1  0.59904884  0.38942232  0.75127634  1
  Mo  Mo192  1  0.79989271  0.60404079  0.74656405  1
  Mo  Mo193  1  0.19903973  0.19905879  0.74876653  1
  Mo  Mo194  1  0.49771185  0.89606516  0.12721619  1
  Mo  Mo195  1  -0.00664575  -0.00359169  0.50366779  1
  Mo  Mo196  1  0.49374460  0.09650391  0.63460528  1
  Mo  Mo197  1  0.20938129  0.79746079  0.24134643  1
  Mo  Mo198  1  0.59302150  -0.00994515  0.50378202  1
  Mo  Mo199  1  0.40341968  0.40244578  -0.00023734  1
