# generated using pymatgen
data_HfZrTaTiMo
_symmetry_space_group_name_H-M   'P 1'
_cell_length_a   15.21794449
_cell_length_b   15.22674447
_cell_length_c   16.83338172
_cell_angle_alpha   89.96651130
_cell_angle_beta   90.03993052
_cell_angle_gamma   89.90664378
_symmetry_Int_Tables_number   1
_chemical_formula_structural   HfZrTaTiMo
_chemical_formula_sum   'Hf40 Zr40 Ta40 Ti40 Mo40'
_cell_volume   3900.62024473
_cell_formula_units_Z   40
loop_
 _symmetry_equiv_pos_site_id
 _symmetry_equiv_pos_as_xyz
  1  'x, y, z'
loop_
 _atom_site_type_symbol
 _atom_site_label
 _atom_site_symmetry_multiplicity
 _atom_site_fract_x
 _atom_site_fract_y
 _atom_site_fract_z
 _atom_site_occupancy
  Hf  Hf0  1  -0.00354362  0.60134453  0.49112469  1
  Hf  Hf1  1  0.81391819  0.59988696  0.77119261  1
  Hf  Hf2  1  0.49798617  0.70026639  0.63307896  1
  Hf  Hf3  1  0.49214170  0.69387054  0.87317766  1
  Hf  Hf4  1  -0.00806384  0.79661617  -0.00883951  1
  Hf  Hf5  1  0.37990505  -0.01500649  -0.00576977  1
  Hf  Hf6  1  -0.00003991  0.59465296  -0.01585474  1
  Hf  Hf7  1  0.79501046  0.02069348  0.75132963  1
  Hf  Hf8  1  0.48584938  0.90094571  0.63695130  1
  Hf  Hf9  1  0.39587958  0.41228438  0.75765332  1
  Hf  Hf10  1  0.89567587  0.10719685  0.62225208  1
  Hf  Hf11  1  0.10086474  0.50627713  0.12881566  1
  Hf  Hf12  1  0.40012372  0.58099500  0.47769637  1
  Hf  Hf13  1  0.60260601  0.19755551  -0.00493881  1
  Hf  Hf14  1  0.60612075  0.20028902  0.50787101  1
  Hf  Hf15  1  0.59149419  0.79492175  0.01096784  1
  Hf  Hf16  1  0.60078625  0.39482159  0.75558930  1
  Hf  Hf17  1  0.39724749  0.18605343  -0.00105220  1
  Hf  Hf18  1  0.18999991  0.59828188  0.48026636  1
  Hf  Hf19  1  0.11088635  0.09308073  0.36967197  1
  Hf  Hf20  1  0.49348187  0.89451360  0.35954807  1
  Hf  Hf21  1  0.89805383  0.10603133  0.37622818  1
  Hf  Hf22  1  0.20958198  0.60025929  0.75150397  1
  Hf  Hf23  1  0.89941191  0.31169201  0.62587340  1
  Hf  Hf24  1  0.29916061  0.08298496  0.13754298  1
  Hf  Hf25  1  0.30670307  0.09376071  0.62793372  1
  Hf  Hf26  1  0.01494921  0.40653789  0.49307891  1
  Hf  Hf27  1  0.28938500  0.30624142  0.87972578  1
  Hf  Hf28  1  0.80032287  0.79707121  0.49979479  1
  Hf  Hf29  1  0.60142706  0.60193572  0.50691454  1
  Hf  Hf30  1  0.70696016  0.49671203  0.63110146  1
  Hf  Hf31  1  0.59123602  -0.00263124  -0.00057291  1
  Hf  Hf32  1  0.40717703  0.58403275  0.24887249  1
  Hf  Hf33  1  0.80090753  0.60577437  0.49098929  1
  Hf  Hf34  1  0.90650623  0.30918923  0.36885779  1
  Hf  Hf35  1  0.50405474  0.30274526  0.88049882  1
  Hf  Hf36  1  -0.01785093  0.00981956  0.00021198  1
  Hf  Hf37  1  0.89253152  0.88683086  0.13117701  1
  Hf  Hf38  1  0.19962777  0.60383288  0.25976420  1
  Hf  Hf39  1  0.00214131  0.39509886  0.00889773  1
  Zr  Zr40  1  0.78750536  0.00549560  0.50624761  1
  Zr  Zr41  1  0.30185075  0.30260285  0.62180354  1
  Zr  Zr42  1  0.81175392  0.40053739  0.76271518  1
  Zr  Zr43  1  0.49449267  0.29919590  0.38190117  1
  Zr  Zr44  1  0.29490994  0.49870636  0.61589459  1
  Zr  Zr45  1  0.59003099  -0.00494850  0.49937643  1
  Zr  Zr46  1  0.11055340  0.91166833  0.87832667  1
  Zr  Zr47  1  0.12190855  0.69332837  0.87953976  1
  Zr  Zr48  1  0.31146113  0.10430400  0.37341166  1
  Zr  Zr49  1  0.69012495  0.70040425  0.87755461  1
  Zr  Zr50  1  0.89690092  0.89144222  0.63470418  1
  Zr  Zr51  1  0.00696650  0.20618046  0.50009645  1
  Zr  Zr52  1  0.58702113  0.02501888  0.24177909  1
  Zr  Zr53  1  0.10249562  0.88348557  0.63154264  1
  Zr  Zr54  1  0.01356395  -0.00999489  0.50439077  1
  Zr  Zr55  1  0.70498029  0.10160182  0.11882644  1
  Zr  Zr56  1  0.79085742  0.41626458  0.23965499  1
  Zr  Zr57  1  0.20215462  0.20339607  0.50109245  1
  Zr  Zr58  1  0.29536925  0.70530154  0.61034081  1
  Zr  Zr59  1  -0.00587348  0.78189316  0.76680581  1
  Zr  Zr60  1  0.90149945  0.89912290  0.36801232  1
  Zr  Zr61  1  0.10464064  0.91212635  0.12304561  1
  Zr  Zr62  1  0.10120525  0.11446275  0.12979512  1
  Zr  Zr63  1  0.69691602  0.89036736  0.35790900  1
  Zr  Zr64  1  0.48665592  0.90674938  0.13948701  1
  Zr  Zr65  1  0.51850503  0.68937016  0.36104720  1
  Zr  Zr66  1  0.09070150  0.11095563  0.87403798  1
  Zr  Zr67  1  0.29410289  0.90368296  0.36879439  1
  Zr  Zr68  1  0.40662155  0.20005792  0.75695559  1
  Zr  Zr69  1  -0.00207683  0.00280655  0.24697285  1
  Zr  Zr70  1  0.79090552  0.62206533  0.24962869  1
  Zr  Zr71  1  0.70489856  0.70355089  0.64359592  1
  Zr  Zr72  1  0.69611697  0.11004277  0.36516200  1
  Zr  Zr73  1  0.68610405  0.90076667  0.64186793  1
  Zr  Zr74  1  0.39300025  0.78736086  0.01098639  1
  Zr  Zr75  1  0.29829766  0.49178791  0.12249596  1
  Zr  Zr76  1  0.69423255  0.31094148  0.36446521  1
  Zr  Zr77  1  0.20899941  0.80857398  0.01121674  1
  Zr  Zr78  1  0.70537359  0.31057554  0.11399253  1
  Zr  Zr79  1  0.79716881  0.41081153  0.49575326  1
  Ta  Ta80  1  0.69476986  0.49522535  0.89386257  1
  Ta  Ta81  1  0.39850105  0.38853543  0.24513255  1
  Ta  Ta82  1  0.18674591  0.41058104  0.75505513  1
  Ta  Ta83  1  0.59517593  0.58793153  0.75301116  1
  Ta  Ta84  1  0.91984761  0.50762827  0.63110869  1
  Ta  Ta85  1  -0.00243976  0.40444182  0.23939894  1
  Ta  Ta86  1  0.49287762  0.89566808  0.86338550  1
  Ta  Ta87  1  0.49993050  0.29889297  0.11868380  1
  Ta  Ta88  1  0.29809017  0.29001408  0.12411206  1
  Ta  Ta89  1  0.30190236  0.51371705  0.89243692  1
  Ta  Ta90  1  0.09837377  0.88346200  0.36755766  1
  Ta  Ta91  1  0.79923756  0.81095611  -0.01409518  1
  Ta  Ta92  1  0.29027099  0.09044271  0.86841002  1
  Ta  Ta93  1  0.91257358  0.70830899  0.36153441  1
  Ta  Ta94  1  0.90169781  0.28282851  0.87816581  1
  Ta  Ta95  1  0.61183352  0.78007372  0.23095793  1
  Ta  Ta96  1  0.70175544  0.89864006  0.12766321  1
  Ta  Ta97  1  0.39984950  0.39768887  0.00365535  1
  Ta  Ta98  1  0.50476410  0.10354828  0.63189256  1
  Ta  Ta99  1  0.67619529  0.51696461  0.36766296  1
  Ta  Ta100  1  0.19264593  0.20570534  0.74772367  1
  Ta  Ta101  1  0.09395334  0.30735694  0.87539885  1
  Ta  Ta102  1  0.72002549  0.69963701  0.10627099  1
  Ta  Ta103  1  0.79782313  0.20882109  0.50071903  1
  Ta  Ta104  1  0.68886261  0.90681948  0.87058382  1
  Ta  Ta105  1  0.71116271  0.29666669  0.88758379  1
  Ta  Ta106  1  0.50190830  0.50411713  0.89196855  1
  Ta  Ta107  1  0.29588988  0.89990783  0.61713593  1
  Ta  Ta108  1  0.19613259  0.20094086  0.00027420  1
  Ta  Ta109  1  0.41930818  0.19250757  0.24008534  1
  Ta  Ta110  1  -0.00777825  0.20420782  0.74643358  1
  Ta  Ta111  1  0.89385794  0.51652513  0.12233292  1
  Ta  Ta112  1  0.50075012  0.30149221  0.62096381  1
  Ta  Ta113  1  0.59951368  0.79720008  0.49882554  1
  Ta  Ta114  1  0.19664291  0.79799469  0.24066805  1
  Ta  Ta115  1  0.80714191  0.20741738  0.24168518  1
  Ta  Ta116  1  0.01154851  0.56738984  0.77247493  1
  Ta  Ta117  1  0.10490285  0.09839923  0.63409351  1
  Ta  Ta118  1  -0.00002465  0.00354496  0.74990700  1
  Ta  Ta119  1  0.38278462  0.80004767  0.75577424  1
  Ti  Ti120  1  -0.00887776  0.20662437  0.00835907  1
  Ti  Ti121  1  0.61847036  0.19372130  0.75716486  1
  Ti  Ti122  1  0.20266319  0.39575304  0.25956164  1
  Ti  Ti123  1  0.00377928  0.78742775  0.50182806  1
  Ti  Ti124  1  0.89124195  0.91550905  0.87188353  1
  Ti  Ti125  1  0.79556446  0.80607355  0.76791497  1
  Ti  Ti126  1  0.10884474  0.30579504  0.12870980  1
  Ti  Ti127  1  0.79782664  0.00352938  0.24749065  1
  Ti  Ti128  1  0.09912245  0.31271194  0.63197372  1
  Ti  Ti129  1  0.60311656  0.58796470  0.21714930  1
  Ti  Ti130  1  0.59237305  0.40848668  0.50006272  1
  Ti  Ti131  1  0.72240605  0.10228705  0.88984679  1
  Ti  Ti132  1  0.59344288  0.00657275  0.75424871  1
  Ti  Ti133  1  0.90376242  0.69365986  0.63430787  1
  Ti  Ti134  1  0.49663117  0.10299530  0.38040611  1
  Ti  Ti135  1  0.20751810  0.40547125  0.48056139  1
  Ti  Ti136  1  0.20741693  -0.00580892  0.74849504  1
  Ti  Ti137  1  0.40692006  0.79692225  0.49354015  1
  Ti  Ti138  1  0.08617180  0.70034601  0.12665567  1
  Ti  Ti139  1  0.58665733  0.40683396  0.23984529  1
  Ti  Ti140  1  0.21117992  0.60714624  0.00918338  1
  Ti  Ti141  1  0.70110769  0.29153086  0.63204196  1
  Ti  Ti142  1  0.49509601  0.49393099  0.62441131  1
  Ti  Ti143  1  0.30644497  0.30084409  0.37848810  1
  Ti  Ti144  1  0.81201887  0.40001900  -0.00071055  1
  Ti  Ti145  1  0.89519282  0.10784406  0.12774238  1
  Ti  Ti146  1  0.20329583  0.79681237  0.75234114  1
  Ti  Ti147  1  0.08968238  0.49794199  0.35715619  1
  Ti  Ti148  1  0.19405235  0.80326838  0.49376109  1
  Ti  Ti149  1  0.41106936  0.60168117  0.02172385  1
  Ti  Ti150  1  0.80880221  0.60499458  -0.01316807  1
  Ti  Ti151  1  0.29967348  0.70645160  0.37322053  1
  Ti  Ti152  1  0.20693647  0.20898213  0.25616571  1
  Ti  Ti153  1  0.09105942  0.67457972  0.63129285  1
  Ti  Ti154  1  0.39932809  0.59976454  0.75203912  1
  Ti  Ti155  1  0.89503700  0.50792862  0.36066021  1
  Ti  Ti156  1  0.39462583  -0.00034835  0.50000547  1
  Ti  Ti157  1  0.49935575  0.09157032  0.86880038  1
  Ti  Ti158  1  0.39261942  0.78338689  0.23569574  1
  Ti  Ti159  1  0.00602225  0.21313439  0.24962298  1
  Mo  Mo160  1  0.30793239  0.69462495  0.87652038  1
  Mo  Mo161  1  0.19944907  -0.00820876  0.50831683  1
  Mo  Mo162  1  0.41175897  0.19163649  0.50989364  1
  Mo  Mo163  1  0.89851121  0.10384548  0.87268787  1
  Mo  Mo164  1  0.00376193  0.78487420  0.24241453  1
  Mo  Mo165  1  0.10166286  0.70783519  0.37179293  1
  Mo  Mo166  1  0.89943152  0.70217360  0.87423773  1
  Mo  Mo167  1  0.20163227  0.39547303  0.00290106  1
  Mo  Mo168  1  0.50527519  0.48796065  0.11167958  1
  Mo  Mo169  1  0.50232861  0.69234332  0.13434092  1
  Mo  Mo170  1  0.29471692  0.89791497  0.14406193  1
  Mo  Mo171  1  0.90231055  0.48617745  0.88694567  1
  Mo  Mo172  1  0.19789178  -0.00140678  0.25662136  1
  Mo  Mo173  1  0.60087979  0.40054139  -0.00462913  1
  Mo  Mo174  1  0.50535696  0.48676972  0.36740556  1
  Mo  Mo175  1  0.29945225  0.48276679  0.36659100  1
  Mo  Mo176  1  0.11755504  0.48591176  0.88975286  1
  Mo  Mo177  1  0.20225667  0.01433728  -0.00345956  1
  Mo  Mo178  1  0.70519908  0.50773136  0.09845984  1
  Mo  Mo179  1  0.39939748  0.00110031  0.25565308  1
  Mo  Mo180  1  0.59131063  0.79995013  0.75785896  1
  Mo  Mo181  1  0.79263192  0.20660161  0.75327034  1
  Mo  Mo182  1  0.29165684  0.69222452  0.13507167  1
  Mo  Mo183  1  0.90935349  0.30028292  0.13365738  1
  Mo  Mo184  1  0.90242282  0.69638827  0.11649925  1
  Mo  Mo185  1  0.10984518  0.30753722  0.36073128  1
  Mo  Mo186  1  -0.00388103  0.59872751  0.24779335  1
  Mo  Mo187  1  0.60017410  0.59801281  0.01173615  1
  Mo  Mo188  1  0.79382687  -0.00760694  -0.00287585  1
  Mo  Mo189  1  0.81738404  0.19752361  0.00557695  1
  Mo  Mo190  1  0.49481754  0.10954074  0.11600716  1
  Mo  Mo191  1  0.59829961  0.22006589  0.23965793  1
  Mo  Mo192  1  0.29796205  0.89633137  0.86727695  1
  Mo  Mo193  1  0.00593622  0.39306857  0.75560169  1
  Mo  Mo194  1  0.39635078  -0.00179127  0.75657955  1
  Mo  Mo195  1  0.69164459  0.11128764  0.63092041  1
  Mo  Mo196  1  0.09914080  0.49798668  0.62397909  1
  Mo  Mo197  1  0.79988782  0.80427937  0.24374896  1
  Mo  Mo198  1  0.40331840  0.39430346  0.49924371  1
  Mo  Mo199  1  0.70098646  0.70477202  0.37415046  1
