# generated using pymatgen
data_HfZrTaTiMo
_symmetry_space_group_name_H-M   'P 1'
_cell_length_a   15.20612919
_cell_length_b   15.20640426
_cell_length_c   16.84541803
_cell_angle_alpha   89.96792264
_cell_angle_beta   90.00937003
_cell_angle_gamma   89.99019773
_symmetry_Int_Tables_number   1
_chemical_formula_structural   HfZrTaTiMo
_chemical_formula_sum   'Hf40 Zr40 Ta40 Ti40 Mo40'
_cell_volume   3895.17451667
_cell_formula_units_Z   40
loop_
 _symmetry_equiv_pos_site_id
 _symmetry_equiv_pos_as_xyz
  1  'x, y, z'
loop_
 _atom_site_type_symbol
 _atom_site_label
 _atom_site_symmetry_multiplicity
 _atom_site_fract_x
 _atom_site_fract_y
 _atom_site_fract_z
 _atom_site_occupancy
  Hf  Hf0  1  0.59310764  0.58654997  0.49085104  1
  Hf  Hf1  1  0.81062177  0.39587348  0.48979659  1
  Hf  Hf2  1  0.50322607  0.72266877  0.87848342  1
  Hf  Hf3  1  0.09819216  0.71404807  0.13395257  1
  Hf  Hf4  1  0.80035492  0.18227807  0.01701989  1
  Hf  Hf5  1  0.59076363  0.18310927  0.75464185  1
  Hf  Hf6  1  -0.01252447  0.21197548  0.48963832  1
  Hf  Hf7  1  0.89411049  0.69001823  0.36019829  1
  Hf  Hf8  1  0.29346632  0.70518589  0.12976983  1
  Hf  Hf9  1  0.21311535  0.80035630  -0.01784031  1
  Hf  Hf10  1  0.40209250  0.79537685  0.51005431  1
  Hf  Hf11  1  0.31018738  0.51431635  0.60570941  1
  Hf  Hf12  1  0.78648377  -0.02094732  0.00148142  1
  Hf  Hf13  1  0.51267718  0.12494061  0.38431698  1
  Hf  Hf14  1  0.08029416  0.09987603  0.12500809  1
  Hf  Hf15  1  0.69824662  0.69713266  0.36432078  1
  Hf  Hf16  1  0.78965874  0.39281101  0.23427698  1
  Hf  Hf17  1  0.38995615  0.19348294  0.00588832  1
  Hf  Hf18  1  0.71114648  0.28461953  0.88191773  1
  Hf  Hf19  1  0.71270165  0.90041643  0.37570378  1
  Hf  Hf20  1  0.40703035  0.20504447  0.24166924  1
  Hf  Hf21  1  0.18554908  0.20811867  -0.00364769  1
  Hf  Hf22  1  0.19643573  0.80966969  0.49599265  1
  Hf  Hf23  1  0.19459939  -0.00011876  0.50235221  1
  Hf  Hf24  1  0.79468908  -0.01548387  0.75281385  1
  Hf  Hf25  1  0.91499520  0.89252447  0.36432482  1
  Hf  Hf26  1  0.08724067  0.31463932  0.87192180  1
  Hf  Hf27  1  0.61034982  0.40437005  0.76719870  1
  Hf  Hf28  1  0.31503338  0.30505896  0.38003557  1
  Hf  Hf29  1  0.79714400  0.59425226  0.74983668  1
  Hf  Hf30  1  -0.02070339  0.21875340  0.75175432  1
  Hf  Hf31  1  0.61027207  0.82526957  -0.00049599  1
  Hf  Hf32  1  0.39630374  0.00434829  0.51706972  1
  Hf  Hf33  1  0.51778850  0.69611166  0.63035490  1
  Hf  Hf34  1  0.60317017  0.00716958  0.25917326  1
  Hf  Hf35  1  0.92228345  0.90177330  0.13304751  1
  Hf  Hf36  1  0.20694756  0.00207656  0.75832468  1
  Hf  Hf37  1  0.30958327  0.89816582  0.12147116  1
  Hf  Hf38  1  0.07468138  0.31600928  0.62494245  1
  Hf  Hf39  1  0.59315124  0.58573519  0.24761082  1
  Zr  Zr40  1  0.28374440  0.09752192  0.13112387  1
  Zr  Zr41  1  0.20531014  0.81991715  0.27053457  1
  Zr  Zr42  1  0.89768125  0.10450493  0.62924699  1
  Zr  Zr43  1  0.10749697  0.29961550  0.36351266  1
  Zr  Zr44  1  0.70536257  0.68638874  0.13014817  1
  Zr  Zr45  1  0.39218755  0.40703154  0.75564356  1
  Zr  Zr46  1  0.91723798  0.49218572  0.88828192  1
  Zr  Zr47  1  0.12568844  0.50888652  0.88944565  1
  Zr  Zr48  1  0.60444312  0.00224156  0.50606257  1
  Zr  Zr49  1  0.10176785  0.51389342  0.61525369  1
  Zr  Zr50  1  -0.00075477  0.61483862  0.01080390  1
  Zr  Zr51  1  0.01307069  0.81630586  -0.01488591  1
  Zr  Zr52  1  0.59759943  0.38511631  -0.00423355  1
  Zr  Zr53  1  0.59013002  0.17665664  0.00679801  1
  Zr  Zr54  1  0.38391333  0.60676397  -0.00737131  1
  Zr  Zr55  1  0.78206073  0.18944713  0.48483382  1
  Zr  Zr56  1  0.29434743  0.10948932  0.37742880  1
  Zr  Zr57  1  0.90766601  0.48734028  0.62314368  1
  Zr  Zr58  1  0.27548958  0.49929740  0.12022637  1
  Zr  Zr59  1  0.48672682  0.28645934  0.87100269  1
  Zr  Zr60  1  0.40769345  0.60540764  0.75447982  1
  Zr  Zr61  1  0.29277122  0.31644220  0.61667159  1
  Zr  Zr62  1  0.00440803  0.00160096  0.50209634  1
  Zr  Zr63  1  0.50221639  0.89475429  0.38359973  1
  Zr  Zr64  1  -0.00425750  0.18642237  0.25783114  1
  Zr  Zr65  1  0.39401614  0.59599231  0.24597800  1
  Zr  Zr66  1  0.49568517  0.71243231  0.11526879  1
  Zr  Zr67  1  0.69453875  0.49995478  0.62643276  1
  Zr  Zr68  1  0.81517011  0.78194062  0.00980246  1
  Zr  Zr69  1  0.19263415  0.19589041  0.51539369  1
  Zr  Zr70  1  0.00043566  0.79549089  0.50951413  1
  Zr  Zr71  1  0.71322779  0.29859242  0.62950913  1
  Zr  Zr72  1  0.69448487  0.09352155  0.62807202  1
  Zr  Zr73  1  0.39254035  -0.00320669  0.26089216  1
  Zr  Zr74  1  0.20312049  -0.00097185  -0.02361259  1
  Zr  Zr75  1  0.19048960  0.61736978  0.48852518  1
  Zr  Zr76  1  -0.00792067  0.01585063  -0.01628972  1
  Zr  Zr77  1  0.71904252  0.49684800  0.89384685  1
  Zr  Zr78  1  0.50868673  0.30678085  0.63086827  1
  Zr  Zr79  1  0.30663294  0.50663544  0.38482097  1
  Ta  Ta80  1  0.90218893  0.69590494  0.86250994  1
  Ta  Ta81  1  0.58716135  -0.02254554  0.73741284  1
  Ta  Ta82  1  0.60559719  0.38468123  0.48548340  1
  Ta  Ta83  1  0.90791227  0.28937659  0.12189725  1
  Ta  Ta84  1  0.49464235  0.49832837  0.10725052  1
  Ta  Ta85  1  0.41331050  -0.00821996  -0.00578232  1
  Ta  Ta86  1  0.00412678  0.80806503  0.75458302  1
  Ta  Ta87  1  0.40912688  0.80156819  0.25800834  1
  Ta  Ta88  1  0.70395988  0.49154088  0.36845932  1
  Ta  Ta89  1  0.51152144  0.91716358  0.12812318  1
  Ta  Ta90  1  0.79691415  0.60452125  0.50108934  1
  Ta  Ta91  1  0.40898783  0.20440269  0.51685014  1
  Ta  Ta92  1  0.20684810  0.80393922  0.75929556  1
  Ta  Ta93  1  0.61249120  0.78920452  0.50430128  1
  Ta  Ta94  1  0.79098230  0.18999783  0.23907634  1
  Ta  Ta95  1  0.38396784  0.39597569  -0.00706942  1
  Ta  Ta96  1  0.18542742  0.60205412  0.26282915  1
  Ta  Ta97  1  0.69236521  0.49031182  0.11044750  1
  Ta  Ta98  1  0.29814294  0.30478074  0.13124219  1
  Ta  Ta99  1  0.09076525  0.11190840  0.85928477  1
  Ta  Ta100  1  0.28334230  0.30526620  0.86922750  1
  Ta  Ta101  1  0.49821193  0.50340711  0.88928741  1
  Ta  Ta102  1  0.80341777  0.79852480  0.23707753  1
  Ta  Ta103  1  0.82685618  0.38292065  0.75744503  1
  Ta  Ta104  1  0.89731771  0.69924180  0.63684227  1
  Ta  Ta105  1  0.60258664  0.20382002  0.23126080  1
  Ta  Ta106  1  0.38415119  0.19065632  0.73419404  1
  Ta  Ta107  1  0.71017137  0.87684880  0.62365958  1
  Ta  Ta108  1  0.20584632  0.60344888  0.74628822  1
  Ta  Ta109  1  0.88842132  0.50854541  0.11924004  1
  Ta  Ta110  1  0.60370479  0.60621188  -0.00570175  1
  Ta  Ta111  1  0.80685273  0.00216068  0.24126361  1
  Ta  Ta112  1  0.11246252  0.30030807  0.13962208  1
  Ta  Ta113  1  0.80794737  -0.01511331  0.50398216  1
  Ta  Ta114  1  0.49520813  0.69041737  0.37764883  1
  Ta  Ta115  1  0.29951898  0.69749223  0.86637963  1
  Ta  Ta116  1  -0.00059638  0.40648509  0.23579339  1
  Ta  Ta117  1  0.01645328  0.39938824  0.02662828  1
  Ta  Ta118  1  0.89319773  0.30566394  0.35775875  1
  Ta  Ta119  1  0.41098288  0.81739202  0.74227218  1
  Ti  Ti120  1  0.40798952  0.40611379  0.24760498  1
  Ti  Ti121  1  0.08433486  0.50275596  0.37308907  1
  Ti  Ti122  1  0.59920298  0.80218763  0.24620486  1
  Ti  Ti123  1  0.30675636  0.70727573  0.37636606  1
  Ti  Ti124  1  0.59161293  0.39267416  0.24486559  1
  Ti  Ti125  1  0.60418043  0.60085557  0.76829592  1
  Ti  Ti126  1  0.79030671  0.19267650  0.75632395  1
  Ti  Ti127  1  0.50368646  0.49914842  0.62656432  1
  Ti  Ti128  1  0.89151909  0.09124703  0.37173324  1
  Ti  Ti129  1  0.10060647  0.70175908  0.86750733  1
  Ti  Ti130  1  0.90081892  0.29940997  0.90422725  1
  Ti  Ti131  1  0.91107471  0.89789564  0.63681542  1
  Ti  Ti132  1  0.62010924  0.79563068  0.74964464  1
  Ti  Ti133  1  0.30324306  0.11025730  0.86833548  1
  Ti  Ti134  1  0.29901170  0.70504239  0.63142352  1
  Ti  Ti135  1  0.18541722  0.40462080  0.49168278  1
  Ti  Ti136  1  0.11628442  0.91047526  0.12924683  1
  Ti  Ti137  1  0.68605278  0.07084027  0.87427189  1
  Ti  Ti138  1  0.89679755  0.49843093  0.36362477  1
  Ti  Ti139  1  -0.01309500  0.59743723  0.49441466  1
  Ti  Ti140  1  0.49745241  0.30548635  0.11895209  1
  Ti  Ti141  1  0.68735694  0.07749732  0.12306155  1
  Ti  Ti142  1  -0.00740139  0.59805369  0.23865389  1
  Ti  Ti143  1  0.08433954  0.70828315  0.36529840  1
  Ti  Ti144  1  0.29004363  0.90044556  0.63092271  1
  Ti  Ti145  1  0.19404798  0.41166944  0.74470204  1
  Ti  Ti146  1  0.20180219  0.40814821  0.25607902  1
  Ti  Ti147  1  0.18088845  0.01630155  0.26997850  1
  Ti  Ti148  1  0.68809249  0.28504886  0.36428965  1
  Ti  Ti149  1  0.88921066  0.10596871  0.87134649  1
  Ti  Ti150  1  0.80770966  0.79169471  0.50358168  1
  Ti  Ti151  1  0.42342705  0.41081701  0.49230273  1
  Ti  Ti152  1  0.89452136  0.89392776  0.86654157  1
  Ti  Ti153  1  0.09366986  0.09001238  0.64611082  1
  Ti  Ti154  1  0.10038662  0.71368244  0.63707799  1
  Ti  Ti155  1  0.19467586  0.20904755  0.74178772  1
  Ti  Ti156  1  0.00848820  0.59686847  0.75091489  1
  Ti  Ti157  1  0.40268988  0.00304427  0.73351196  1
  Ti  Ti158  1  0.71263566  0.70526574  0.87961044  1
  Ti  Ti159  1  0.48940291  0.08170639  0.86733368  1
  Mo  Mo160  1  0.40570845  0.60649130  0.50304198  1
  Mo  Mo161  1  0.49248337  0.09590790  0.12799234  1
  Mo  Mo162  1  0.40283731  0.81250948  -0.00689021  1
  Mo  Mo163  1  0.80704374  0.79074232  0.74958016  1
  Mo  Mo164  1  0.30153757  0.49792499  0.87304873  1
  Mo  Mo165  1  0.50779672  0.90972196  0.86448886  1
  Mo  Mo166  1  0.70713426  0.09764515  0.36716626  1
  Mo  Mo167  1  0.10400505  0.90382712  0.85983437  1
  Mo  Mo168  1  0.32533700  0.90079140  0.86499251  1
  Mo  Mo169  1  0.10079691  0.90407405  0.37629301  1
  Mo  Mo170  1  0.09814471  0.50460072  0.13381549  1
  Mo  Mo171  1  0.80701631  0.39063909  0.02247995  1
  Mo  Mo172  1  0.70071121  0.89679346  0.13890547  1
  Mo  Mo173  1  0.59504083  0.20721237  0.50066985  1
  Mo  Mo174  1  0.10064925  0.89965242  0.64494579  1
  Mo  Mo175  1  -0.00255973  0.40700440  0.47896649  1
  Mo  Mo176  1  0.89325386  0.09526599  0.12693657  1
  Mo  Mo177  1  0.70079114  0.88731397  0.86607170  1
  Mo  Mo178  1  -0.00372544  0.00451618  0.76476795  1
  Mo  Mo179  1  0.50257324  0.30910910  0.36857554  1
  Mo  Mo180  1  0.89230461  0.29939706  0.62133316  1
  Mo  Mo181  1  0.00749096  0.79514328  0.24991627  1
  Mo  Mo182  1  0.59864514  0.00075464  -0.00291229  1
  Mo  Mo183  1  0.00456333  -0.00673541  0.25629739  1
  Mo  Mo184  1  0.50696691  0.89300836  0.62159969  1
  Mo  Mo185  1  0.29112813  0.10259565  0.63025764  1
  Mo  Mo186  1  0.90252262  0.69668175  0.14261027  1
  Mo  Mo187  1  0.79982439  0.59853918  -0.00066981  1
  Mo  Mo188  1  -0.00176835  0.20517484  -0.00021507  1
  Mo  Mo189  1  0.20367621  0.20499533  0.25036281  1
  Mo  Mo190  1  0.00297457  0.41050406  0.75622072  1
  Mo  Mo191  1  0.08846404  0.09952503  0.37632202  1
  Mo  Mo192  1  0.50582660  0.49080948  0.37017751  1
  Mo  Mo193  1  0.69632640  0.29412199  0.12570581  1
  Mo  Mo194  1  0.19414803  0.61258555  -0.00048341  1
  Mo  Mo195  1  0.20347386  0.39616250  0.00543178  1
  Mo  Mo196  1  0.79618444  0.58592830  0.24950784  1
  Mo  Mo197  1  0.70778376  0.69356112  0.62180188  1
  Mo  Mo198  1  0.49488269  0.10090379  0.62587901  1
  Mo  Mo199  1  0.30495198  0.89962316  0.38377096  1
