# generated using pymatgen
data_HfZrTaTiMo
_symmetry_space_group_name_H-M   'P 1'
_cell_length_a   15.22038077
_cell_length_b   15.22225981
_cell_length_c   16.84073625
_cell_angle_alpha   90.02187301
_cell_angle_beta   89.99240764
_cell_angle_gamma   89.96187952
_symmetry_Int_Tables_number   1
_chemical_formula_structural   HfZrTaTiMo
_chemical_formula_sum   'Hf40 Zr40 Ta40 Ti40 Mo40'
_cell_volume   3901.80526216
_cell_formula_units_Z   40
loop_
 _symmetry_equiv_pos_site_id
 _symmetry_equiv_pos_as_xyz
  1  'x, y, z'
loop_
 _atom_site_type_symbol
 _atom_site_label
 _atom_site_symmetry_multiplicity
 _atom_site_fract_x
 _atom_site_fract_y
 _atom_site_fract_z
 _atom_site_occupancy
  Hf  Hf0  1  0.09829893  0.49923780  0.63001533  1
  Hf  Hf1  1  -0.00644936  0.37887597  0.74820633  1
  Hf  Hf2  1  0.09170098  0.29097336  0.61876625  1
  Hf  Hf3  1  0.11500863  0.69166194  0.37428931  1
  Hf  Hf4  1  0.78619124  0.01325165  -0.01286596  1
  Hf  Hf5  1  0.58455208  0.38188766  0.00109367  1
  Hf  Hf6  1  0.68462757  0.91083742  0.11022018  1
  Hf  Hf7  1  0.58720824  0.39606541  0.26474447  1
  Hf  Hf8  1  0.60708253  0.61369923  0.49858990  1
  Hf  Hf9  1  0.59668553  0.40581718  0.47982921  1
  Hf  Hf10  1  0.59450450  0.18473698  0.25443583  1
  Hf  Hf11  1  0.30099266  0.09808345  0.38399535  1
  Hf  Hf12  1  0.50304705  0.08618839  0.39748344  1
  Hf  Hf13  1  0.48667422  0.27802619  0.12448407  1
  Hf  Hf14  1  0.39286687  0.40546089  0.48602394  1
  Hf  Hf15  1  0.32359983  0.90141498  0.12031483  1
  Hf  Hf16  1  0.78739655  -0.00535061  0.24336507  1
  Hf  Hf17  1  0.09099476  0.29970116  0.36970686  1
  Hf  Hf18  1  0.81284565  0.80920041  -0.00280016  1
  Hf  Hf19  1  0.69603580  0.70112049  0.88672473  1
  Hf  Hf20  1  0.29538103  0.29890849  0.61677047  1
  Hf  Hf21  1  0.32133245  0.11125642  0.10947676  1
  Hf  Hf22  1  0.68849966  0.29755711  0.61584883  1
  Hf  Hf23  1  0.08617791  0.89804709  0.63058726  1
  Hf  Hf24  1  0.91935337  0.49949131  0.13054119  1
  Hf  Hf25  1  0.00042188  -0.00705719  0.49947874  1
  Hf  Hf26  1  0.20303316  0.20721540  0.24140931  1
  Hf  Hf27  1  0.20369883  0.00546938  0.23794748  1
  Hf  Hf28  1  0.20948844  0.00496118  0.75686533  1
  Hf  Hf29  1  0.40830576  0.00946242  0.74609764  1
  Hf  Hf30  1  0.89982667  0.08628900  0.36721015  1
  Hf  Hf31  1  0.48996382  0.28145051  0.38658759  1
  Hf  Hf32  1  0.43475326  0.80532048  -0.00398720  1
  Hf  Hf33  1  0.21591871  0.79328845  0.24010158  1
  Hf  Hf34  1  0.80305734  0.20799099  0.74947367  1
  Hf  Hf35  1  0.90423786  0.71141923  0.62405023  1
  Hf  Hf36  1  0.10316723  0.09519853  0.10828857  1
  Hf  Hf37  1  0.69860118  0.29714926  0.87514589  1
  Hf  Hf38  1  0.89567126  0.50150231  0.62755664  1
  Hf  Hf39  1  0.28669372  0.29697175  0.37989165  1
  Zr  Zr40  1  0.69441424  0.50112148  0.88263770  1
  Zr  Zr41  1  0.10570127  0.69658545  0.62009458  1
  Zr  Zr42  1  0.09657342  0.48179216  0.88405581  1
  Zr  Zr43  1  0.49225802  0.50198744  0.87802513  1
  Zr  Zr44  1  0.70337681  0.08952599  0.62988547  1
  Zr  Zr45  1  0.39813687  0.60298517  0.25461563  1
  Zr  Zr46  1  0.31222609  0.70613678  0.88506720  1
  Zr  Zr47  1  -0.00508738  0.19066613  0.23673558  1
  Zr  Zr48  1  0.88800236  0.29058919  0.37324725  1
  Zr  Zr49  1  0.41085959  0.80096182  0.51267246  1
  Zr  Zr50  1  0.91247958  0.09524506  0.63410926  1
  Zr  Zr51  1  0.88805689  0.50159675  0.87486350  1
  Zr  Zr52  1  0.50055030  0.49405760  0.62446855  1
  Zr  Zr53  1  0.19850412  0.20211109  0.75935260  1
  Zr  Zr54  1  0.40616621  0.80465907  0.74481189  1
  Zr  Zr55  1  0.79750416  0.39963855  0.25617967  1
  Zr  Zr56  1  0.58643301  0.61304763  0.01385737  1
  Zr  Zr57  1  0.40320530  0.60389857  0.48822871  1
  Zr  Zr58  1  0.69210186  0.50287768  0.13405820  1
  Zr  Zr59  1  0.91075978  0.11165004  0.87282347  1
  Zr  Zr60  1  0.11199913  0.90249565  0.89045317  1
  Zr  Zr61  1  0.29570461  0.50585580  0.62503010  1
  Zr  Zr62  1  0.59499401  0.39666459  0.74839802  1
  Zr  Zr63  1  0.80081941  0.40058669  0.01382588  1
  Zr  Zr64  1  0.61030677  0.80493613  0.75271841  1
  Zr  Zr65  1  0.78870129  0.41085772  0.48413411  1
  Zr  Zr66  1  0.90195391  0.68709708  0.36227019  1
  Zr  Zr67  1  0.00069813  0.61524987  0.76885537  1
  Zr  Zr68  1  0.09615107  0.32763257  0.11817630  1
  Zr  Zr69  1  -0.01006943  0.20498413  0.01391192  1
  Zr  Zr70  1  0.20484731  0.60078443  0.76657587  1
  Zr  Zr71  1  0.88799055  0.88616760  0.36691340  1
  Zr  Zr72  1  0.30926597  0.90242564  0.37573667  1
  Zr  Zr73  1  -0.01138956  0.40464065  0.49225715  1
  Zr  Zr74  1  0.09988124  0.90171248  0.36630329  1
  Zr  Zr75  1  0.69663128  0.53759354  0.35672596  1
  Zr  Zr76  1  0.48286760  0.49202176  0.12938374  1
  Zr  Zr77  1  0.80382095  -0.01453830  0.76786091  1
  Zr  Zr78  1  0.79136067  0.60996061  0.74447507  1
  Zr  Zr79  1  0.19878165  0.80055115  0.75604634  1
  Ta  Ta80  1  0.51299244  0.88428117  0.38107326  1
  Ta  Ta81  1  -0.01046487  0.81143001  0.77190323  1
  Ta  Ta82  1  0.78840817  0.20264679  0.00487519  1
  Ta  Ta83  1  0.80660320  0.61015002  0.01363317  1
  Ta  Ta84  1  0.78309762  0.19249324  0.24754308  1
  Ta  Ta85  1  0.28056464  0.49961708  0.12326240  1
  Ta  Ta86  1  -0.00629372  0.79293569  0.49491694  1
  Ta  Ta87  1  0.38047884  0.38687564  -0.00617319  1
  Ta  Ta88  1  0.59633155  0.60699125  0.74595750  1
  Ta  Ta89  1  0.10654129  0.69018583  0.12224210  1
  Ta  Ta90  1  0.90220654  0.30706533  0.88219210  1
  Ta  Ta91  1  0.39297660  0.38769210  0.75608091  1
  Ta  Ta92  1  0.18286132  0.42207443  0.25418812  1
  Ta  Ta93  1  0.48988361  0.28751430  0.61382138  1
  Ta  Ta94  1  -0.00111127  0.60494655  -0.00501287  1
  Ta  Ta95  1  0.60181629  0.00146631  0.76860530  1
  Ta  Ta96  1  0.10121265  0.89450829  0.11824267  1
  Ta  Ta97  1  0.11013800  0.10356553  0.89492972  1
  Ta  Ta98  1  0.27835529  0.51602374  0.37307258  1
  Ta  Ta99  1  0.20024749  0.80044676  0.50229181  1
  Ta  Ta100  1  -0.00270286  0.18988262  0.49592441  1
  Ta  Ta101  1  0.40595623  0.59990412  0.75220628  1
  Ta  Ta102  1  0.80831199  0.61359808  0.49954490  1
  Ta  Ta103  1  0.59447548  0.17425890  -0.01439613  1
  Ta  Ta104  1  0.19857706  0.59980803  -0.00458580  1
  Ta  Ta105  1  0.00628998  0.79772058  0.23896794  1
  Ta  Ta106  1  0.10691272  0.09743401  0.62651970  1
  Ta  Ta107  1  0.50685154  0.10175983  0.61400191  1
  Ta  Ta108  1  0.61086898  0.80651904  0.24855441  1
  Ta  Ta109  1  0.68851284  0.28632989  0.12518287  1
  Ta  Ta110  1  0.59767183  -0.00329201  0.25922005  1
  Ta  Ta111  1  0.38284733  0.39381008  0.26187302  1
  Ta  Ta112  1  0.39744497  0.18824758  0.25314290  1
  Ta  Ta113  1  0.89057695  0.29254911  0.61278055  1
  Ta  Ta114  1  0.58193711  0.19339557  0.75853080  1
  Ta  Ta115  1  0.62653339  -0.01500454  0.49785644  1
  Ta  Ta116  1  0.10055913  0.09724031  0.37010556  1
  Ta  Ta117  1  0.31022729  0.69594804  0.11604945  1
  Ta  Ta118  1  0.00636063  0.79365950  -0.00153845  1
  Ta  Ta119  1  0.18861399  0.41320993  0.49269247  1
  Ti  Ti120  1  0.01163668  0.00589676  0.76352479  1
  Ti  Ti121  1  0.52663322  0.90550385  0.62195577  1
  Ti  Ti122  1  0.79137096  0.18204548  0.49570801  1
  Ti  Ti123  1  0.70761567  0.73238535  0.37299832  1
  Ti  Ti124  1  0.29975936  0.31067668  0.12864409  1
  Ti  Ti125  1  0.19109699  0.19270483  0.49906456  1
  Ti  Ti126  1  0.21630082  0.00025118  0.00196571  1
  Ti  Ti127  1  0.09606365  0.29371742  0.88726873  1
  Ti  Ti128  1  0.41379899  -0.00499377  0.25205334  1
  Ti  Ti129  1  0.32072449  0.91630057  0.88580851  1
  Ti  Ti130  1  0.70223840  0.71246258  0.12271186  1
  Ti  Ti131  1  0.70545297  0.71944521  0.61804316  1
  Ti  Ti132  1  0.31033472  0.71147532  0.37655790  1
  Ti  Ti133  1  0.69883796  0.50879346  0.61989430  1
  Ti  Ti134  1  0.20018042  0.39481902  0.75286645  1
  Ti  Ti135  1  0.50685484  0.69960116  0.62604096  1
  Ti  Ti136  1  0.19905017  -0.00185844  0.50534241  1
  Ti  Ti137  1  0.02232077  0.58376871  0.25176132  1
  Ti  Ti138  1  0.39433383  0.59413016  0.00241391  1
  Ti  Ti139  1  0.80008518  0.61698818  0.23462190  1
  Ti  Ti140  1  0.51621498  0.69389447  0.36095978  1
  Ti  Ti141  1  0.20924779  0.79750918  0.00682247  1
  Ti  Ti142  1  0.88229553  0.89776603  0.62040119  1
  Ti  Ti143  1  0.22039594  0.21791792  -0.00576481  1
  Ti  Ti144  1  -0.00884509  -0.00913113  -0.00006323  1
  Ti  Ti145  1  0.30468869  0.10514215  0.61741535  1
  Ti  Ti146  1  0.91022684  0.70474764  0.12963244  1
  Ti  Ti147  1  0.51299373  0.07554219  0.11504002  1
  Ti  Ti148  1  0.39484883  0.20105452  0.76244869  1
  Ti  Ti149  1  0.29248425  0.90170253  0.62347753  1
  Ti  Ti150  1  0.79413746  0.40157952  0.74336376  1
  Ti  Ti151  1  0.00576648  0.59488517  0.49222939  1
  Ti  Ti152  1  0.89022906  0.30009506  0.13454478  1
  Ti  Ti153  1  0.30201360  0.69865953  0.62311985  1
  Ti  Ti154  1  0.40331002  -0.00613770  0.51515184  1
  Ti  Ti155  1  0.50234001  0.71829054  0.14024176  1
  Ti  Ti156  1  0.88557983  0.09388008  0.12538075  1
  Ti  Ti157  1  0.80642010  0.80058652  0.76861509  1
  Ti  Ti158  1  0.29748443  0.49125831  0.87778221  1
  Ti  Ti159  1  0.90573127  0.90048495  0.13080669  1
  Mo  Mo160  1  0.41447382  0.80493479  0.25433980  1
  Mo  Mo161  1  0.00596231  0.19603813  0.75568360  1
  Mo  Mo162  1  0.41208680  0.00756827  -0.00804796  1
  Mo  Mo163  1  0.80762376  -0.00472494  0.50016693  1
  Mo  Mo164  1  0.60309461  0.19569491  0.50269135  1
  Mo  Mo165  1  0.20448509  0.60474888  0.24250856  1
  Mo  Mo166  1  0.70353547  0.09803076  0.38184372  1
  Mo  Mo167  1  0.48910168  0.09467760  0.87374533  1
  Mo  Mo168  1  0.00120500  -0.00696879  0.23089579  1
  Mo  Mo169  1  -0.00589877  0.40218610  -0.00373086  1
  Mo  Mo170  1  0.39145646  0.19075536  0.50839954  1
  Mo  Mo171  1  0.29111567  0.30463039  0.87158206  1
  Mo  Mo172  1  0.69582519  0.10634566  0.86455227  1
  Mo  Mo173  1  0.60930328  0.80052900  -0.00027112  1
  Mo  Mo174  1  0.69935576  0.90308587  0.37074070  1
  Mo  Mo175  1  0.80173145  0.79826976  0.23120328  1
  Mo  Mo176  1  0.29709060  0.10107382  0.88890230  1
  Mo  Mo177  1  0.10348299  0.70247256  0.89301766  1
  Mo  Mo178  1  0.69123686  0.27613882  0.38141225  1
  Mo  Mo179  1  0.90880910  0.90408345  0.88239153  1
  Mo  Mo180  1  0.20187226  0.40279103  -0.00146952  1
  Mo  Mo181  1  0.20198636  0.60501224  0.50073087  1
  Mo  Mo182  1  0.70938374  0.89672258  0.62901255  1
  Mo  Mo183  1  0.79318152  0.80390408  0.50035014  1
  Mo  Mo184  1  0.50311171  0.69197803  0.86831569  1
  Mo  Mo185  1  0.60302489  0.61423603  0.23851279  1
  Mo  Mo186  1  0.49034316  0.29535658  0.87388296  1
  Mo  Mo187  1  0.69051346  0.10488890  0.11996947  1
  Mo  Mo188  1  0.90178174  0.50929755  0.36381223  1
  Mo  Mo189  1  0.09935404  0.51049914  0.11506005  1
  Mo  Mo190  1  0.50226046  0.89463183  0.86659790  1
  Mo  Mo191  1  0.58714664  -0.01313158  -0.02306478  1
  Mo  Mo192  1  0.40755258  0.20671777  -0.01290651  1
  Mo  Mo193  1  0.49131107  0.50311550  0.36268421  1
  Mo  Mo194  1  0.50570662  0.90264365  0.13213063  1
  Mo  Mo195  1  0.09267359  0.50441890  0.37661730  1
  Mo  Mo196  1  0.60435698  0.79791237  0.50304447  1
  Mo  Mo197  1  -0.00474971  0.40213696  0.25729929  1
  Mo  Mo198  1  0.90092855  0.70194505  0.88397986  1
  Mo  Mo199  1  0.69827023  0.90002752  0.88647707  1
