# generated using pymatgen
data_HfZrTaTiMo
_symmetry_space_group_name_H-M   'P 1'
_cell_length_a   15.21974368
_cell_length_b   15.21327632
_cell_length_c   16.84927295
_cell_angle_alpha   89.97373926
_cell_angle_beta   89.97536041
_cell_angle_gamma   89.94098880
_symmetry_Int_Tables_number   1
_chemical_formula_structural   HfZrTaTiMo
_chemical_formula_sum   'Hf40 Zr40 Ta40 Ti40 Mo40'
_cell_volume   3901.31431893
_cell_formula_units_Z   40
loop_
 _symmetry_equiv_pos_site_id
 _symmetry_equiv_pos_as_xyz
  1  'x, y, z'
loop_
 _atom_site_type_symbol
 _atom_site_label
 _atom_site_symmetry_multiplicity
 _atom_site_fract_x
 _atom_site_fract_y
 _atom_site_fract_z
 _atom_site_occupancy
  Hf  Hf0  1  0.80839638  -0.00258462  0.48933232  1
  Hf  Hf1  1  0.30646896  0.70748719  0.36943433  1
  Hf  Hf2  1  0.00760938  0.80137155  0.50636552  1
  Hf  Hf3  1  0.19273059  0.40627539  0.01733212  1
  Hf  Hf4  1  0.49721057  0.49408929  0.37740636  1
  Hf  Hf5  1  0.90735473  0.10804422  0.36748126  1
  Hf  Hf6  1  0.09719331  0.49895173  0.35355838  1
  Hf  Hf7  1  0.68347413  0.09616067  0.36450551  1
  Hf  Hf8  1  0.90149504  0.49698494  0.88871086  1
  Hf  Hf9  1  0.80037880  0.40254891  0.75920702  1
  Hf  Hf10  1  0.60572234  0.00294439  0.50693717  1
  Hf  Hf11  1  0.27734872  0.70262794  0.86744038  1
  Hf  Hf12  1  0.11174831  0.87407601  0.87115682  1
  Hf  Hf13  1  0.10312667  0.08620449  0.09830499  1
  Hf  Hf14  1  0.80274608  -0.01317043  0.25393759  1
  Hf  Hf15  1  0.68772969  0.10361650  0.87672460  1
  Hf  Hf16  1  0.78352464  0.20508530  0.48868797  1
  Hf  Hf17  1  0.00520198  0.20749940  0.22725399  1
  Hf  Hf18  1  -0.00392120  0.58742172  0.49306943  1
  Hf  Hf19  1  -0.00878004  0.61954503  0.23855597  1
  Hf  Hf20  1  0.59427618  0.20378619  0.74023042  1
  Hf  Hf21  1  0.00139138  0.60525510  0.02213071  1
  Hf  Hf22  1  0.90492977  0.30552784  0.61930993  1
  Hf  Hf23  1  0.19229014  0.38692598  0.23140160  1
  Hf  Hf24  1  0.62130591  0.79569462  0.24268901  1
  Hf  Hf25  1  0.09573298  0.71564425  0.36509224  1
  Hf  Hf26  1  0.39744725  0.19815580  0.23966444  1
  Hf  Hf27  1  0.38575861  -0.00566985  0.25793562  1
  Hf  Hf28  1  0.50930438  0.89850947  0.38147724  1
  Hf  Hf29  1  0.60517699  0.59112692  0.01074417  1
  Hf  Hf30  1  0.90083439  0.08528442  0.11489855  1
  Hf  Hf31  1  0.49934135  0.30430238  0.87773925  1
  Hf  Hf32  1  0.39318366  0.59756222  -0.00588880  1
  Hf  Hf33  1  0.59300671  0.39482404  0.02142083  1
  Hf  Hf34  1  0.79581265  0.20417737  0.24119486  1
  Hf  Hf35  1  0.60552211  0.59366795  0.50586655  1
  Hf  Hf36  1  0.10925569  0.91062004  0.64318845  1
  Hf  Hf37  1  0.40042033  0.59986986  0.25489655  1
  Hf  Hf38  1  0.40686830  0.79058623  0.75400544  1
  Hf  Hf39  1  0.21492648  0.81015508  0.50276463  1
  Zr  Zr40  1  0.20905439  0.59339548  0.48603420  1
  Zr  Zr41  1  0.80877391  0.79313147  0.75781424  1
  Zr  Zr42  1  0.10900789  0.88425579  0.11278079  1
  Zr  Zr43  1  0.19074882  0.61196655  0.01034239  1
  Zr  Zr44  1  0.61328848  0.79267906  0.51104275  1
  Zr  Zr45  1  0.91028526  0.11885247  0.89168820  1
  Zr  Zr46  1  0.01425879  0.40196398  0.75061345  1
  Zr  Zr47  1  0.48560751  0.10351152  0.38851164  1
  Zr  Zr48  1  0.41247602  0.80410997  0.24986309  1
  Zr  Zr49  1  0.50268343  0.69493811  0.88093968  1
  Zr  Zr50  1  0.28935301  0.09601431  0.63125874  1
  Zr  Zr51  1  0.49092547  0.49577379  0.61760788  1
  Zr  Zr52  1  0.59454726  0.00220265  0.01069205  1
  Zr  Zr53  1  0.08848175  0.30035330  0.36957061  1
  Zr  Zr54  1  0.70836133  0.90298436  0.63372708  1
  Zr  Zr55  1  0.90707307  0.90342938  0.62896938  1
  Zr  Zr56  1  0.29438585  0.29315411  0.37795690  1
  Zr  Zr57  1  0.28081939  0.49714747  0.62967742  1
  Zr  Zr58  1  0.79782336  0.62000554  0.01719033  1
  Zr  Zr59  1  0.78998812  0.41158668  0.01575829  1
  Zr  Zr60  1  0.08354092  0.29961751  0.89176263  1
  Zr  Zr61  1  0.88524538  0.50278238  0.62086118  1
  Zr  Zr62  1  0.50308711  0.29347129  0.39214074  1
  Zr  Zr63  1  -0.00992720  0.59879553  0.74761770  1
  Zr  Zr64  1  0.30074121  0.50935155  0.13192105  1
  Zr  Zr65  1  0.31004542  0.07453280  0.11153525  1
  Zr  Zr66  1  0.21602333  0.20380309  -0.00214824  1
  Zr  Zr67  1  0.40364808  0.00841291  0.75895675  1
  Zr  Zr68  1  0.11749240  0.68766610  0.62457009  1
  Zr  Zr69  1  0.30045067  0.88888221  0.64497751  1
  Zr  Zr70  1  0.79898767  -0.02020010  -0.01882771  1
  Zr  Zr71  1  0.69839092  0.30494209  0.87845692  1
  Zr  Zr72  1  0.89509464  0.09846924  0.62871899  1
  Zr  Zr73  1  0.92240444  0.89483343  0.37378001  1
  Zr  Zr74  1  0.70054312  0.31041713  0.62296610  1
  Zr  Zr75  1  0.49449523  0.70580653  0.11335703  1
  Zr  Zr76  1  0.19585403  0.19369734  0.50483154  1
  Zr  Zr77  1  0.80048224  0.21299676  0.01611278  1
  Zr  Zr78  1  0.61855426  0.80311536  -0.00172876  1
  Zr  Zr79  1  -0.00321743  0.20946194  0.50026833  1
  Ta  Ta80  1  0.50752809  0.90610150  0.87442858  1
  Ta  Ta81  1  0.80000785  0.00437336  0.76870792  1
  Ta  Ta82  1  0.49585641  0.11215999  0.87921023  1
  Ta  Ta83  1  0.29889261  0.30195634  0.62562623  1
  Ta  Ta84  1  0.78806981  0.61800719  0.24147754  1
  Ta  Ta85  1  0.89497460  0.50232317  0.13811556  1
  Ta  Ta86  1  0.20206392  0.18353248  0.23509975  1
  Ta  Ta87  1  0.51744881  0.69619586  0.37716189  1
  Ta  Ta88  1  0.49015860  0.29800332  0.60611267  1
  Ta  Ta89  1  0.41256805  0.19927101  0.01200864  1
  Ta  Ta90  1  0.69882236  0.50554285  0.36023564  1
  Ta  Ta91  1  0.39791199  0.20887585  0.74546722  1
  Ta  Ta92  1  0.00902126  0.79086164  0.74904919  1
  Ta  Ta93  1  0.80556845  0.20261872  0.75661269  1
  Ta  Ta94  1  0.40982604  0.79098394  0.50765168  1
  Ta  Ta95  1  0.69553448  0.30667617  0.36410595  1
  Ta  Ta96  1  0.59839600  0.20211662  0.02501360  1
  Ta  Ta97  1  0.59300153  0.19792445  0.23305505  1
  Ta  Ta98  1  0.12514672  0.91560805  0.37223894  1
  Ta  Ta99  1  0.09506500  0.10417322  0.64397905  1
  Ta  Ta100  1  0.11082703  0.09437661  0.88149068  1
  Ta  Ta101  1  -0.00025919  0.00176079  0.76992066  1
  Ta  Ta102  1  0.10245538  0.10080435  0.36563709  1
  Ta  Ta103  1  0.10233202  0.50505825  0.88325839  1
  Ta  Ta104  1  0.38437507  -0.01189098  0.50344740  1
  Ta  Ta105  1  0.59421488  0.39571193  0.24187474  1
  Ta  Ta106  1  0.70513339  0.69757144  0.87163031  1
  Ta  Ta107  1  0.39157082  0.39213186  0.00778090  1
  Ta  Ta108  1  0.39585340  0.59074346  0.75467426  1
  Ta  Ta109  1  0.02208815  0.00843360  0.50050594  1
  Ta  Ta110  1  0.49512881  0.10487109  0.61235264  1
  Ta  Ta111  1  -0.00123762  0.20303880  0.75463396  1
  Ta  Ta112  1  0.19896026  0.20850686  0.76044528  1
  Ta  Ta113  1  0.59214423  0.41030523  0.74408176  1
  Ta  Ta114  1  0.29122474  0.72491463  0.12282208  1
  Ta  Ta115  1  0.80207796  0.41242698  0.48320333  1
  Ta  Ta116  1  0.73244648  0.88605835  0.12416549  1
  Ta  Ta117  1  0.39673657  0.39506759  0.25102110  1
  Ta  Ta118  1  0.79279443  0.60330189  0.48980928  1
  Ta  Ta119  1  0.60430328  0.79847867  0.75091128  1
  Ti  Ti120  1  0.01657028  -0.00346197  0.24275740  1
  Ti  Ti121  1  0.79054182  0.59526545  0.75636485  1
  Ti  Ti122  1  0.49449238  0.49769746  0.13115375  1
  Ti  Ti123  1  0.59005992  -0.00660057  0.23353881  1
  Ti  Ti124  1  0.28330092  0.08387490  0.38178170  1
  Ti  Ti125  1  0.00005928  -0.02381384  -0.01687960  1
  Ti  Ti126  1  0.70620741  0.68523698  0.63416021  1
  Ti  Ti127  1  0.89762962  0.69928927  0.62049805  1
  Ti  Ti128  1  0.60058820  0.00140949  0.74713292  1
  Ti  Ti129  1  0.80380215  0.79140353  0.50041116  1
  Ti  Ti130  1  0.30394731  0.30140914  0.87280599  1
  Ti  Ti131  1  0.29603231  0.49004143  0.87251527  1
  Ti  Ti132  1  0.19063844  0.58486020  0.75327651  1
  Ti  Ti133  1  0.89754687  0.31623739  0.36488875  1
  Ti  Ti134  1  -0.00813565  0.39171054  0.02452258  1
  Ti  Ti135  1  0.37608714  0.40543688  0.49327577  1
  Ti  Ti136  1  0.59606071  0.59831636  0.74853148  1
  Ti  Ti137  1  0.71040434  0.88147291  0.37563651  1
  Ti  Ti138  1  0.68672894  0.50416627  0.87518499  1
  Ti  Ti139  1  0.89496465  0.50337840  0.35728570  1
  Ti  Ti140  1  0.39852854  0.60330830  0.49368002  1
  Ti  Ti141  1  0.69962034  0.08811412  0.12947436  1
  Ti  Ti142  1  0.70143387  0.10400048  0.62980852  1
  Ti  Ti143  1  0.47751575  0.90718258  0.11141268  1
  Ti  Ti144  1  0.61417818  0.39865051  0.49927597  1
  Ti  Ti145  1  0.89903642  0.74105255  0.12759547  1
  Ti  Ti146  1  0.20881937  0.82005864  0.25106323  1
  Ti  Ti147  1  0.88899738  0.70390840  0.37045773  1
  Ti  Ti148  1  0.10827461  0.30872162  0.62968294  1
  Ti  Ti149  1  0.49490777  0.49399607  0.87568447  1
  Ti  Ti150  1  0.22733327  -0.02020394  -0.02502846  1
  Ti  Ti151  1  0.49666755  0.69636519  0.62984808  1
  Ti  Ti152  1  0.19787169  0.61139985  0.24103419  1
  Ti  Ti153  1  0.59847041  0.60053210  0.24101164  1
  Ti  Ti154  1  0.50241174  0.90172790  0.62640957  1
  Ti  Ti155  1  0.91156854  0.70525117  0.88397633  1
  Ti  Ti156  1  0.37839923  0.81963810  -0.01673359  1
  Ti  Ti157  1  0.17830239  0.40375698  0.49705862  1
  Ti  Ti158  1  0.39667216  0.39788599  0.74885980  1
  Ti  Ti159  1  0.79422780  0.40414426  0.24205321  1
  Mo  Mo160  1  0.70173247  0.69499584  0.37542281  1
  Mo  Mo161  1  0.91394137  0.90949856  0.12356268  1
  Mo  Mo162  1  0.20776114  0.39491353  0.76008873  1
  Mo  Mo163  1  0.60297352  0.20072584  0.50761830  1
  Mo  Mo164  1  0.29912525  0.49394690  0.36504869  1
  Mo  Mo165  1  0.10285958  0.70608145  0.14109637  1
  Mo  Mo166  1  -0.00837921  0.40817993  0.49105757  1
  Mo  Mo167  1  0.70399941  0.70578187  0.12507251  1
  Mo  Mo168  1  0.08960718  0.50065926  0.14056161  1
  Mo  Mo169  1  0.81443747  0.80305251  -0.01325005  1
  Mo  Mo170  1  0.30362687  0.89682161  0.11574800  1
  Mo  Mo171  1  0.69662002  0.50499747  0.62750781  1
  Mo  Mo172  1  0.30845208  0.90071730  0.38192000  1
  Mo  Mo173  1  0.09395095  0.48516012  0.61787253  1
  Mo  Mo174  1  0.00374592  0.20130308  0.01476156  1
  Mo  Mo175  1  0.90819875  0.89598365  0.86227652  1
  Mo  Mo176  1  0.30300375  0.90030704  0.85524666  1
  Mo  Mo177  1  0.69263575  0.50514540  0.14668205  1
  Mo  Mo178  1  -0.01084560  0.40340045  0.23663671  1
  Mo  Mo179  1  0.69398625  0.89599487  0.85929929  1
  Mo  Mo180  1  0.09859097  0.29265638  0.11333408  1
  Mo  Mo181  1  0.89784966  0.30599863  0.13338252  1
  Mo  Mo182  1  0.31961678  0.68677434  0.62898436  1
  Mo  Mo183  1  0.00831812  0.81272537  0.25360584  1
  Mo  Mo184  1  0.19647579  0.79639535  -0.00454794  1
  Mo  Mo185  1  0.81586141  0.79712694  0.25502795  1
  Mo  Mo186  1  0.19950022  0.00374646  0.24593690  1
  Mo  Mo187  1  0.19971849  0.78089692  0.74164568  1
  Mo  Mo188  1  0.19465065  0.00011845  0.50592865  1
  Mo  Mo189  1  0.08942409  0.68248935  0.87049880  1
  Mo  Mo190  1  0.39144176  0.19759241  0.50863316  1
  Mo  Mo191  1  0.19672322  0.00662248  0.76995766  1
  Mo  Mo192  1  0.50330424  0.09109973  0.12890008  1
  Mo  Mo193  1  -0.00483977  0.79351814  -0.00477057  1
  Mo  Mo194  1  0.69629923  0.29964555  0.14127258  1
  Mo  Mo195  1  0.40391497  0.00206126  -0.02204037  1
  Mo  Mo196  1  0.48940631  0.30209730  0.12860417  1
  Mo  Mo197  1  0.90086819  0.30454092  0.87842153  1
  Mo  Mo198  1  0.30567297  0.11242054  0.87350100  1
  Mo  Mo199  1  0.30254919  0.29451188  0.12666817  1
