# generated using pymatgen
data_HfZrTaTiMo
_symmetry_space_group_name_H-M   'P 1'
_cell_length_a   15.19591163
_cell_length_b   15.19882086
_cell_length_c   16.83345725
_cell_angle_alpha   90.06668745
_cell_angle_beta   89.98696530
_cell_angle_gamma   90.03320464
_symmetry_Int_Tables_number   1
_chemical_formula_structural   HfZrTaTiMo
_chemical_formula_sum   'Hf40 Zr40 Ta40 Ti40 Mo40'
_cell_volume   3887.85086860
_cell_formula_units_Z   40
loop_
 _symmetry_equiv_pos_site_id
 _symmetry_equiv_pos_as_xyz
  1  'x, y, z'
loop_
 _atom_site_type_symbol
 _atom_site_label
 _atom_site_symmetry_multiplicity
 _atom_site_fract_x
 _atom_site_fract_y
 _atom_site_fract_z
 _atom_site_occupancy
  Hf  Hf0  1  0.40234540  0.80558681  0.74899291  1
  Hf  Hf1  1  0.49942776  0.49177833  0.86297021  1
  Hf  Hf2  1  0.68301766  0.69834882  0.37210363  1
  Hf  Hf3  1  0.69059530  0.11346510  0.87526897  1
  Hf  Hf4  1  0.89974680  0.10265428  0.87185392  1
  Hf  Hf5  1  0.09781588  0.90745562  0.35670107  1
  Hf  Hf6  1  0.19173844  0.79836109  0.49573671  1
  Hf  Hf7  1  0.40119597  0.58577240  0.51225841  1
  Hf  Hf8  1  0.00021623  0.41652308  -0.00488211  1
  Hf  Hf9  1  0.10260479  0.90424561  0.14231232  1
  Hf  Hf10  1  0.49879038  0.48505721  0.64156968  1
  Hf  Hf11  1  0.08571204  0.70273439  0.13456343  1
  Hf  Hf12  1  0.78945602  0.58800417  0.24567243  1
  Hf  Hf13  1  0.30397494  0.50692709  0.12004627  1
  Hf  Hf14  1  0.70751152  0.68984544  0.11129413  1
  Hf  Hf15  1  0.89914786  0.89368618  0.87064889  1
  Hf  Hf16  1  0.00038608  -0.00177376  -0.00078246  1
  Hf  Hf17  1  0.48610198  0.69838982  0.88936026  1
  Hf  Hf18  1  0.31305130  0.48038767  0.37160364  1
  Hf  Hf19  1  0.59917430  0.57064950  0.00709103  1
  Hf  Hf20  1  0.40764092  0.40291094  0.00069233  1
  Hf  Hf21  1  0.19049295  0.00657177  0.51343734  1
  Hf  Hf22  1  -0.00653283  0.00561591  0.74101592  1
  Hf  Hf23  1  0.71224160  0.30462752  0.60384009  1
  Hf  Hf24  1  0.28561052  0.69436019  0.63139273  1
  Hf  Hf25  1  0.79761855  0.41302335  0.00464317  1
  Hf  Hf26  1  0.10915014  0.29721241  0.86495979  1
  Hf  Hf27  1  -0.00661965  -0.00603812  0.51281585  1
  Hf  Hf28  1  0.59647522  -0.00073456  0.26265965  1
  Hf  Hf29  1  0.59620025  0.60300474  0.51560642  1
  Hf  Hf30  1  0.60411007  0.60597483  0.74775892  1
  Hf  Hf31  1  0.09366374  0.29912126  0.12604992  1
  Hf  Hf32  1  0.60176951  0.81202456  0.75449646  1
  Hf  Hf33  1  0.09274821  0.88047618  0.63970624  1
  Hf  Hf34  1  0.40448854  0.60477126  0.24410560  1
  Hf  Hf35  1  0.59784215  0.01032341  0.00282874  1
  Hf  Hf36  1  0.89937959  0.90683579  0.36634126  1
  Hf  Hf37  1  0.50841541  0.28499844  0.61833459  1
  Hf  Hf38  1  0.70118103  0.90497016  0.13184134  1
  Hf  Hf39  1  0.19420411  0.00169375  0.00037055  1
  Zr  Zr40  1  0.82805410  0.38853117  0.25533413  1
  Zr  Zr41  1  0.68490913  0.10571617  0.60940902  1
  Zr  Zr42  1  0.29918096  0.89831162  0.86743210  1
  Zr  Zr43  1  0.19859200  0.39233588  0.00260181  1
  Zr  Zr44  1  0.48546547  0.70022082  0.10374393  1
  Zr  Zr45  1  0.30316355  0.69153975  0.37369121  1
  Zr  Zr46  1  0.40509566  0.79883579  0.50006953  1
  Zr  Zr47  1  0.21621436  0.39006572  0.50927494  1
  Zr  Zr48  1  0.17845715  0.59932301  0.00103380  1
  Zr  Zr49  1  0.79278542  0.20631081  0.74304394  1
  Zr  Zr50  1  0.19121203  0.18792526  0.24566462  1
  Zr  Zr51  1  0.71713017  0.49530326  0.86261996  1
  Zr  Zr52  1  0.29042903  0.50015795  0.87008509  1
  Zr  Zr53  1  0.60514340  0.36870147  -0.01036378  1
  Zr  Zr54  1  0.79926929  0.60751080  0.51037933  1
  Zr  Zr55  1  -0.01127323  0.59439406  0.25474253  1
  Zr  Zr56  1  0.71112103  0.11064433  0.13123109  1
  Zr  Zr57  1  0.89963509  0.31164327  0.87340560  1
  Zr  Zr58  1  0.49251278  0.10028559  0.13057457  1
  Zr  Zr59  1  0.89664126  0.49174475  0.61934998  1
  Zr  Zr60  1  0.70676198  0.69942888  0.88654148  1
  Zr  Zr61  1  0.29377478  0.09861819  0.86986933  1
  Zr  Zr62  1  0.28292231  0.10537848  0.37830760  1
  Zr  Zr63  1  0.30161618  0.90670738  0.36828091  1
  Zr  Zr64  1  0.59868882  0.80641395  0.50182230  1
  Zr  Zr65  1  0.89628628  0.69845369  0.38075598  1
  Zr  Zr66  1  0.00801857  0.61731237  0.73245575  1
  Zr  Zr67  1  0.70982540  0.49630623  0.38390118  1
  Zr  Zr68  1  0.89765162  0.28497305  0.11935410  1
  Zr  Zr69  1  0.80467771  0.79423606  0.24277197  1
  Zr  Zr70  1  0.61376858  0.40648078  0.25184333  1
  Zr  Zr71  1  0.00238798  0.20362688  0.72855697  1
  Zr  Zr72  1  0.80472593  0.79431825  0.75057744  1
  Zr  Zr73  1  0.19918442  0.58964809  0.50107327  1
  Zr  Zr74  1  0.20717307  0.39004572  0.24734350  1
  Zr  Zr75  1  0.01421603  0.60193615  0.50965479  1
  Zr  Zr76  1  0.58237091  0.01075052  0.74362576  1
  Zr  Zr77  1  0.60068326  0.81237357  -0.00445724  1
  Zr  Zr78  1  0.40512925  0.00217263  0.50905304  1
  Zr  Zr79  1  0.60054730  0.20614149  0.27262733  1
  Ta  Ta80  1  0.91532776  0.48232254  0.39173354  1
  Ta  Ta81  1  0.59158252  0.79311148  0.24700726  1
  Ta  Ta82  1  0.80404785  0.00349744  0.00354633  1
  Ta  Ta83  1  0.90575212  0.90599376  0.13347329  1
  Ta  Ta84  1  0.20709884  0.20287187  0.73929146  1
  Ta  Ta85  1  0.50378239  0.29559088  0.12919326  1
  Ta  Ta86  1  0.48748732  0.31786240  0.38076547  1
  Ta  Ta87  1  0.70440915  0.90416905  0.36952333  1
  Ta  Ta88  1  0.80271988  0.19040121  0.27556705  1
  Ta  Ta89  1  -0.00125172  0.79996709  0.49774130  1
  Ta  Ta90  1  0.41344677  0.40122157  0.24025332  1
  Ta  Ta91  1  0.59644573  0.40321155  0.49443680  1
  Ta  Ta92  1  0.59756758  -0.00268982  0.48611118  1
  Ta  Ta93  1  0.00649330  0.79775566  -0.00193842  1
  Ta  Ta94  1  0.78974408  0.00162577  0.74323104  1
  Ta  Ta95  1  0.90812868  0.68291189  0.88333454  1
  Ta  Ta96  1  0.01818643  0.39337419  0.51613676  1
  Ta  Ta97  1  0.59397860  0.19871108  0.47516867  1
  Ta  Ta98  1  0.39299785  0.60173404  0.74793305  1
  Ta  Ta99  1  -0.01182687  0.21361197  0.26625882  1
  Ta  Ta100  1  0.00784615  0.19485270  -0.00849157  1
  Ta  Ta101  1  0.20051491  0.19359637  0.00223878  1
  Ta  Ta102  1  0.01514640  0.19684164  0.51500716  1
  Ta  Ta103  1  0.81447146  0.80571851  0.00626025  1
  Ta  Ta104  1  0.39429781  0.20996325  0.25738504  1
  Ta  Ta105  1  0.50659790  0.51631530  0.37413805  1
  Ta  Ta106  1  0.08540679  0.50355083  0.85604597  1
  Ta  Ta107  1  0.19948649  0.59821018  0.24906559  1
  Ta  Ta108  1  0.19641856  0.80620545  -0.00007033  1
  Ta  Ta109  1  0.10352094  0.49159475  0.36982727  1
  Ta  Ta110  1  0.41244435  0.19310752  0.74519632  1
  Ta  Ta111  1  0.29570733  0.89965950  0.63314527  1
  Ta  Ta112  1  0.49134371  0.10988122  0.88053116  1
  Ta  Ta113  1  0.29316037  0.71076131  0.11773283  1
  Ta  Ta114  1  0.30410379  0.90032179  0.12987385  1
  Ta  Ta115  1  0.40770484  0.80412332  0.25355775  1
  Ta  Ta116  1  0.89731166  0.09887788  0.39386300  1
  Ta  Ta117  1  0.49848855  0.70488271  0.63423213  1
  Ta  Ta118  1  0.38687367  0.21425095  0.49434878  1
  Ta  Ta119  1  0.31109930  0.29231879  0.87192618  1
  Ti  Ti120  1  0.09524244  0.70109309  0.36205039  1
  Ti  Ti121  1  0.19412872  0.00876539  0.74204168  1
  Ti  Ti122  1  0.90750401  0.71808087  0.62079098  1
  Ti  Ti123  1  0.09964112  0.90253513  0.86275581  1
  Ti  Ti124  1  0.69796173  0.49369823  0.62969313  1
  Ti  Ti125  1  0.39378372  -0.00003949  0.00414914  1
  Ti  Ti126  1  0.00850771  0.39902443  0.72803578  1
  Ti  Ti127  1  0.79995492  0.81436367  0.50017334  1
  Ti  Ti128  1  0.49190352  0.91145116  0.88089204  1
  Ti  Ti129  1  0.88761035  0.89971263  0.62890775  1
  Ti  Ti130  1  0.40609105  0.20207986  0.00093412  1
  Ti  Ti131  1  0.30837838  0.30653543  0.63250070  1
  Ti  Ti132  1  0.08910466  0.10203258  0.37816103  1
  Ti  Ti133  1  0.39696940  0.00512997  0.73312929  1
  Ti  Ti134  1  0.59293474  0.59650132  0.23063319  1
  Ti  Ti135  1  0.49133133  0.89987072  0.12455337  1
  Ti  Ti136  1  0.70044960  0.29846130  0.13123615  1
  Ti  Ti137  1  0.88225799  0.10407573  0.60944348  1
  Ti  Ti138  1  0.61089192  0.37124066  0.75850957  1
  Ti  Ti139  1  0.19247059  0.78568478  0.75588321  1
  Ti  Ti140  1  0.20721307  0.79560050  0.25110250  1
  Ti  Ti141  1  0.10619458  0.29667455  0.38309277  1
  Ti  Ti142  1  0.39706586  0.38769003  0.75542509  1
  Ti  Ti143  1  0.81041366  0.39681257  0.74419060  1
  Ti  Ti144  1  0.80665719  0.59861308  0.74108854  1
  Ti  Ti145  1  0.39173678  0.00338982  0.25095707  1
  Ti  Ti146  1  0.69635698  0.90522864  0.62126610  1
  Ti  Ti147  1  0.09079342  0.49721965  0.13725505  1
  Ti  Ti148  1  0.70410386  0.91200873  0.87701204  1
  Ti  Ti149  1  -0.01436160  0.02345043  0.24817206  1
  Ti  Ti150  1  0.79121197  0.20424999  -0.00385595  1
  Ti  Ti151  1  0.30016662  0.11120169  0.62254395  1
  Ti  Ti152  1  0.89901377  0.51992341  0.11784623  1
  Ti  Ti153  1  0.48585176  0.09771596  0.37537436  1
  Ti  Ti154  1  0.29553212  0.69917572  0.88428442  1
  Ti  Ti155  1  0.09949596  0.70278545  0.87508939  1
  Ti  Ti156  1  0.30736498  0.29058995  0.12131235  1
  Ti  Ti157  1  0.08411438  0.10396336  0.12790403  1
  Ti  Ti158  1  0.29437074  0.09690027  0.12691203  1
  Ti  Ti159  1  0.70429060  0.70856147  0.62765789  1
  Mo  Mo160  1  0.70259210  0.09230268  0.38508873  1
  Mo  Mo161  1  0.19905724  0.00380268  0.23930230  1
  Mo  Mo162  1  0.50449771  0.89899124  0.36375702  1
  Mo  Mo163  1  0.30309138  0.49397017  0.64602885  1
  Mo  Mo164  1  0.49095144  0.10376280  0.60981715  1
  Mo  Mo165  1  0.90414444  0.29669773  0.60565954  1
  Mo  Mo166  1  0.00748011  0.39515931  0.25794781  1
  Mo  Mo167  1  0.10786470  0.09303522  0.62825872  1
  Mo  Mo168  1  -0.00156156  0.60302393  -0.00244709  1
  Mo  Mo169  1  0.39136060  0.60303420  -0.00129023  1
  Mo  Mo170  1  0.80984732  0.59874512  -0.00044121  1
  Mo  Mo171  1  0.20292299  0.39698354  0.74542299  1
  Mo  Mo172  1  0.59612788  0.19613375  0.00575350  1
  Mo  Mo173  1  0.70423997  0.48906338  0.12604941  1
  Mo  Mo174  1  0.20237255  0.60347213  0.76130096  1
  Mo  Mo175  1  0.91672795  0.29438999  0.39823369  1
  Mo  Mo176  1  0.59512301  0.20205151  0.74654982  1
  Mo  Mo177  1  0.50158274  0.69705748  0.36930223  1
  Mo  Mo178  1  0.80377628  0.00915477  0.25222304  1
  Mo  Mo179  1  0.19663668  0.20207227  0.51166454  1
  Mo  Mo180  1  0.90101184  0.70782545  0.11366549  1
  Mo  Mo181  1  0.11313330  0.29819982  0.63140564  1
  Mo  Mo182  1  0.90757957  0.50353226  0.85743677  1
  Mo  Mo183  1  0.80221016  0.19688646  0.48456970  1
  Mo  Mo184  1  0.70797621  0.29902026  0.39053022  1
  Mo  Mo185  1  0.41065707  0.40034659  0.50618332  1
  Mo  Mo186  1  0.11905863  0.49877250  0.64403525  1
  Mo  Mo187  1  0.10037103  0.70471144  0.62376082  1
  Mo  Mo188  1  0.90362387  0.09978515  0.12371831  1
  Mo  Mo189  1  0.50052750  0.90172018  0.62721907  1
  Mo  Mo190  1  0.70515896  0.29590830  0.87067983  1
  Mo  Mo191  1  0.00127304  0.80301988  0.76328939  1
  Mo  Mo192  1  0.00132368  0.80405900  0.25177560  1
  Mo  Mo193  1  0.49664698  0.28659276  0.86868303  1
  Mo  Mo194  1  0.38568497  0.81419676  -0.00246909  1
  Mo  Mo195  1  0.50205618  0.49017261  0.12307650  1
  Mo  Mo196  1  0.80756619  0.39590770  0.49361714  1
  Mo  Mo197  1  0.30185817  0.29695622  0.37371755  1
  Mo  Mo198  1  0.10083712  0.10132562  0.87224298  1
  Mo  Mo199  1  0.79360240  -0.01085163  0.50643210  1
