# generated using pymatgen
data_HfZrTaTiMo
_symmetry_space_group_name_H-M   'P 1'
_cell_length_a   15.21947830
_cell_length_b   15.20789170
_cell_length_c   16.85317151
_cell_angle_alpha   90.01807721
_cell_angle_beta   89.95194404
_cell_angle_gamma   89.93265997
_symmetry_Int_Tables_number   1
_chemical_formula_structural   HfZrTaTiMo
_chemical_formula_sum   'Hf40 Zr40 Ta40 Ti40 Mo40'
_cell_volume   3900.76639820
_cell_formula_units_Z   40
loop_
 _symmetry_equiv_pos_site_id
 _symmetry_equiv_pos_as_xyz
  1  'x, y, z'
loop_
 _atom_site_type_symbol
 _atom_site_label
 _atom_site_symmetry_multiplicity
 _atom_site_fract_x
 _atom_site_fract_y
 _atom_site_fract_z
 _atom_site_occupancy
  Hf  Hf0  1  0.10407644  0.10944204  0.36737990  1
  Hf  Hf1  1  0.00416922  0.59741504  0.00697752  1
  Hf  Hf2  1  0.80441964  0.80555502  -0.00881503  1
  Hf  Hf3  1  0.08685654  0.31169371  0.37839189  1
  Hf  Hf4  1  0.01575955  0.58877702  0.50892659  1
  Hf  Hf5  1  0.49998388  0.49202832  0.12397471  1
  Hf  Hf6  1  0.60170162  0.59506591  -0.01173149  1
  Hf  Hf7  1  -0.00382366  0.39495145  0.52190907  1
  Hf  Hf8  1  0.29348221  0.51513655  0.38396967  1
  Hf  Hf9  1  0.11486066  0.68618062  0.37849662  1
  Hf  Hf10  1  0.69512910  0.70293419  0.12704847  1
  Hf  Hf11  1  0.70526030  0.91822265  0.61626939  1
  Hf  Hf12  1  0.40473110  0.18131089  0.50540539  1
  Hf  Hf13  1  0.40194663  -0.00798390  -0.01428984  1
  Hf  Hf14  1  0.50204269  0.50774054  0.37635975  1
  Hf  Hf15  1  0.79141711  0.20705073  -0.01261422  1
  Hf  Hf16  1  0.39806052  0.39885595  0.25323355  1
  Hf  Hf17  1  0.89011057  0.08342120  0.85514691  1
  Hf  Hf18  1  0.89756554  0.49041441  0.12425480  1
  Hf  Hf19  1  0.20831658  0.60302248  0.74793710  1
  Hf  Hf20  1  0.00996121  0.80011964  0.01402026  1
  Hf  Hf21  1  0.30155443  0.90076656  0.62570683  1
  Hf  Hf22  1  0.59851773  0.81071920  0.74810780  1
  Hf  Hf23  1  0.09998066  0.49169002  0.87231171  1
  Hf  Hf24  1  0.79735198  0.59127403  -0.00954591  1
  Hf  Hf25  1  0.21853605  0.01066438  0.49748969  1
  Hf  Hf26  1  0.89361529  0.10347441  0.13445687  1
  Hf  Hf27  1  0.78467635  0.40005921  0.75020050  1
  Hf  Hf28  1  -0.01184894  0.20158774  0.51626407  1
  Hf  Hf29  1  0.20874869  0.80443354  0.25489370  1
  Hf  Hf30  1  0.89902948  0.10045198  0.36804731  1
  Hf  Hf31  1  0.79140275  0.38726712  0.50274845  1
  Hf  Hf32  1  0.88224230  0.09109158  0.64216207  1
  Hf  Hf33  1  0.91154375  0.70667361  0.86648141  1
  Hf  Hf34  1  0.40783035  0.57117195  0.74331689  1
  Hf  Hf35  1  0.69474343  0.71073275  0.39052737  1
  Hf  Hf36  1  0.50194378  0.89645018  0.12903624  1
  Hf  Hf37  1  0.40473643  0.78630140  0.74203324  1
  Hf  Hf38  1  0.90983829  0.48742875  0.37233981  1
  Hf  Hf39  1  0.01923493  0.58366931  0.24489420  1
  Zr  Zr40  1  -0.00923903  -0.00407414  0.00411861  1
  Zr  Zr41  1  0.00395536  0.59989017  0.73581005  1
  Zr  Zr42  1  0.29775967  0.29547832  0.38134810  1
  Zr  Zr43  1  0.00348142  0.80076844  0.25501728  1
  Zr  Zr44  1  0.77029696  0.00255247  0.25992009  1
  Zr  Zr45  1  0.30781733  0.68482093  0.60827960  1
  Zr  Zr46  1  0.30268617  0.30490016  0.62144402  1
  Zr  Zr47  1  0.39730258  0.19581544  0.24483676  1
  Zr  Zr48  1  0.21568086  0.40143695  0.75875006  1
  Zr  Zr49  1  0.19270483  0.20791954  -0.00860059  1
  Zr  Zr50  1  0.29464666  0.88731757  0.87022240  1
  Zr  Zr51  1  0.19276443  -0.00427571  -0.00237128  1
  Zr  Zr52  1  0.88542689  0.69581447  0.61241683  1
  Zr  Zr53  1  0.19147169  0.20639069  0.51049013  1
  Zr  Zr54  1  0.40469898  0.79452621  0.25758057  1
  Zr  Zr55  1  0.10122173  0.09448865  0.64046601  1
  Zr  Zr56  1  0.89477433  0.90056657  0.13938041  1
  Zr  Zr57  1  0.69067024  0.50727467  0.62506236  1
  Zr  Zr58  1  0.59221555  0.01082791  -0.01499424  1
  Zr  Zr59  1  0.49462418  0.08981600  0.37327895  1
  Zr  Zr60  1  0.60326046  0.19818352  0.25096708  1
  Zr  Zr61  1  0.30085067  0.68789100  0.87767178  1
  Zr  Zr62  1  0.00069402  0.37356591  0.23523711  1
  Zr  Zr63  1  0.50259069  0.69787036  0.12018952  1
  Zr  Zr64  1  0.49483929  0.29814597  0.88892651  1
  Zr  Zr65  1  0.20458716  0.20693532  0.75746170  1
  Zr  Zr66  1  0.21194160  0.00478083  0.25225064  1
  Zr  Zr67  1  0.90045742  0.69191408  0.38220964  1
  Zr  Zr68  1  0.69113220  0.90487560  0.12140067  1
  Zr  Zr69  1  0.89331762  0.49580307  0.86489672  1
  Zr  Zr70  1  0.89397496  0.69399373  0.13648123  1
  Zr  Zr71  1  0.08081750  0.89052498  0.86289188  1
  Zr  Zr72  1  0.70149245  0.48989675  0.12851154  1
  Zr  Zr73  1  0.19218455  0.21776185  0.23682033  1
  Zr  Zr74  1  0.09252228  0.09779446  0.86210658  1
  Zr  Zr75  1  0.20150076  0.59573773  0.00460952  1
  Zr  Zr76  1  0.80640414  0.81115170  0.74683952  1
  Zr  Zr77  1  0.30153679  0.31394226  0.10852535  1
  Zr  Zr78  1  0.00514999  0.00441998  0.50043104  1
  Zr  Zr79  1  0.88304425  0.89515798  0.39183603  1
  Ta  Ta80  1  0.59934938  0.60442192  0.75202673  1
  Ta  Ta81  1  0.50709528  0.30209195  0.38457180  1
  Ta  Ta82  1  0.59798364  0.21648491  0.74734926  1
  Ta  Ta83  1  0.00411745  0.38737012  0.00064374  1
  Ta  Ta84  1  0.30404393  0.09511420  0.11535566  1
  Ta  Ta85  1  0.31130929  0.10766929  0.87112616  1
  Ta  Ta86  1  0.89919112  0.90383234  0.61088941  1
  Ta  Ta87  1  0.50733785  0.30534736  0.61934841  1
  Ta  Ta88  1  0.49815185  0.91630349  0.62473327  1
  Ta  Ta89  1  0.69294386  0.11403045  0.11810636  1
  Ta  Ta90  1  0.30883361  0.70147285  0.11877516  1
  Ta  Ta91  1  0.30206527  0.89557367  0.11870512  1
  Ta  Ta92  1  0.89014716  0.29066327  0.37692526  1
  Ta  Ta93  1  -0.00473648  0.21476697  0.74613628  1
  Ta  Ta94  1  0.51891427  0.89401997  0.37726703  1
  Ta  Ta95  1  0.00774956  0.79572040  0.50756964  1
  Ta  Ta96  1  0.20619384  -0.00633698  0.75257967  1
  Ta  Ta97  1  0.59848916  0.40708710  0.49957315  1
  Ta  Ta98  1  0.41041559  -0.00168467  0.76240395  1
  Ta  Ta99  1  0.60369730  0.39289753  0.25702864  1
  Ta  Ta100  1  0.79511536  0.00628475  -0.00441632  1
  Ta  Ta101  1  0.21542946  0.60127200  0.24068515  1
  Ta  Ta102  1  -0.00698697  0.19818238  -0.00568715  1
  Ta  Ta103  1  0.77960245  0.79736725  0.26168097  1
  Ta  Ta104  1  0.20041242  0.80177023  0.49926860  1
  Ta  Ta105  1  0.79561194  0.21265663  0.25002011  1
  Ta  Ta106  1  0.31762352  0.90723385  0.38682320  1
  Ta  Ta107  1  0.88337881  0.29697011  0.11468802  1
  Ta  Ta108  1  0.00527984  0.80207296  0.72648466  1
  Ta  Ta109  1  0.50070632  0.70013421  0.39038093  1
  Ta  Ta110  1  0.40876467  0.20432880  0.74996347  1
  Ta  Ta111  1  0.40170048  0.40508446  0.50101392  1
  Ta  Ta112  1  0.19240469  0.41515317  0.50291897  1
  Ta  Ta113  1  0.60806924  0.21064054  0.50281964  1
  Ta  Ta114  1  0.09465195  0.10366926  0.12891256  1
  Ta  Ta115  1  0.50197941  0.69561597  0.87265197  1
  Ta  Ta116  1  0.70848128  0.91452516  0.86806990  1
  Ta  Ta117  1  0.10486063  0.89940552  0.38379642  1
  Ta  Ta118  1  0.59923656  0.80455096  -0.02154120  1
  Ta  Ta119  1  0.70514407  0.69737132  0.86359823  1
  Ti  Ti120  1  0.59267246  0.01517391  0.50712584  1
  Ti  Ti121  1  0.57988276  0.40845264  0.74540199  1
  Ti  Ti122  1  0.10447822  0.70067836  0.87350140  1
  Ti  Ti123  1  0.50127520  0.09478263  0.12640313  1
  Ti  Ti124  1  0.68613941  0.11573874  0.87131720  1
  Ti  Ti125  1  0.89082191  0.49893323  0.63576768  1
  Ti  Ti126  1  0.88441385  0.29731302  0.63720328  1
  Ti  Ti127  1  0.40639397  0.79535767  -0.00821273  1
  Ti  Ti128  1  0.79221755  0.19452111  0.50439519  1
  Ti  Ti129  1  0.50061296  0.48987030  0.88130488  1
  Ti  Ti130  1  0.11286273  0.70479211  0.13256178  1
  Ti  Ti131  1  0.90513731  0.30287260  0.86948052  1
  Ti  Ti132  1  0.59567698  0.01521196  0.75403315  1
  Ti  Ti133  1  0.30443534  0.50448042  0.12193600  1
  Ti  Ti134  1  0.69063018  0.32179075  0.88343089  1
  Ti  Ti135  1  0.11471971  0.47919981  0.11584018  1
  Ti  Ti136  1  0.60207506  0.60930197  0.25674621  1
  Ti  Ti137  1  0.69650117  0.10336010  0.38472430  1
  Ti  Ti138  1  0.40164129  -0.00399567  0.24795330  1
  Ti  Ti139  1  0.68863840  0.11471287  0.63052133  1
  Ti  Ti140  1  0.41041682  0.80475787  0.50605875  1
  Ti  Ti141  1  0.51776595  0.29705715  0.10839064  1
  Ti  Ti142  1  0.40695942  0.19107458  0.00104762  1
  Ti  Ti143  1  0.40121691  0.60302895  0.25104159  1
  Ti  Ti144  1  0.19539974  0.41503202  0.25381584  1
  Ti  Ti145  1  0.20248703  0.79937224  0.00791282  1
  Ti  Ti146  1  0.10351060  0.90056609  0.62209276  1
  Ti  Ti147  1  0.40158439  0.59241861  -0.00514923  1
  Ti  Ti148  1  0.00969347  -0.00446798  0.25052895  1
  Ti  Ti149  1  0.19486245  0.79339081  0.73741279  1
  Ti  Ti150  1  0.69537015  0.70234085  0.62074936  1
  Ti  Ti151  1  0.78656329  0.20587936  0.75807076  1
  Ti  Ti152  1  0.31894989  0.09120534  0.63903698  1
  Ti  Ti153  1  0.79615666  0.59658492  0.26038635  1
  Ti  Ti154  1  0.79167995  0.39407759  0.25763275  1
  Ti  Ti155  1  0.79325255  0.59038548  0.49539472  1
  Ti  Ti156  1  0.11655733  0.49706137  0.63262409  1
  Ti  Ti157  1  0.69711976  0.49845312  0.37594290  1
  Ti  Ti158  1  0.59847970  0.80463202  0.51413930  1
  Ti  Ti159  1  0.31027924  0.70307382  0.39201267  1
  Mo  Mo160  1  0.89669483  0.89850220  0.87115828  1
  Mo  Mo161  1  0.69613928  0.29807942  0.62948717  1
  Mo  Mo162  1  0.30234624  0.09655120  0.37141324  1
  Mo  Mo163  1  0.50593901  0.10391586  0.63340063  1
  Mo  Mo164  1  0.10314343  0.49570610  0.37336683  1
  Mo  Mo165  1  0.59878973  0.19958272  0.00561179  1
  Mo  Mo166  1  0.80412432  0.39813196  -0.01092570  1
  Mo  Mo167  1  0.41157794  0.59884674  0.50320125  1
  Mo  Mo168  1  0.50413064  0.89323133  0.86448511  1
  Mo  Mo169  1  -0.00579942  -0.01217569  0.73773298  1
  Mo  Mo170  1  0.69870401  0.30085792  0.37830651  1
  Mo  Mo171  1  0.49461817  0.50284366  0.61582578  1
  Mo  Mo172  1  0.09361022  0.30672834  0.63095432  1
  Mo  Mo173  1  0.78862992  0.01751261  0.49803024  1
  Mo  Mo174  1  0.68672277  0.50239992  0.86326518  1
  Mo  Mo175  1  0.08503034  0.30289315  0.87381199  1
  Mo  Mo176  1  0.30263653  0.30395149  0.88927075  1
  Mo  Mo177  1  0.40323085  0.40558004  0.00564947  1
  Mo  Mo178  1  0.10540372  0.70540346  0.61751738  1
  Mo  Mo179  1  0.60527041  0.80148805  0.26036916  1
  Mo  Mo180  1  0.20122948  0.40220103  -0.01255767  1
  Mo  Mo181  1  -0.00948788  0.19170351  0.24454188  1
  Mo  Mo182  1  0.70270609  0.30430726  0.12205340  1
  Mo  Mo183  1  0.30518170  0.49186503  0.61533412  1
  Mo  Mo184  1  0.31682855  0.48233641  0.88481738  1
  Mo  Mo185  1  0.78182987  0.00674670  0.75028033  1
  Mo  Mo186  1  0.79594758  0.80391471  0.50857201  1
  Mo  Mo187  1  0.59165140  -0.00221336  0.25080719  1
  Mo  Mo188  1  0.08863254  0.29497098  0.11440200  1
  Mo  Mo189  1  0.51403076  0.69936496  0.61474414  1
  Mo  Mo190  1  0.20290157  0.60009641  0.50492563  1
  Mo  Mo191  1  0.68990895  0.91061053  0.39856765  1
  Mo  Mo192  1  0.60980320  0.39973279  -0.00022287  1
  Mo  Mo193  1  0.50044456  0.10397417  0.86677579  1
  Mo  Mo194  1  0.41164969  0.38547542  0.74822462  1
  Mo  Mo195  1  0.00013945  0.39471974  0.73281565  1
  Mo  Mo196  1  0.11216366  0.90063836  0.13011411  1
  Mo  Mo197  1  0.79022021  0.60522889  0.74894210  1
  Mo  Mo198  1  0.40975553  -0.00830284  0.50492808  1
  Mo  Mo199  1  0.60226452  0.60312590  0.49973362  1
