# generated using pymatgen
data_HfZrTaTiMo
_symmetry_space_group_name_H-M   'P 1'
_cell_length_a   15.21510562
_cell_length_b   15.22476956
_cell_length_c   16.83984977
_cell_angle_alpha   90.00425644
_cell_angle_beta   90.02435215
_cell_angle_gamma   89.84313170
_symmetry_Int_Tables_number   1
_chemical_formula_structural   HfZrTaTiMo
_chemical_formula_sum   'Hf40 Zr40 Ta40 Ti40 Mo40'
_cell_volume   3900.87688855
_cell_formula_units_Z   40
loop_
 _symmetry_equiv_pos_site_id
 _symmetry_equiv_pos_as_xyz
  1  'x, y, z'
loop_
 _atom_site_type_symbol
 _atom_site_label
 _atom_site_symmetry_multiplicity
 _atom_site_fract_x
 _atom_site_fract_y
 _atom_site_fract_z
 _atom_site_occupancy
  Hf  Hf0  1  0.20020029  0.38412202  0.75696430  1
  Hf  Hf1  1  0.79047509  0.39022325  0.49334905  1
  Hf  Hf2  1  0.51073299  0.48507789  0.87836687  1
  Hf  Hf3  1  0.70243456  0.69309895  0.36306014  1
  Hf  Hf4  1  0.08765868  0.49012415  0.88513838  1
  Hf  Hf5  1  0.30292692  0.48907763  0.88425980  1
  Hf  Hf6  1  0.11280744  0.70065167  0.12137802  1
  Hf  Hf7  1  0.79007290  0.41366811  0.75930794  1
  Hf  Hf8  1  0.00139444  0.60110936  0.23392707  1
  Hf  Hf9  1  0.90873870  0.30832716  0.88345152  1
  Hf  Hf10  1  0.08745159  0.91011875  0.36243788  1
  Hf  Hf11  1  0.50866564  0.90112912  0.61174386  1
  Hf  Hf12  1  0.00326978  -0.00790625  0.74913459  1
  Hf  Hf13  1  0.72404665  0.89335723  0.61500837  1
  Hf  Hf14  1  0.40401506  0.60239322  0.75789293  1
  Hf  Hf15  1  0.29520621  0.49190233  0.62569795  1
  Hf  Hf16  1  0.68284864  0.51028628  0.14009666  1
  Hf  Hf17  1  0.09348447  0.70681636  0.88525505  1
  Hf  Hf18  1  0.70309891  0.29580930  0.62637716  1
  Hf  Hf19  1  0.49954455  0.09943998  0.61555692  1
  Hf  Hf20  1  0.80806926  0.61034815  0.23142814  1
  Hf  Hf21  1  0.08789990  0.71663119  0.61777985  1
  Hf  Hf22  1  0.60262297  -0.00384033  0.75274336  1
  Hf  Hf23  1  0.58552131  0.40251369  0.01967155  1
  Hf  Hf24  1  0.40789191  0.79636719  0.25549398  1
  Hf  Hf25  1  0.59635691  0.20009202  0.75737529  1
  Hf  Hf26  1  0.61061647  0.78991095  0.74941976  1
  Hf  Hf27  1  0.41537684  0.80079434  0.01631495  1
  Hf  Hf28  1  0.28873159  0.49084178  0.36093324  1
  Hf  Hf29  1  0.29762128  0.29213970  0.89320620  1
  Hf  Hf30  1  0.10246179  0.10479236  0.88403227  1
  Hf  Hf31  1  0.10169367  0.70048032  0.37276885  1
  Hf  Hf32  1  0.29013920  0.90633221  0.36415455  1
  Hf  Hf33  1  0.79293483  0.60982955  0.01480450  1
  Hf  Hf34  1  0.58959679  0.58531220  0.48304258  1
  Hf  Hf35  1  0.01242544  0.18965821  0.49301103  1
  Hf  Hf36  1  0.30931157  0.09480200  0.88465729  1
  Hf  Hf37  1  0.29730187  0.91385821  0.61144021  1
  Hf  Hf38  1  0.19971564  0.02393008  0.48995215  1
  Hf  Hf39  1  0.68930834  0.31487745  0.88058135  1
  Zr  Zr40  1  0.40329908  0.79996617  0.48233327  1
  Zr  Zr41  1  0.78769744  0.01409441  -0.01634405  1
  Zr  Zr42  1  0.30096070  0.50087305  0.12882636  1
  Zr  Zr43  1  0.38915962  0.20277378  0.75058419  1
  Zr  Zr44  1  0.39078450  0.18930264  0.48113409  1
  Zr  Zr45  1  0.41053528  0.59471347  0.00573859  1
  Zr  Zr46  1  -0.01483648  0.80626485  0.23726908  1
  Zr  Zr47  1  0.50097367  0.30366779  0.61247440  1
  Zr  Zr48  1  -0.00812139  0.60440442  0.74816721  1
  Zr  Zr49  1  0.18480673  0.37198858  0.23287288  1
  Zr  Zr50  1  0.88760470  0.49860136  0.36960291  1
  Zr  Zr51  1  0.19631901  0.59056610  0.50055127  1
  Zr  Zr52  1  0.80416353  -0.00021953  0.76254161  1
  Zr  Zr53  1  0.30737712  0.72161704  0.87684074  1
  Zr  Zr54  1  0.67793894  0.72463906  0.12927506  1
  Zr  Zr55  1  0.60632187  0.58718291  0.76112071  1
  Zr  Zr56  1  0.81652247  0.18694148  0.24908452  1
  Zr  Zr57  1  0.78976537  0.82541867  0.24137892  1
  Zr  Zr58  1  0.19390337  0.60196977  0.75342488  1
  Zr  Zr59  1  0.79709290  0.62085359  0.74808732  1
  Zr  Zr60  1  0.69804391  0.29063363  0.13851577  1
  Zr  Zr61  1  0.68186299  0.49415501  0.62123959  1
  Zr  Zr62  1  0.49754970  0.30569328  0.36757568  1
  Zr  Zr63  1  0.10648664  0.29666934  0.62428195  1
  Zr  Zr64  1  0.70037633  0.29284788  0.35496656  1
  Zr  Zr65  1  0.50854704  0.69252065  0.61631926  1
  Zr  Zr66  1  0.09137643  0.48843691  0.36451686  1
  Zr  Zr67  1  0.80830065  0.20041462  0.75892124  1
  Zr  Zr68  1  0.20355784  0.60369007  -0.00165267  1
  Zr  Zr69  1  0.29687806  0.70490742  0.61917465  1
  Zr  Zr70  1  0.61786179  0.00381867  0.48295061  1
  Zr  Zr71  1  0.10084603  0.90798200  0.13011663  1
  Zr  Zr72  1  0.40079008  0.81195101  0.74567567  1
  Zr  Zr73  1  0.60428775  0.18407765  0.00102194  1
  Zr  Zr74  1  0.39224729  0.40541438  0.48827971  1
  Zr  Zr75  1  0.20960433  -0.00568928  0.00643444  1
  Zr  Zr76  1  0.78845372  0.60731502  0.50548561  1
  Zr  Zr77  1  0.90374317  0.71122984  0.38382375  1
  Zr  Zr78  1  0.20842094  -0.00100606  0.75798035  1
  Zr  Zr79  1  0.89890251  0.49377465  0.62331969  1
  Ta  Ta80  1  0.09633174  0.49648367  0.12390450  1
  Ta  Ta81  1  0.91210101  0.10650503  0.88659630  1
  Ta  Ta82  1  0.50196746  0.09042832  0.87981727  1
  Ta  Ta83  1  0.80529281  0.18872045  0.49260505  1
  Ta  Ta84  1  0.88841955  0.91464859  0.38312793  1
  Ta  Ta85  1  0.39283070  0.19837350  0.25478939  1
  Ta  Ta86  1  0.88936473  0.92134827  0.11048576  1
  Ta  Ta87  1  0.29274635  0.11344892  0.62642527  1
  Ta  Ta88  1  0.19443599  0.39096938  0.01372374  1
  Ta  Ta89  1  0.00345720  -0.01433775  0.51294547  1
  Ta  Ta90  1  0.78907558  0.81315342  0.00454633  1
  Ta  Ta91  1  0.51531846  0.08616998  0.13953588  1
  Ta  Ta92  1  0.48887454  0.28707393  0.13336865  1
  Ta  Ta93  1  -0.00303830  0.59845447  0.50531488  1
  Ta  Ta94  1  0.18978594  0.81125622  0.75003707  1
  Ta  Ta95  1  0.39688630  0.59940127  0.25052346  1
  Ta  Ta96  1  -0.00894750  0.60002584  0.01363344  1
  Ta  Ta97  1  0.79445313  0.40801097  0.01181224  1
  Ta  Ta98  1  0.88786520  0.72587431  0.61311950  1
  Ta  Ta99  1  0.89718154  0.71037928  0.89144091  1
  Ta  Ta100  1  0.59481085  -0.01704509  -0.00254765  1
  Ta  Ta101  1  0.80587436  0.21031780  -0.00017469  1
  Ta  Ta102  1  -0.00491225  0.39553547  0.75264197  1
  Ta  Ta103  1  0.40668848  0.39622563  0.75012246  1
  Ta  Ta104  1  0.40540457  0.00228330  0.74957062  1
  Ta  Ta105  1  0.41003833  -0.00450494  0.01322636  1
  Ta  Ta106  1  0.61107917  0.79298780  0.48420821  1
  Ta  Ta107  1  0.49288656  0.49392908  0.62443219  1
  Ta  Ta108  1  0.10407445  0.09820268  0.63089075  1
  Ta  Ta109  1  0.10218143  0.10184810  0.12869237  1
  Ta  Ta110  1  0.70537970  0.10089655  0.62088634  1
  Ta  Ta111  1  0.01317584  0.20909971  0.24516365  1
  Ta  Ta112  1  0.88980204  0.50905560  0.88666576  1
  Ta  Ta113  1  -0.00971382  0.39651382  0.01820666  1
  Ta  Ta114  1  0.29401401  0.69343993  0.36868574  1
  Ta  Ta115  1  -0.02349700  0.39392054  0.22764424  1
  Ta  Ta116  1  0.00301853  0.39605609  0.49681441  1
  Ta  Ta117  1  0.30972243  0.09434029  0.13945871  1
  Ta  Ta118  1  0.61332741  0.20577668  0.49107254  1
  Ta  Ta119  1  0.41933789  -0.00056790  0.26139060  1
  Ti  Ti120  1  0.90037893  0.09543499  0.62409682  1
  Ti  Ti121  1  0.48878942  0.29309114  0.88569190  1
  Ti  Ti122  1  0.90489303  0.29202977  0.62289307  1
  Ti  Ti123  1  0.49753008  0.50173516  0.35664195  1
  Ti  Ti124  1  0.69393831  0.89364669  0.87641607  1
  Ti  Ti125  1  0.69231290  0.48879091  0.35227138  1
  Ti  Ti126  1  0.49955011  0.68408258  0.13683017  1
  Ti  Ti127  1  0.10704188  0.89793698  0.88799193  1
  Ti  Ti128  1  0.26701492  0.28589376  0.37606386  1
  Ti  Ti129  1  0.90795294  0.30057362  0.37087546  1
  Ti  Ti130  1  0.59598366  0.60891711  -0.00479718  1
  Ti  Ti131  1  0.52137031  0.89333818  0.13616079  1
  Ti  Ti132  1  0.71040338  0.08600478  0.13139835  1
  Ti  Ti133  1  0.39624045  0.59928461  0.48807874  1
  Ti  Ti134  1  0.81109302  0.80772391  0.75902182  1
  Ti  Ti135  1  0.59280755  0.80991952  0.27564758  1
  Ti  Ti136  1  0.51926070  0.10589202  0.36247275  1
  Ti  Ti137  1  0.20182573  0.19779351  0.02047534  1
  Ti  Ti138  1  0.20369852  0.79177147  0.24567691  1
  Ti  Ti139  1  0.91113554  0.10938900  0.10910569  1
  Ti  Ti140  1  -0.00245012  0.80598347  0.01025140  1
  Ti  Ti141  1  0.91211332  0.90227614  0.89082942  1
  Ti  Ti142  1  0.09897101  0.29343545  0.88579436  1
  Ti  Ti143  1  0.39042319  0.39174377  0.24217863  1
  Ti  Ti144  1  0.62797052  -0.00378948  0.26725175  1
  Ti  Ti145  1  -0.00332639  0.80311068  0.75583794  1
  Ti  Ti146  1  0.40485228  0.18997598  0.01437699  1
  Ti  Ti147  1  0.00794349  0.20011834  0.75058955  1
  Ti  Ti148  1  0.21878419  0.80535557  0.01076628  1
  Ti  Ti149  1  0.58482997  0.39750050  0.23886891  1
  Ti  Ti150  1  0.11906366  0.11330249  0.35359714  1
  Ti  Ti151  1  0.91326175  0.09516028  0.37714403  1
  Ti  Ti152  1  0.69936761  0.70080892  0.88502888  1
  Ti  Ti153  1  0.30953163  0.90088468  0.14310677  1
  Ti  Ti154  1  -0.01185694  0.01344464  0.24405592  1
  Ti  Ti155  1  0.18776008  0.81320346  0.49418153  1
  Ti  Ti156  1  0.49169607  0.89140133  0.87718477  1
  Ti  Ti157  1  0.29543805  0.29862867  0.61309592  1
  Ti  Ti158  1  0.09625555  0.49251865  0.62360786  1
  Ti  Ti159  1  0.40700098  0.00239097  0.47497090  1
  Mo  Mo160  1  0.30619809  0.90046830  0.88287367  1
  Mo  Mo161  1  0.18886678  0.39205689  0.49708619  1
  Mo  Mo162  1  0.20245075  0.19434535  0.23663672  1
  Mo  Mo163  1  0.49584862  0.49605699  0.14057083  1
  Mo  Mo164  1  0.20086345  0.60252213  0.24779040  1
  Mo  Mo165  1  0.89894646  0.71677984  0.10627119  1
  Mo  Mo166  1  0.80027246  0.81091803  0.49323248  1
  Mo  Mo167  1  0.69673429  0.70610404  0.61627476  1
  Mo  Mo168  1  0.58776925  0.39332436  0.75428119  1
  Mo  Mo169  1  0.49500873  0.69286079  0.37330376  1
  Mo  Mo170  1  0.09165841  0.29000683  0.11323208  1
  Mo  Mo171  1  0.71085083  0.89871925  0.38403235  1
  Mo  Mo172  1  0.68753215  0.91956885  0.12396459  1
  Mo  Mo173  1  0.89358295  0.29568639  0.11864479  1
  Mo  Mo174  1  0.58791457  0.60656717  0.26186556  1
  Mo  Mo175  1  0.00216117  0.80318233  0.49483185  1
  Mo  Mo176  1  0.59546634  0.18313677  0.24550613  1
  Mo  Mo177  1  0.50573544  0.90391622  0.37529361  1
  Mo  Mo178  1  0.70560948  0.50391212  0.89165521  1
  Mo  Mo179  1  0.39815185  0.38385184  0.01266112  1
  Mo  Mo180  1  0.81660245  0.00215953  0.24679717  1
  Mo  Mo181  1  0.19872130  0.20113300  0.49542604  1
  Mo  Mo182  1  0.72263160  0.09350672  0.37302831  1
  Mo  Mo183  1  0.10751894  0.90296470  0.62454076  1
  Mo  Mo184  1  0.91542887  0.89713852  0.62950697  1
  Mo  Mo185  1  0.60056712  0.39692633  0.48739029  1
  Mo  Mo186  1  0.00491491  0.20014102  0.00441401  1
  Mo  Mo187  1  0.81687383  0.01160938  0.50747902  1
  Mo  Mo188  1  0.19382259  0.19654769  0.75482540  1
  Mo  Mo189  1  0.59779679  0.79902766  -0.00605633  1
  Mo  Mo190  1  -0.00058690  -0.00115976  -0.00178976  1
  Mo  Mo191  1  0.79693549  0.40194022  0.24159626  1
  Mo  Mo192  1  0.30553320  0.70915719  0.13627426  1
  Mo  Mo193  1  0.89278760  0.50223947  0.11955614  1
  Mo  Mo194  1  0.69472478  0.10334912  0.87545591  1
  Mo  Mo195  1  0.30482064  0.09982294  0.35613120  1
  Mo  Mo196  1  0.20360244  0.00057230  0.24403809  1
  Mo  Mo197  1  0.08598663  0.29736767  0.37159113  1
  Mo  Mo198  1  0.30434600  0.28845163  0.11492889  1
  Mo  Mo199  1  0.51232619  0.70476265  0.87919440  1
