# generated using pymatgen
data_HfZrTaTiMo
_symmetry_space_group_name_H-M   'P 1'
_cell_length_a   15.19861936
_cell_length_b   15.21976013
_cell_length_c   16.86802553
_cell_angle_alpha   90.01165449
_cell_angle_beta   90.03712311
_cell_angle_gamma   90.11902337
_symmetry_Int_Tables_number   1
_chemical_formula_structural   HfZrTaTiMo
_chemical_formula_sum   'Hf40 Zr40 Ta40 Ti40 Mo40'
_cell_volume   3901.89122841
_cell_formula_units_Z   40
loop_
 _symmetry_equiv_pos_site_id
 _symmetry_equiv_pos_as_xyz
  1  'x, y, z'
loop_
 _atom_site_type_symbol
 _atom_site_label
 _atom_site_symmetry_multiplicity
 _atom_site_fract_x
 _atom_site_fract_y
 _atom_site_fract_z
 _atom_site_occupancy
  Hf  Hf0  1  -0.00682904  0.38637738  0.00427333  1
  Hf  Hf1  1  0.09335367  0.31163071  0.62531258  1
  Hf  Hf2  1  0.79703317  0.59926416  0.73621732  1
  Hf  Hf3  1  0.70189956  0.70553019  0.87401489  1
  Hf  Hf4  1  0.70672571  0.90375875  0.87330091  1
  Hf  Hf5  1  0.40575477  -0.00104321  0.74556079  1
  Hf  Hf6  1  0.30326376  0.90995485  0.88715343  1
  Hf  Hf7  1  0.80405320  0.59705887  0.00916234  1
  Hf  Hf8  1  0.10002444  0.09573181  0.61942257  1
  Hf  Hf9  1  0.70989271  0.90017084  0.61042764  1
  Hf  Hf10  1  0.21525054  0.61826241  0.50185987  1
  Hf  Hf11  1  0.30830580  0.49773032  0.14253021  1
  Hf  Hf12  1  0.90988118  0.89533840  0.88539850  1
  Hf  Hf13  1  0.61210582  -0.00716417  0.01088505  1
  Hf  Hf14  1  0.80944351  0.78811352  0.24451274  1
  Hf  Hf15  1  0.79625948  0.19779631  0.48431948  1
  Hf  Hf16  1  0.69812438  0.50460432  0.87405223  1
  Hf  Hf17  1  0.59567588  0.60210886  0.00997017  1
  Hf  Hf18  1  0.70912179  0.11038217  0.13545560  1
  Hf  Hf19  1  0.59306766  0.57978340  0.25134354  1
  Hf  Hf20  1  0.60486572  0.80080829  0.73891380  1
  Hf  Hf21  1  0.70020008  0.09822954  0.61318344  1
  Hf  Hf22  1  -0.00425412  0.40276548  0.48074005  1
  Hf  Hf23  1  0.68614341  0.89922149  0.15765986  1
  Hf  Hf24  1  0.09792858  0.29322191  0.87234532  1
  Hf  Hf25  1  0.30367776  0.09509366  0.61318368  1
  Hf  Hf26  1  -0.01035181  0.19303585  0.75039152  1
  Hf  Hf27  1  0.01091421  0.79644401  0.23764575  1
  Hf  Hf28  1  0.80697823  0.58847999  0.24925501  1
  Hf  Hf29  1  0.10986652  0.72688576  0.62464069  1
  Hf  Hf30  1  0.29441023  0.11774854  0.89256861  1
  Hf  Hf31  1  0.21027482  0.78637224  0.25415949  1
  Hf  Hf32  1  0.67835337  0.30794450  0.38309262  1
  Hf  Hf33  1  0.81157184  -0.00119924  0.75022606  1
  Hf  Hf34  1  0.60481344  0.40154807  0.00289000  1
  Hf  Hf35  1  0.43285676  0.39967787  0.26282925  1
  Hf  Hf36  1  -0.00244796  0.60491938  0.73890922  1
  Hf  Hf37  1  0.50160129  0.30000599  0.11998588  1
  Hf  Hf38  1  0.29856438  0.28983950  0.13881510  1
  Hf  Hf39  1  -0.00242003  0.20194080  0.48231738  1
  Zr  Zr40  1  0.32411137  0.89937062  0.37507326  1
  Zr  Zr41  1  0.40329274  0.40097419  0.48345945  1
  Zr  Zr42  1  0.48587199  0.69346875  0.61623235  1
  Zr  Zr43  1  0.40143490  0.19356414  0.49460167  1
  Zr  Zr44  1  0.69861227  0.90350827  0.36718016  1
  Zr  Zr45  1  0.19584064  0.80435715  0.00927040  1
  Zr  Zr46  1  0.90109894  0.08488124  0.61237693  1
  Zr  Zr47  1  0.01311256  0.00935296  0.00940736  1
  Zr  Zr48  1  0.38893249  0.79620016  0.74514447  1
  Zr  Zr49  1  0.70055691  0.69936997  0.60684672  1
  Zr  Zr50  1  0.60090651  0.19685018  0.74454345  1
  Zr  Zr51  1  0.69583051  0.70038503  0.38123650  1
  Zr  Zr52  1  0.90696208  0.48437515  0.62400854  1
  Zr  Zr53  1  0.50239855  0.69739051  0.87907267  1
  Zr  Zr54  1  0.49483671  0.91155551  0.14259713  1
  Zr  Zr55  1  0.19636758  0.59456491  0.00655470  1
  Zr  Zr56  1  0.57749709  0.81091628  0.48897634  1
  Zr  Zr57  1  0.20309482  0.60632721  0.74386045  1
  Zr  Zr58  1  0.88003484  0.30454868  0.13057803  1
  Zr  Zr59  1  0.91195759  0.69205774  0.38166678  1
  Zr  Zr60  1  0.19503202  0.39692756  0.01689353  1
  Zr  Zr61  1  0.16994081  0.19544603  0.02169848  1
  Zr  Zr62  1  0.39549503  0.20607815  0.74171017  1
  Zr  Zr63  1  0.72125772  0.29562314  0.88471025  1
  Zr  Zr64  1  0.29788813  0.69554617  0.88269835  1
  Zr  Zr65  1  0.49936955  0.70690946  0.12912573  1
  Zr  Zr66  1  0.90507727  0.90054848  0.36968006  1
  Zr  Zr67  1  0.50786352  0.89398111  0.88300970  1
  Zr  Zr68  1  0.49557625  0.29260347  0.88704942  1
  Zr  Zr69  1  0.89991779  0.91537120  0.13057311  1
  Zr  Zr70  1  0.29659743  0.29092660  0.35561393  1
  Zr  Zr71  1  0.59635867  0.39702971  0.74255519  1
  Zr  Zr72  1  0.79189901  0.80643074  0.01506970  1
  Zr  Zr73  1  0.10019232  0.50390317  0.87716822  1
  Zr  Zr74  1  0.19684076  0.20792659  0.49072540  1
  Zr  Zr75  1  0.50300026  0.09471497  0.88311433  1
  Zr  Zr76  1  0.20482472  0.00871613  0.75034580  1
  Zr  Zr77  1  0.01476200  0.59803892  0.51191443  1
  Zr  Zr78  1  0.29807715  0.51274043  0.36288445  1
  Zr  Zr79  1  0.80338141  0.39181314  0.74185913  1
  Ta  Ta80  1  0.29527964  0.08569658  0.12162607  1
  Ta  Ta81  1  0.69759220  0.69651816  0.13424581  1
  Ta  Ta82  1  0.49506568  0.49155456  0.62035490  1
  Ta  Ta83  1  0.01468284  0.80670178  0.49537025  1
  Ta  Ta84  1  0.68169821  0.10102295  0.36907208  1
  Ta  Ta85  1  0.20734222  0.40671449  0.74775622  1
  Ta  Ta86  1  0.39635050  0.40577538  0.00524836  1
  Ta  Ta87  1  0.61041787  0.19271144  0.00953274  1
  Ta  Ta88  1  0.48821794  0.49714338  0.87500181  1
  Ta  Ta89  1  0.00857217  0.60401691  0.24144008  1
  Ta  Ta90  1  0.79673974  0.20759282  0.26823797  1
  Ta  Ta91  1  0.10794678  0.89761550  0.36715834  1
  Ta  Ta92  1  0.60533663  -0.00024350  0.74310549  1
  Ta  Ta93  1  0.79938173  0.19607511  0.74583949  1
  Ta  Ta94  1  0.81434672  0.79509794  0.74354555  1
  Ta  Ta95  1  0.10277391  0.90175010  0.88320588  1
  Ta  Ta96  1  0.89755960  0.49223524  0.87796661  1
  Ta  Ta97  1  0.29758530  0.31659607  0.61810671  1
  Ta  Ta98  1  0.80535035  0.59226318  0.50701980  1
  Ta  Ta99  1  0.39532235  0.40061118  0.74527749  1
  Ta  Ta100  1  0.08686730  0.71183387  0.87608172  1
  Ta  Ta101  1  0.69877235  0.50140295  0.38837086  1
  Ta  Ta102  1  0.39909448  0.58718287  0.74994360  1
  Ta  Ta103  1  0.78578555  0.40067656  0.26234696  1
  Ta  Ta104  1  0.59283558  0.21145923  0.24879683  1
  Ta  Ta105  1  0.09464503  0.30552168  0.35692794  1
  Ta  Ta106  1  0.69771910  0.30229274  0.61220868  1
  Ta  Ta107  1  0.11941237  0.91503887  0.13495900  1
  Ta  Ta108  1  0.28356439  0.88974058  0.61178211  1
  Ta  Ta109  1  -0.01838554  0.40827882  0.26103153  1
  Ta  Ta110  1  0.00747587  -0.01305049  0.75274822  1
  Ta  Ta111  1  0.30047947  0.69870791  0.12616846  1
  Ta  Ta112  1  0.59524750  0.59298103  0.73997726  1
  Ta  Ta113  1  0.19205588  0.41294317  0.49282428  1
  Ta  Ta114  1  0.18894048  0.81552982  0.75654495  1
  Ta  Ta115  1  0.29782589  0.31462935  0.88077407  1
  Ta  Ta116  1  0.09186858  0.09585529  0.87464585  1
  Ta  Ta117  1  0.20406580  -0.00522042  0.48753435  1
  Ta  Ta118  1  0.90229620  0.69349546  0.87786062  1
  Ta  Ta119  1  0.91514376  0.11870902  0.13906607  1
  Ti  Ti120  1  0.50199585  0.09597037  0.61810756  1
  Ti  Ti121  1  0.80244268  0.01218400  0.25641354  1
  Ti  Ti122  1  0.49353002  0.90475121  0.61871283  1
  Ti  Ti123  1  0.79915630  0.40004101  0.49525213  1
  Ti  Ti124  1  0.80404179  -0.00641792  0.48533880  1
  Ti  Ti125  1  0.91205410  0.88768198  0.61459860  1
  Ti  Ti126  1  0.00312389  0.40026436  0.75571808  1
  Ti  Ti127  1  0.10673095  0.09951723  0.36978465  1
  Ti  Ti128  1  0.40199951  0.00878972  0.01076076  1
  Ti  Ti129  1  0.21366019  0.00404566  0.26052647  1
  Ti  Ti130  1  0.09226846  0.49912000  0.13258129  1
  Ti  Ti131  1  0.89864184  0.49881853  0.12375351  1
  Ti  Ti132  1  0.89484079  0.28679848  0.61659413  1
  Ti  Ti133  1  0.39676433  0.59193350  0.00571789  1
  Ti  Ti134  1  0.18632264  0.18982060  0.24385916  1
  Ti  Ti135  1  0.37801928  0.78479216  0.50202384  1
  Ti  Ti136  1  0.90196319  0.10046190  0.36683667  1
  Ti  Ti137  1  -0.00287562  0.80369153  0.74782673  1
  Ti  Ti138  1  0.70248623  0.48208386  0.12592951  1
  Ti  Ti139  1  -0.00043556  0.79230621  0.01916422  1
  Ti  Ti140  1  0.59253353  0.39803878  0.50932846  1
  Ti  Ti141  1  0.40237254  0.17507824  0.25016052  1
  Ti  Ti142  1  0.48249360  0.69386915  0.37513694  1
  Ti  Ti143  1  0.20162957  0.21073359  0.74672383  1
  Ti  Ti144  1  0.58859512  0.59026321  0.49689081  1
  Ti  Ti145  1  0.39688774  0.61098396  0.25128047  1
  Ti  Ti146  1  0.09595556  0.51681688  0.36450383  1
  Ti  Ti147  1  0.00774147  -0.00250386  0.48780345  1
  Ti  Ti148  1  0.81259229  0.02788974  0.00137436  1
  Ti  Ti149  1  0.30389639  0.50934344  0.61592658  1
  Ti  Ti150  1  0.18284777  0.40402296  0.24464009  1
  Ti  Ti151  1  0.01169779  0.00939965  0.25142743  1
  Ti  Ti152  1  0.70793687  0.10053408  0.87676283  1
  Ti  Ti153  1  -0.00039972  0.60400470  0.00981829  1
  Ti  Ti154  1  0.40734984  0.80012697  0.00625541  1
  Ti  Ti155  1  0.58771963  0.00434882  0.49312532  1
  Ti  Ti156  1  0.58755608  0.20224131  0.50042096  1
  Ti  Ti157  1  0.30738905  0.89528818  0.13209843  1
  Ti  Ti158  1  0.48458962  0.08811806  0.37453969  1
  Ti  Ti159  1  0.51165243  0.90243340  0.34137744  1
  Mo  Mo160  1  0.89000119  0.30421194  0.37112836  1
  Mo  Mo161  1  0.80254923  0.40738298  -0.00167782  1
  Mo  Mo162  1  0.81652972  0.80122411  0.50186337  1
  Mo  Mo163  1  0.49283229  0.10982452  0.11582879  1
  Mo  Mo164  1  0.29967771  0.70633292  0.63096418  1
  Mo  Mo165  1  0.30416805  0.69894513  0.36987019  1
  Mo  Mo166  1  0.10243169  0.69928811  0.12177164  1
  Mo  Mo167  1  0.50433740  0.28190601  0.37190447  1
  Mo  Mo168  1  0.69373654  0.49665671  0.60452980  1
  Mo  Mo169  1  0.07830987  0.29432370  0.15520056  1
  Mo  Mo170  1  0.89446896  0.50284938  0.37715497  1
  Mo  Mo171  1  0.19636550  0.80637939  0.48544918  1
  Mo  Mo172  1  0.89754559  0.10533543  0.87510349  1
  Mo  Mo173  1  0.40507099  0.59949181  0.49601983  1
  Mo  Mo174  1  0.41256039  -0.01542802  0.50280828  1
  Mo  Mo175  1  0.90588304  0.29986991  0.87373722  1
  Mo  Mo176  1  0.10766504  0.70087535  0.37571788  1
  Mo  Mo177  1  0.59082263  0.02955105  0.25112548  1
  Mo  Mo178  1  0.09645629  0.91428001  0.61849376  1
  Mo  Mo179  1  0.40333013  0.79346685  0.25011169  1
  Mo  Mo180  1  0.11686051  0.48860382  0.62411481  1
  Mo  Mo181  1  -0.00507119  0.20097560  0.26656374  1
  Mo  Mo182  1  0.80947268  0.19949764  0.00057762  1
  Mo  Mo183  1  -0.01660669  0.19331824  0.00067938  1
  Mo  Mo184  1  0.59853478  0.77794250  0.26453445  1
  Mo  Mo185  1  0.10032205  0.09709866  0.14270906  1
  Mo  Mo186  1  0.29528094  0.09260953  0.37421417  1
  Mo  Mo187  1  0.20603532  -0.00038941  0.00521845  1
  Mo  Mo188  1  0.49393338  0.29891067  0.62203892  1
  Mo  Mo189  1  0.90022965  0.71085758  0.61469345  1
  Mo  Mo190  1  0.30654677  0.49386543  0.87595891  1
  Mo  Mo191  1  0.49699158  0.50080869  0.11945846  1
  Mo  Mo192  1  0.51413577  0.49756456  0.38368909  1
  Mo  Mo193  1  0.90488332  0.69068368  0.12391058  1
  Mo  Mo194  1  0.19199327  0.59809685  0.24135535  1
  Mo  Mo195  1  0.61051628  0.39877376  0.24521322  1
  Mo  Mo196  1  0.60721826  0.80043511  0.00995015  1
  Mo  Mo197  1  0.70126953  0.29919486  0.12451342  1
  Mo  Mo198  1  0.39324573  0.20262481  0.01026937  1
  Mo  Mo199  1  0.39436777  0.00494948  0.24441898  1
