# generated using pymatgen
data_HfZrTaTiMo
_symmetry_space_group_name_H-M   'P 1'
_cell_length_a   15.18198609
_cell_length_b   15.16382194
_cell_length_c   16.81144664
_cell_angle_alpha   90.02618435
_cell_angle_beta   90.02517120
_cell_angle_gamma   90.11876220
_symmetry_Int_Tables_number   1
_chemical_formula_structural   HfZrTaTiMo
_chemical_formula_sum   'Hf40 Zr40 Ta40 Ti40 Mo40'
_cell_volume   3870.27060433
_cell_formula_units_Z   40
loop_
 _symmetry_equiv_pos_site_id
 _symmetry_equiv_pos_as_xyz
  1  'x, y, z'
loop_
 _atom_site_type_symbol
 _atom_site_label
 _atom_site_symmetry_multiplicity
 _atom_site_fract_x
 _atom_site_fract_y
 _atom_site_fract_z
 _atom_site_occupancy
  Hf  Hf0  1  0.80805069  0.79105471  0.76009362  1
  Hf  Hf1  1  0.89315121  0.69876808  0.38451182  1
  Hf  Hf2  1  0.70830946  0.31527372  0.12491052  1
  Hf  Hf3  1  0.19539656  0.79686949  -0.00722598  1
  Hf  Hf4  1  0.18943753  0.42046220  0.50491475  1
  Hf  Hf5  1  0.40681321  0.19533251  0.75474240  1
  Hf  Hf6  1  0.21263687  0.00068934  0.73870090  1
  Hf  Hf7  1  0.38886822  0.19217341  0.25625199  1
  Hf  Hf8  1  -0.00632436  0.81298296  -0.02629378  1
  Hf  Hf9  1  0.41224939  -0.01386886  0.51304610  1
  Hf  Hf10  1  0.49455253  0.07330973  0.36438247  1
  Hf  Hf11  1  -0.00323357  0.58336356  0.51953999  1
  Hf  Hf12  1  0.60443997  0.20083517  0.24822148  1
  Hf  Hf13  1  0.48899350  0.28795074  0.61548928  1
  Hf  Hf14  1  0.59514643  0.79914399  0.75196935  1
  Hf  Hf15  1  0.60025958  0.79921866  0.24313696  1
  Hf  Hf16  1  -0.01040154  0.60947607  0.75463574  1
  Hf  Hf17  1  0.01512404  0.01152945  0.25775035  1
  Hf  Hf18  1  0.80136319  0.78983354  0.24440048  1
  Hf  Hf19  1  0.39059272  0.39112963  0.49231017  1
  Hf  Hf20  1  0.11865911  0.31823683  0.36221024  1
  Hf  Hf21  1  0.81630678  0.20266838  0.50893568  1
  Hf  Hf22  1  0.68981945  0.69077390  0.38676852  1
  Hf  Hf23  1  0.48727772  0.90088334  0.87741188  1
  Hf  Hf24  1  0.87968625  0.50277816  0.86854427  1
  Hf  Hf25  1  0.69542113  0.89318146  0.38651831  1
  Hf  Hf26  1  0.30844902  0.69009126  0.87083689  1
  Hf  Hf27  1  0.81788728  0.00089883  -0.01050175  1
  Hf  Hf28  1  0.11192619  0.70673382  0.63706300  1
  Hf  Hf29  1  -0.01851888  0.61076659  0.23504373  1
  Hf  Hf30  1  0.90237717  0.89385135  0.62513744  1
  Hf  Hf31  1  0.38740973  0.59430465  0.49566738  1
  Hf  Hf32  1  0.90935083  0.89355072  0.11625279  1
  Hf  Hf33  1  0.81128665  -0.00608136  0.24916468  1
  Hf  Hf34  1  0.60166824  0.79769419  0.00046227  1
  Hf  Hf35  1  0.09733295  0.69831750  0.38039278  1
  Hf  Hf36  1  0.92664560  0.30020340  0.38799798  1
  Hf  Hf37  1  0.09566720  0.28969389  0.13444897  1
  Hf  Hf38  1  0.51730803  0.09390310  0.87730431  1
  Hf  Hf39  1  0.48766975  0.69945003  0.12113565  1
  Zr  Zr40  1  0.93365820  0.10306087  0.11324273  1
  Zr  Zr41  1  0.69160764  0.90978693  0.87925441  1
  Zr  Zr42  1  0.58662864  0.59909136  0.51106856  1
  Zr  Zr43  1  0.41201602  0.19296129  0.00058736  1
  Zr  Zr44  1  0.58756914  0.60075529  0.24368726  1
  Zr  Zr45  1  0.27993715  0.49593515  0.36261814  1
  Zr  Zr46  1  0.21863334  0.21519053  0.50172969  1
  Zr  Zr47  1  0.77642892  0.58638336  0.23475826  1
  Zr  Zr48  1  0.79674762  0.00629437  0.75360776  1
  Zr  Zr49  1  0.29885791  0.87368173  0.62819953  1
  Zr  Zr50  1  0.60907429  0.19249812  0.75222179  1
  Zr  Zr51  1  0.00270966  0.81068007  0.25457735  1
  Zr  Zr52  1  0.39070468  0.39506808  -0.01503463  1
  Zr  Zr53  1  0.88452008  0.48811941  0.11363893  1
  Zr  Zr54  1  0.69446593  0.89416288  0.62016537  1
  Zr  Zr55  1  0.38253834  0.40358955  0.76637977  1
  Zr  Zr56  1  0.31449599  0.08803241  0.87152960  1
  Zr  Zr57  1  0.58456203  0.40216815  0.74561993  1
  Zr  Zr58  1  0.60156671  0.02423842  0.02000908  1
  Zr  Zr59  1  0.80710894  0.41356630  0.52242632  1
  Zr  Zr60  1  0.60572438  -0.00196871  0.23373955  1
  Zr  Zr61  1  0.49863906  0.29661606  0.12518885  1
  Zr  Zr62  1  0.18445373  0.59715074  0.23830972  1
  Zr  Zr63  1  0.12161665  0.11289058  0.86588673  1
  Zr  Zr64  1  0.10350475  0.11536871  0.39188054  1
  Zr  Zr65  1  0.88063627  0.49634559  0.37183003  1
  Zr  Zr66  1  0.10108554  0.90293411  0.61871526  1
  Zr  Zr67  1  0.21713800  0.00399829  0.26085973  1
  Zr  Zr68  1  0.71477292  0.31793965  0.37575678  1
  Zr  Zr69  1  0.70933876  0.30273683  0.63690454  1
  Zr  Zr70  1  0.82654539  0.20525276  0.24808793  1
  Zr  Zr71  1  0.09000791  0.49035129  0.11671261  1
  Zr  Zr72  1  0.70851747  0.09980876  0.37444356  1
  Zr  Zr73  1  0.59988367  0.58716524  0.00564397  1
  Zr  Zr74  1  0.20034729  0.80493965  0.24874433  1
  Zr  Zr75  1  -0.00987926  0.61102495  -0.00841214  1
  Zr  Zr76  1  0.60091680  0.19584444  0.49647669  1
  Zr  Zr77  1  0.19901171  0.59053434  -0.00552185  1
  Zr  Zr78  1  0.79528795  0.60624673  0.52587030  1
  Zr  Zr79  1  0.80317593  0.00260848  0.50780774  1
  Ta  Ta80  1  0.68640773  0.50059768  0.86061279  1
  Ta  Ta81  1  -0.00336970  0.79177258  0.50534810  1
  Ta  Ta82  1  0.20004892  0.59085274  0.76572733  1
  Ta  Ta83  1  0.30094171  0.48501564  0.12668429  1
  Ta  Ta84  1  0.00294646  0.00570114  0.75009595  1
  Ta  Ta85  1  0.49216470  0.89996236  0.12157159  1
  Ta  Ta86  1  0.91233288  0.09995731  0.38212557  1
  Ta  Ta87  1  0.78090231  0.40445977  -0.01167564  1
  Ta  Ta88  1  0.39056346  0.59923482  0.24802086  1
  Ta  Ta89  1  0.20370071  0.00108393  0.00118902  1
  Ta  Ta90  1  0.00444546  0.80669667  0.76794894  1
  Ta  Ta91  1  0.91541757  0.11007997  0.87056964  1
  Ta  Ta92  1  0.60783051  0.40995969  0.25343503  1
  Ta  Ta93  1  0.09931229  0.30659717  0.62594055  1
  Ta  Ta94  1  0.39617695  -0.00784501  0.01171712  1
  Ta  Ta95  1  0.08661611  0.48499238  0.87715602  1
  Ta  Ta96  1  0.47728211  0.70119768  0.63113112  1
  Ta  Ta97  1  0.70940962  0.89528267  0.11284837  1
  Ta  Ta98  1  0.50242094  0.69339361  0.87501861  1
  Ta  Ta99  1  0.49431653  0.48899031  0.12414915  1
  Ta  Ta100  1  0.10133794  0.91811820  0.11441915  1
  Ta  Ta101  1  0.50319505  0.30360955  0.37306736  1
  Ta  Ta102  1  0.48632024  0.70717122  0.37266792  1
  Ta  Ta103  1  0.81808891  0.21387277  -0.01009365  1
  Ta  Ta104  1  0.29500088  0.69438768  0.12280951  1
  Ta  Ta105  1  0.21720323  0.00452214  0.50245530  1
  Ta  Ta106  1  0.10907408  0.11058027  0.62357219  1
  Ta  Ta107  1  0.40052038  0.39674509  0.25495944  1
  Ta  Ta108  1  0.59785026  0.40693979  0.50587906  1
  Ta  Ta109  1  0.69998241  0.68657825  0.87095439  1
  Ta  Ta110  1  0.19843795  0.61553091  0.50658307  1
  Ta  Ta111  1  0.01928081  0.21235339  -0.01243048  1
  Ta  Ta112  1  0.70248223  0.10184941  0.62821471  1
  Ta  Ta113  1  0.29741837  0.89544882  0.87020893  1
  Ta  Ta114  1  0.29085696  0.51021317  0.63503428  1
  Ta  Ta115  1  0.90528311  0.90106586  0.39120421  1
  Ta  Ta116  1  0.71537683  0.30817376  0.85885534  1
  Ta  Ta117  1  0.01360859  0.20947542  0.74851975  1
  Ta  Ta118  1  0.18622493  0.38197370  -0.00582922  1
  Ta  Ta119  1  0.10630058  0.90294623  0.39911707  1
  Ti  Ti120  1  0.29347522  0.70324436  0.36967577  1
  Ti  Ti121  1  0.39756307  0.80428584  0.25052086  1
  Ti  Ti122  1  0.78814985  0.59805774  0.73222136  1
  Ti  Ti123  1  0.39409846  0.59353802  0.00221685  1
  Ti  Ti124  1  0.72338323  0.11080787  0.11915812  1
  Ti  Ti125  1  0.00299362  0.01254672  0.50886507  1
  Ti  Ti126  1  0.39573202  0.79590661  0.75197939  1
  Ti  Ti127  1  0.61916962  0.22337778  -0.01007781  1
  Ti  Ti128  1  0.18550887  0.39196359  0.75947928  1
  Ti  Ti129  1  0.48423736  0.49817334  0.62767335  1
  Ti  Ti130  1  0.40203412  0.18459854  0.48333163  1
  Ti  Ti131  1  0.10472520  0.91396903  0.86996935  1
  Ti  Ti132  1  0.08627237  0.71726111  0.11894733  1
  Ti  Ti133  1  0.71655128  0.11393427  0.87705527  1
  Ti  Ti134  1  0.48957259  0.50775206  0.87369332  1
  Ti  Ti135  1  0.29464207  0.30831577  0.63486073  1
  Ti  Ti136  1  0.91420259  0.31033649  0.63847822  1
  Ti  Ti137  1  0.50202679  0.50088075  0.37371696  1
  Ti  Ti138  1  0.07750751  0.50351616  0.37229630  1
  Ti  Ti139  1  0.80250023  0.79165890  -0.01207542  1
  Ti  Ti140  1  0.58820786  0.60303236  0.74137174  1
  Ti  Ti141  1  0.91074114  0.31067733  0.86366162  1
  Ti  Ti142  1  0.09404429  0.49631003  0.64224816  1
  Ti  Ti143  1  0.38811454  0.78714454  0.49969831  1
  Ti  Ti144  1  0.69033087  0.70635688  0.62432568  1
  Ti  Ti145  1  0.59623306  -0.00025308  0.50923984  1
  Ti  Ti146  1  0.30481945  0.09432682  0.12592553  1
  Ti  Ti147  1  -0.01139723  0.39647236  0.24678446  1
  Ti  Ti148  1  0.90860397  0.11119703  0.63710717  1
  Ti  Ti149  1  0.39332348  0.79505257  -0.00167168  1
  Ti  Ti150  1  0.28265047  0.28637539  0.87082480  1
  Ti  Ti151  1  0.90421594  0.30231754  0.11529117  1
  Ti  Ti152  1  0.57710372  0.80435264  0.50480369  1
  Ti  Ti153  1  0.20036429  0.19752100  0.24822558  1
  Ti  Ti154  1  0.21297908  0.19848613  0.01133110  1
  Ti  Ti155  1  0.31624781  0.90003381  0.38028755  1
  Ti  Ti156  1  0.31697392  0.10577122  0.62655871  1
  Ti  Ti157  1  0.58271188  -0.00121867  0.73356028  1
  Ti  Ti158  1  0.29896689  0.89180952  0.12301698  1
  Ti  Ti159  1  0.78931571  0.60752905  0.00639715  1
  Mo  Mo160  1  0.10130198  0.29943222  0.87075590  1
  Mo  Mo161  1  0.70395669  0.70673939  0.11382022  1
  Mo  Mo162  1  0.81863635  0.20043711  0.75412837  1
  Mo  Mo163  1  0.89948247  0.49779532  0.64645224  1
  Mo  Mo164  1  0.68540626  0.49239025  0.11639064  1
  Mo  Mo165  1  0.30354456  0.09163292  0.38374042  1
  Mo  Mo166  1  0.40865216  -0.00968482  0.73643606  1
  Mo  Mo167  1  0.19531582  0.79598817  0.76868980  1
  Mo  Mo168  1  0.59309952  0.39515151  -0.01722431  1
  Mo  Mo169  1  0.80152448  0.40610850  0.74543507  1
  Mo  Mo170  1  0.89388403  0.70632314  0.11315675  1
  Mo  Mo171  1  0.39847960  -0.01476490  0.24038256  1
  Mo  Mo172  1  0.68380628  0.49462271  0.38245042  1
  Mo  Mo173  1  0.11695977  0.09931479  0.12011762  1
  Mo  Mo174  1  0.00534092  0.20423294  0.52038715  1
  Mo  Mo175  1  0.49270722  0.09296418  0.13969557  1
  Mo  Mo176  1  0.49756856  0.88888790  0.62895581  1
  Mo  Mo177  1  0.88639669  0.69878644  0.87432133  1
  Mo  Mo178  1  0.68316518  0.50524561  0.64167532  1
  Mo  Mo179  1  0.10158048  0.69987796  0.86557024  1
  Mo  Mo180  1  0.00089993  0.40546763  0.75129472  1
  Mo  Mo181  1  0.28515984  0.48925361  0.87683917  1
  Mo  Mo182  1  -0.01687595  0.38698368  -0.00830529  1
  Mo  Mo183  1  0.21168489  0.38912581  0.23657744  1
  Mo  Mo184  1  0.51376538  0.30178917  0.87863823  1
  Mo  Mo185  1  0.29653304  0.68783122  0.63752305  1
  Mo  Mo186  1  0.21164144  0.20700530  0.73385983  1
  Mo  Mo187  1  0.30870861  0.29689647  0.37139661  1
  Mo  Mo188  1  0.80130517  0.39695258  0.24978905  1
  Mo  Mo189  1  0.90205094  0.70708927  0.62721653  1
  Mo  Mo190  1  0.49925870  0.88363169  0.37566319  1
  Mo  Mo191  1  0.40415081  0.59611314  0.75246618  1
  Mo  Mo192  1  0.79827193  0.79757038  0.50247806  1
  Mo  Mo193  1  0.90459701  0.91138141  0.86735846  1
  Mo  Mo194  1  0.00842172  0.20138919  0.25388281  1
  Mo  Mo195  1  0.50428427  0.09667335  0.62167010  1
  Mo  Mo196  1  0.00464308  0.40078152  0.50962125  1
  Mo  Mo197  1  0.20483623  0.79861227  0.49163185  1
  Mo  Mo198  1  0.29456152  0.29764972  0.12430658  1
  Mo  Mo199  1  0.01507218  0.00888211  -0.01549726  1
