# generated using pymatgen
data_HfZrTaTiMo
_symmetry_space_group_name_H-M   'P 1'
_cell_length_a   15.20349439
_cell_length_b   15.22120552
_cell_length_c   16.86878544
_cell_angle_alpha   90.01509600
_cell_angle_beta   90.02772783
_cell_angle_gamma   89.91603668
_symmetry_Int_Tables_number   1
_chemical_formula_structural   HfZrTaTiMo
_chemical_formula_sum   'Hf40 Zr40 Ta40 Ti40 Mo40'
_cell_volume   3903.69384897
_cell_formula_units_Z   40
loop_
 _symmetry_equiv_pos_site_id
 _symmetry_equiv_pos_as_xyz
  1  'x, y, z'
loop_
 _atom_site_type_symbol
 _atom_site_label
 _atom_site_symmetry_multiplicity
 _atom_site_fract_x
 _atom_site_fract_y
 _atom_site_fract_z
 _atom_site_occupancy
  Hf  Hf0  1  0.70154861  0.09869614  0.62348335  1
  Hf  Hf1  1  0.50581628  0.89071537  0.36422742  1
  Hf  Hf2  1  0.80366538  0.02490686  0.24854171  1
  Hf  Hf3  1  0.91569714  0.49178189  0.10929288  1
  Hf  Hf4  1  0.29547736  0.72430667  0.37705772  1
  Hf  Hf5  1  0.90675509  0.89779992  0.36267794  1
  Hf  Hf6  1  0.29240488  0.51067567  0.12449515  1
  Hf  Hf7  1  0.70131586  0.69697431  0.38223218  1
  Hf  Hf8  1  0.60939907  0.00196645  0.25094256  1
  Hf  Hf9  1  0.60172291  -0.00064008  -0.01678765  1
  Hf  Hf10  1  0.09510045  0.10242396  0.11723198  1
  Hf  Hf11  1  0.90278107  0.70516246  0.86312255  1
  Hf  Hf12  1  0.19796191  0.60821486  0.26211072  1
  Hf  Hf13  1  0.20650550  0.60130611  0.75072840  1
  Hf  Hf14  1  0.69133996  0.30153042  0.12259090  1
  Hf  Hf15  1  0.08308849  0.30682284  0.61135211  1
  Hf  Hf16  1  0.30661059  0.93308182  0.34708628  1
  Hf  Hf17  1  0.19152419  0.83077161  0.50593860  1
  Hf  Hf18  1  0.10922343  0.66081936  0.10349934  1
  Hf  Hf19  1  0.50502457  0.48376783  0.13550258  1
  Hf  Hf20  1  0.40616327  0.80371003  0.01286765  1
  Hf  Hf21  1  0.41031793  0.61185053  0.75527376  1
  Hf  Hf22  1  0.08437645  0.50733831  0.39472478  1
  Hf  Hf23  1  0.81842300  0.58560589  0.50500675  1
  Hf  Hf24  1  0.80004514  0.39807682  0.76014256  1
  Hf  Hf25  1  0.40440768  0.59829976  0.25662725  1
  Hf  Hf26  1  0.80467745  0.81140400  0.50408250  1
  Hf  Hf27  1  0.40076239  0.01120541  -0.00160550  1
  Hf  Hf28  1  0.29562646  0.91782309  0.63817790  1
  Hf  Hf29  1  0.49725697  0.68904918  0.60557204  1
  Hf  Hf30  1  0.58276434  0.20807839  -0.00560366  1
  Hf  Hf31  1  0.00463680  0.59001710  0.24433775  1
  Hf  Hf32  1  0.61877504  0.37434047  0.50284676  1
  Hf  Hf33  1  0.79677175  0.39450317  -0.01173424  1
  Hf  Hf34  1  0.19173578  0.40685909  0.25384918  1
  Hf  Hf35  1  0.10444270  0.70326530  0.63188668  1
  Hf  Hf36  1  0.41076306  0.59604981  -0.00213872  1
  Hf  Hf37  1  0.70199761  0.10120450  0.10812821  1
  Hf  Hf38  1  0.20602624  0.39658543  0.00627419  1
  Hf  Hf39  1  0.30313370  0.50544463  0.39318583  1
  Zr  Zr40  1  0.71150400  0.89532404  0.86134578  1
  Zr  Zr41  1  0.90342841  0.69233696  0.63689688  1
  Zr  Zr42  1  0.41070365  0.39243992  0.49968141  1
  Zr  Zr43  1  0.70674667  0.50473490  0.12685746  1
  Zr  Zr44  1  -0.01289060  0.18433146  0.76237206  1
  Zr  Zr45  1  0.21089058  0.80019644  0.01715318  1
  Zr  Zr46  1  0.39870497  0.82754591  0.49824034  1
  Zr  Zr47  1  0.60061293  0.78869262  -0.00935817  1
  Zr  Zr48  1  0.50140180  0.69215941  0.39055547  1
  Zr  Zr49  1  0.60080219  -0.00196885  0.50041559  1
  Zr  Zr50  1  0.30529710  0.30349605  0.87316609  1
  Zr  Zr51  1  0.09902385  0.09329894  0.61209641  1
  Zr  Zr52  1  0.09921939  0.09597264  0.37539250  1
  Zr  Zr53  1  0.50081680  0.90380368  0.63582244  1
  Zr  Zr54  1  0.91223570  0.69103505  0.36924740  1
  Zr  Zr55  1  0.29487835  0.30676283  0.62032167  1
  Zr  Zr56  1  0.39995920  0.18726249  0.50140130  1
  Zr  Zr57  1  0.51376464  0.90387052  0.13015697  1
  Zr  Zr58  1  0.48687503  0.09041084  0.36879338  1
  Zr  Zr59  1  0.59940228  0.01032928  0.76129799  1
  Zr  Zr60  1  0.10814494  0.88755341  0.35359835  1
  Zr  Zr61  1  0.19631428  0.40898825  0.74800666  1
  Zr  Zr62  1  0.60163389  0.57482178  0.74401736  1
  Zr  Zr63  1  -0.00573158  0.79029467  0.01230581  1
  Zr  Zr64  1  0.80146251  0.80419981  0.00385361  1
  Zr  Zr65  1  0.10302306  0.89300515  0.88790428  1
  Zr  Zr66  1  0.18915613  0.20779717  0.75373687  1
  Zr  Zr67  1  0.30385862  0.51724265  0.60594934  1
  Zr  Zr68  1  0.00353130  0.57798819  0.75114850  1
  Zr  Zr69  1  0.30469067  0.70653271  0.87871190  1
  Zr  Zr70  1  0.89566473  0.10464333  0.61096196  1
  Zr  Zr71  1  0.86998772  0.10488990  0.39790462  1
  Zr  Zr72  1  0.79598826  0.79859116  0.24500542  1
  Zr  Zr73  1  0.58794022  0.78210959  0.75355620  1
  Zr  Zr74  1  0.08891051  0.30052826  0.12779982  1
  Zr  Zr75  1  -0.02157802  0.19611240  0.25749531  1
  Zr  Zr76  1  0.17702373  0.00623751  0.75789785  1
  Zr  Zr77  1  0.89886822  0.90384465  0.64142129  1
  Zr  Zr78  1  0.10501339  0.50078429  0.89169942  1
  Zr  Zr79  1  0.00586527  -0.01960754  0.49736239  1
  Ta  Ta80  1  0.51131414  0.68662108  0.13215306  1
  Ta  Ta81  1  0.19647294  0.20808355  0.49043660  1
  Ta  Ta82  1  0.00858204  0.79015225  0.22590009  1
  Ta  Ta83  1  0.41693213  0.40815935  0.73934029  1
  Ta  Ta84  1  0.58987982  0.40534943  -0.00462006  1
  Ta  Ta85  1  0.80996906  0.38900515  0.50315949  1
  Ta  Ta86  1  0.20282805  0.79594415  0.22535134  1
  Ta  Ta87  1  0.30341900  0.91739654  0.13695891  1
  Ta  Ta88  1  0.30458605  0.71457598  0.62132065  1
  Ta  Ta89  1  0.20487374  0.80230192  0.75140588  1
  Ta  Ta90  1  0.80033063  0.60354066  -0.00786535  1
  Ta  Ta91  1  0.09042359  0.30732246  0.38266156  1
  Ta  Ta92  1  0.29553599  0.10859046  0.13333327  1
  Ta  Ta93  1  0.60868119  0.59319660  0.26076750  1
  Ta  Ta94  1  0.89444200  0.11067933  0.10385186  1
  Ta  Ta95  1  0.09427774  0.50005136  0.60157024  1
  Ta  Ta96  1  0.60371439  0.59435032  -0.00839952  1
  Ta  Ta97  1  0.18889137  0.62721688  0.49302735  1
  Ta  Ta98  1  0.90601585  0.90919234  0.86572483  1
  Ta  Ta99  1  0.08830755  0.10316952  0.89561290  1
  Ta  Ta100  1  0.40337864  0.20430750  0.74461336  1
  Ta  Ta101  1  0.49552059  0.11234957  0.13011489  1
  Ta  Ta102  1  0.29723869  0.29945692  0.37410348  1
  Ta  Ta103  1  0.90010106  0.91255845  0.12971172  1
  Ta  Ta104  1  0.39994163  0.20560408  0.25190807  1
  Ta  Ta105  1  0.30716475  0.30167896  0.13542843  1
  Ta  Ta106  1  0.29540748  0.10408109  0.87713642  1
  Ta  Ta107  1  0.00702930  0.78181961  0.50078062  1
  Ta  Ta108  1  0.51301678  0.28970833  0.37252142  1
  Ta  Ta109  1  0.59846612  0.20982832  0.75019283  1
  Ta  Ta110  1  0.69096216  0.29690599  0.87530162  1
  Ta  Ta111  1  0.30414063  0.90733948  0.87053370  1
  Ta  Ta112  1  0.60950822  0.39365994  0.26247469  1
  Ta  Ta113  1  -0.00868995  -0.00342672  0.00281004  1
  Ta  Ta114  1  0.88627626  0.30005575  0.63136732  1
  Ta  Ta115  1  0.70538637  0.68754788  0.86545525  1
  Ta  Ta116  1  0.70313181  0.69868969  0.62545292  1
  Ta  Ta117  1  -0.01409670  0.39965526  0.25599395  1
  Ta  Ta118  1  0.51426383  0.49336911  0.38245678  1
  Ta  Ta119  1  0.40195309  0.79647211  0.23631208  1
  Ti  Ti120  1  0.69072001  0.49504966  0.87302729  1
  Ti  Ti121  1  0.80437405  0.58242538  0.25454126  1
  Ti  Ti122  1  0.10200205  0.69503499  0.88553140  1
  Ti  Ti123  1  0.71017340  0.91443215  0.37783682  1
  Ti  Ti124  1  0.89942203  0.50097179  0.88200662  1
  Ti  Ti125  1  0.39660557  0.00965115  0.76108281  1
  Ti  Ti126  1  0.10227716  0.90627857  0.12469874  1
  Ti  Ti127  1  -0.01804483  0.21793687  0.49130483  1
  Ti  Ti128  1  0.39030488  0.20724110  0.00760179  1
  Ti  Ti129  1  0.80002481  0.59432306  0.74676584  1
  Ti  Ti130  1  0.89159510  0.68906485  0.12618645  1
  Ti  Ti131  1  0.69883915  0.69521112  0.12672161  1
  Ti  Ti132  1  0.40813752  0.39269388  0.00588754  1
  Ti  Ti133  1  0.22693088  0.01872846  0.49285851  1
  Ti  Ti134  1  0.19797744  0.20313643  -0.00124860  1
  Ti  Ti135  1  0.70731534  0.90107426  0.12224420  1
  Ti  Ti136  1  -0.00034689  0.38377776  0.76299830  1
  Ti  Ti137  1  0.40540509  0.39697186  0.26194884  1
  Ti  Ti138  1  0.01116828  0.81044901  0.75265290  1
  Ti  Ti139  1  0.61249702  0.80475082  0.50922203  1
  Ti  Ti140  1  -0.00017505  0.38150241  -0.01260601  1
  Ti  Ti141  1  0.20531369  0.00467050  0.00178852  1
  Ti  Ti142  1  0.87945787  0.30950550  0.37004276  1
  Ti  Ti143  1  0.80801741  0.01401735  0.75936704  1
  Ti  Ti144  1  0.49515039  0.10398872  0.62722966  1
  Ti  Ti145  1  0.31457704  0.49666889  0.87733043  1
  Ti  Ti146  1  0.79324660  0.19841969  0.76699933  1
  Ti  Ti147  1  0.60492011  0.78856980  0.24944357  1
  Ti  Ti148  1  0.49123067  0.11591273  0.87121020  1
  Ti  Ti149  1  0.61440081  0.58356950  0.50197124  1
  Ti  Ti150  1  0.88714927  0.29406309  0.12282542  1
  Ti  Ti151  1  0.60538822  0.19906988  0.24897818  1
  Ti  Ti152  1  0.48757104  0.88900475  0.86591211  1
  Ti  Ti153  1  0.71573882  0.48400463  0.62631593  1
  Ti  Ti154  1  0.19533503  0.20109360  0.25832409  1
  Ti  Ti155  1  0.50876573  0.48960098  0.61238181  1
  Ti  Ti156  1  0.00273178  0.00087374  0.24036431  1
  Ti  Ti157  1  0.49785478  0.31697860  0.86474384  1
  Ti  Ti158  1  0.71583658  0.48274416  0.37384619  1
  Ti  Ti159  1  0.29980342  0.10672723  0.63068664  1
  Mo  Mo160  1  0.09518752  0.89455338  0.63394092  1
  Mo  Mo161  1  0.40159539  0.60541068  0.49697178  1
  Mo  Mo162  1  0.70694627  0.88964634  0.64057185  1
  Mo  Mo163  1  0.77668234  0.21197531  0.50513019  1
  Mo  Mo164  1  0.89430782  0.49285509  0.37066042  1
  Mo  Mo165  1  -0.01585425  0.40144022  0.49517092  1
  Mo  Mo166  1  0.70507056  0.29209093  0.63658056  1
  Mo  Mo167  1  0.49987221  0.49223774  0.87624700  1
  Mo  Mo168  1  0.59575881  0.19741870  0.50412420  1
  Mo  Mo169  1  0.19469023  0.39781319  0.49224836  1
  Mo  Mo170  1  0.88701262  0.09576044  0.89358907  1
  Mo  Mo171  1  0.29293773  0.11537485  0.36149607  1
  Mo  Mo172  1  0.78989697  0.20841987  0.24466995  1
  Mo  Mo173  1  0.21081841  0.59413464  -0.00979386  1
  Mo  Mo174  1  0.68319632  0.11396075  0.38080530  1
  Mo  Mo175  1  0.79423040  0.20089560  -0.01512760  1
  Mo  Mo176  1  0.80304195  0.39383982  0.24527975  1
  Mo  Mo177  1  0.40479967  0.00971453  0.23503790  1
  Mo  Mo178  1  0.49364855  0.29940604  0.13493592  1
  Mo  Mo179  1  0.79094813  -0.00700012  0.49954495  1
  Mo  Mo180  1  -0.01086549  0.59236516  -0.01188053  1
  Mo  Mo181  1  0.09740549  0.29314937  0.88363744  1
  Mo  Mo182  1  0.50896720  0.69730877  0.87833555  1
  Mo  Mo183  1  0.09735008  0.48466011  0.11668282  1
  Mo  Mo184  1  0.69656460  0.10723553  0.87998864  1
  Mo  Mo185  1  0.39313698  0.80536982  0.74945559  1
  Mo  Mo186  1  0.39527706  0.00582726  0.50425923  1
  Mo  Mo187  1  0.60172891  0.39359612  0.74253983  1
  Mo  Mo188  1  -0.00632670  0.20475117  -0.00674074  1
  Mo  Mo189  1  -0.00415676  0.00355604  0.76144622  1
  Mo  Mo190  1  0.50557839  0.29485741  0.63335429  1
  Mo  Mo191  1  -0.00169507  0.60282538  0.50639160  1
  Mo  Mo192  1  0.80188318  -0.00295860  -0.00277724  1
  Mo  Mo193  1  0.89739457  0.29857741  0.87547070  1
  Mo  Mo194  1  0.09946132  0.71053307  0.36994590  1
  Mo  Mo195  1  0.91010762  0.47941389  0.63270689  1
  Mo  Mo196  1  0.31287606  0.70017980  0.12856564  1
  Mo  Mo197  1  0.19214897  0.00966783  0.23488995  1
  Mo  Mo198  1  0.70449369  0.28648488  0.36944024  1
  Mo  Mo199  1  0.79540071  0.79551413  0.74539790  1
