# generated using pymatgen
data_HfZrTaTiMo
_symmetry_space_group_name_H-M   'P 1'
_cell_length_a   15.21582355
_cell_length_b   15.20206586
_cell_length_c   16.83277110
_cell_angle_alpha   90.01200164
_cell_angle_beta   90.00591446
_cell_angle_gamma   90.00930673
_symmetry_Int_Tables_number   1
_chemical_formula_structural   HfZrTaTiMo
_chemical_formula_sum   'Hf40 Zr40 Ta40 Ti40 Mo40'
_cell_volume   3893.62097741
_cell_formula_units_Z   40
loop_
 _symmetry_equiv_pos_site_id
 _symmetry_equiv_pos_as_xyz
  1  'x, y, z'
loop_
 _atom_site_type_symbol
 _atom_site_label
 _atom_site_symmetry_multiplicity
 _atom_site_fract_x
 _atom_site_fract_y
 _atom_site_fract_z
 _atom_site_occupancy
  Hf  Hf0  1  0.90008799  0.30164027  0.63051410  1
  Hf  Hf1  1  0.30404448  0.91301787  0.86731549  1
  Hf  Hf2  1  -0.00181117  0.78721154  0.01337233  1
  Hf  Hf3  1  0.59977168  0.19574770  0.74011092  1
  Hf  Hf4  1  0.71679677  0.69272226  0.61658974  1
  Hf  Hf5  1  0.51669927  0.31128240  0.37785687  1
  Hf  Hf6  1  0.19643722  0.79381367  0.48827423  1
  Hf  Hf7  1  0.49056217  0.48503457  0.87478816  1
  Hf  Hf8  1  0.39356283  0.57889753  0.74637422  1
  Hf  Hf9  1  0.52152892  0.10033259  0.38300988  1
  Hf  Hf10  1  0.41036151  0.80247151  -0.00764946  1
  Hf  Hf11  1  0.18450986  0.19662259  0.49723322  1
  Hf  Hf12  1  0.91812987  0.89890290  0.86706086  1
  Hf  Hf13  1  0.60058970  0.57621597  0.51044486  1
  Hf  Hf14  1  0.38632463  0.40404113  0.26129787  1
  Hf  Hf15  1  0.30753472  0.30719735  0.87869402  1
  Hf  Hf16  1  0.90113804  0.50543114  0.88343270  1
  Hf  Hf17  1  0.69734634  0.49450074  0.36878867  1
  Hf  Hf18  1  0.39602753  0.00668537  0.00318097  1
  Hf  Hf19  1  0.29381574  0.50075364  0.11526837  1
  Hf  Hf20  1  0.71813215  0.91830207  0.11218860  1
  Hf  Hf21  1  0.70836294  0.90885710  0.61775926  1
  Hf  Hf22  1  0.79209576  0.41559624  0.00768088  1
  Hf  Hf23  1  0.69141562  0.30757434  0.12439588  1
  Hf  Hf24  1  0.49880303  0.10539457  0.12773530  1
  Hf  Hf25  1  0.79331051  0.41408996  0.74716185  1
  Hf  Hf26  1  0.08346166  0.29010955  0.87195435  1
  Hf  Hf27  1  0.60213457  0.80464486  0.24925325  1
  Hf  Hf28  1  0.09204795  0.69285097  0.61728353  1
  Hf  Hf29  1  0.31509245  0.09735942  0.61976358  1
  Hf  Hf30  1  0.09928738  0.50025272  0.88837474  1
  Hf  Hf31  1  0.20351439  -0.01180828  0.50313680  1
  Hf  Hf32  1  0.90262227  0.10342315  0.86915677  1
  Hf  Hf33  1  0.79610273  0.18658554  0.25461962  1
  Hf  Hf34  1  0.00759505  0.01148602  0.49948261  1
  Hf  Hf35  1  0.18903501  0.79321338  0.76490205  1
  Hf  Hf36  1  0.28892152  0.69679208  0.62968067  1
  Hf  Hf37  1  0.79748259  0.20415734  0.75398855  1
  Hf  Hf38  1  0.19836572  -0.00494352  0.74158389  1
  Hf  Hf39  1  0.61846532  0.79815346  0.75759935  1
  Zr  Zr40  1  0.90664970  0.89900525  0.63049857  1
  Zr  Zr41  1  0.00157244  0.78468255  0.24355765  1
  Zr  Zr42  1  0.10287152  0.48540224  0.37717202  1
  Zr  Zr43  1  0.09821124  0.07911200  0.86772585  1
  Zr  Zr44  1  0.19646957  0.80214858  -0.01967497  1
  Zr  Zr45  1  0.80109394  0.61042527  0.23369428  1
  Zr  Zr46  1  0.09287345  0.68672666  0.37904633  1
  Zr  Zr47  1  0.69305876  0.30870572  0.87769425  1
  Zr  Zr48  1  0.12841544  0.89013337  0.13520287  1
  Zr  Zr49  1  0.49872353  0.92300573  0.62329518  1
  Zr  Zr50  1  0.20039520  0.60165294  0.24449128  1
  Zr  Zr51  1  0.51272481  0.68794457  0.87218126  1
  Zr  Zr52  1  0.39485092  0.60372901  0.49845587  1
  Zr  Zr53  1  0.10346547  0.09440804  0.13039747  1
  Zr  Zr54  1  0.40244730  0.20242262  0.49358082  1
  Zr  Zr55  1  0.49982518  0.69859177  0.63166719  1
  Zr  Zr56  1  0.59772995  0.79600378  0.50310856  1
  Zr  Zr57  1  0.39003558  0.81025614  0.49558949  1
  Zr  Zr58  1  0.29000789  0.71377896  0.11683313  1
  Zr  Zr59  1  0.20455139  0.20010076  0.74790296  1
  Zr  Zr60  1  0.40342666  0.79948257  0.75875596  1
  Zr  Zr61  1  -0.01153781  0.39887099  0.50313592  1
  Zr  Zr62  1  0.69595873  0.11345365  0.10578771  1
  Zr  Zr63  1  0.07185068  0.28478691  0.37107162  1
  Zr  Zr64  1  0.81074782  0.40047026  0.24510930  1
  Zr  Zr65  1  0.80436096  0.82004730  0.25175629  1
  Zr  Zr66  1  0.39109050  0.41091777  0.48448373  1
  Zr  Zr67  1  0.39671187  0.20038811  0.26316300  1
  Zr  Zr68  1  0.10272700  0.30761836  0.62895044  1
  Zr  Zr69  1  0.10031609  0.29286950  0.13246200  1
  Zr  Zr70  1  0.70005932  0.91272285  0.38930467  1
  Zr  Zr71  1  0.38893738  0.80704022  0.24785052  1
  Zr  Zr72  1  -0.00441484  -0.00360434  0.25387906  1
  Zr  Zr73  1  0.30027542  0.28711776  0.12567869  1
  Zr  Zr74  1  0.60794189  0.59707410  0.01352543  1
  Zr  Zr75  1  0.30338027  0.08513954  0.37857644  1
  Zr  Zr76  1  0.20285027  0.40988489  0.75916218  1
  Zr  Zr77  1  0.68958585  0.51868762  0.87027835  1
  Zr  Zr78  1  -0.00343972  0.57283649  0.22852059  1
  Zr  Zr79  1  0.49414543  0.91111997  0.37777658  1
  Ta  Ta80  1  0.81224006  0.20641234  0.50318042  1
  Ta  Ta81  1  0.30643483  0.30781774  0.62284105  1
  Ta  Ta82  1  0.51275890  0.91172442  0.87337146  1
  Ta  Ta83  1  0.19489361  0.39254106  0.00080903  1
  Ta  Ta84  1  0.40368876  0.60475622  0.24568160  1
  Ta  Ta85  1  0.18836595  0.59868937  0.75579503  1
  Ta  Ta86  1  0.70574392  0.29563323  0.38501178  1
  Ta  Ta87  1  0.89587476  0.28587972  0.12066506  1
  Ta  Ta88  1  0.71084340  0.90931038  0.88255453  1
  Ta  Ta89  1  0.00520324  0.59274214  0.02437232  1
  Ta  Ta90  1  0.60219988  0.60299203  0.23967200  1
  Ta  Ta91  1  0.50206106  0.49324593  0.13610520  1
  Ta  Ta92  1  0.80836662  0.80023831  0.49413142  1
  Ta  Ta93  1  0.40976793  0.20927321  0.74340925  1
  Ta  Ta94  1  -0.00761947  0.38863871  0.00812601  1
  Ta  Ta95  1  0.80734347  0.21055387  -0.01192354  1
  Ta  Ta96  1  0.61847477  0.00928612  0.24669844  1
  Ta  Ta97  1  0.61149512  0.80368602  -0.00725722  1
  Ta  Ta98  1  0.80500105  0.61649925  0.75371730  1
  Ta  Ta99  1  0.00068639  -0.01356371  0.00668558  1
  Ta  Ta100  1  0.89004117  0.08597693  0.11551696  1
  Ta  Ta101  1  0.90079779  0.90952827  0.38356584  1
  Ta  Ta102  1  0.50135419  0.70250778  0.12240771  1
  Ta  Ta103  1  0.50395887  0.50967571  0.36101092  1
  Ta  Ta104  1  0.58395650  0.39734684  0.73382188  1
  Ta  Ta105  1  -0.00660357  0.59559346  0.74796488  1
  Ta  Ta106  1  0.30955075  0.10919764  0.86984369  1
  Ta  Ta107  1  0.50555401  0.69613453  0.37034928  1
  Ta  Ta108  1  0.49960153  0.29293182  0.87586941  1
  Ta  Ta109  1  0.90711371  0.11430189  0.38258588  1
  Ta  Ta110  1  0.51049578  0.90165403  0.12188828  1
  Ta  Ta111  1  0.70004036  0.69391229  0.38104662  1
  Ta  Ta112  1  0.28437014  0.49329243  0.62246156  1
  Ta  Ta113  1  0.00071324  0.80606837  0.49126818  1
  Ta  Ta114  1  0.89451902  0.69229229  0.38328546  1
  Ta  Ta115  1  -0.00027350  0.18958075  0.00211903  1
  Ta  Ta116  1  0.81061996  0.61958510  0.01184652  1
  Ta  Ta117  1  0.50146606  0.30086819  0.13169327  1
  Ta  Ta118  1  0.60924012  0.00589341  0.75524948  1
  Ta  Ta119  1  0.20446081  0.18992664  -0.00680719  1
  Ti  Ti120  1  -0.01234891  0.19901637  0.24440183  1
  Ti  Ti121  1  0.09121015  0.50225857  0.62050068  1
  Ti  Ti122  1  0.29718067  0.50362781  0.89258500  1
  Ti  Ti123  1  0.70110407  0.71600576  0.12128589  1
  Ti  Ti124  1  0.78607459  0.41128692  0.50370657  1
  Ti  Ti125  1  0.79603265  0.00228802  0.75222903  1
  Ti  Ti126  1  0.69792624  0.10209307  0.61052467  1
  Ti  Ti127  1  0.58954505  0.39740683  0.00469724  1
  Ti  Ti128  1  0.90205892  0.49668706  0.37954321  1
  Ti  Ti129  1  0.59721910  0.00321603  -0.00476061  1
  Ti  Ti130  1  0.19459236  0.18759368  0.26816770  1
  Ti  Ti131  1  0.81107468  0.80923192  -0.00334851  1
  Ti  Ti132  1  0.40279930  -0.00339329  0.24321098  1
  Ti  Ti133  1  0.60423928  0.20607297  0.25482531  1
  Ti  Ti134  1  0.08376181  0.10385343  0.63905162  1
  Ti  Ti135  1  0.40377025  0.20198015  0.00076788  1
  Ti  Ti136  1  0.40360606  0.59773340  0.00495149  1
  Ti  Ti137  1  0.88833607  0.51375826  0.61874042  1
  Ti  Ti138  1  0.18795164  0.39676522  0.24848828  1
  Ti  Ti139  1  -0.00611133  0.40315655  0.75111729  1
  Ti  Ti140  1  0.71225308  0.09871052  0.39440712  1
  Ti  Ti141  1  0.90494898  0.69776871  0.61208412  1
  Ti  Ti142  1  0.29835875  0.68467024  0.87819021  1
  Ti  Ti143  1  0.20014119  0.58081656  0.49513860  1
  Ti  Ti144  1  -0.00210319  0.78463948  0.75306445  1
  Ti  Ti145  1  0.08176796  0.68980124  0.87967360  1
  Ti  Ti146  1  0.09870768  0.89228684  0.62859404  1
  Ti  Ti147  1  0.40216246  0.39561876  0.00878038  1
  Ti  Ti148  1  0.50045093  0.29998558  0.61020849  1
  Ti  Ti149  1  0.30237444  0.89504390  0.63304858  1
  Ti  Ti150  1  0.89610252  0.10055186  0.63161640  1
  Ti  Ti151  1  0.69371355  0.10309544  0.88677558  1
  Ti  Ti152  1  0.20059972  -0.00046031  -0.00428335  1
  Ti  Ti153  1  0.50250129  0.10530738  0.87868736  1
  Ti  Ti154  1  0.80697148  0.79806273  0.75860789  1
  Ti  Ti155  1  0.41379191  0.01565841  0.75180073  1
  Ti  Ti156  1  0.60611810  0.58928909  0.73266769  1
  Ti  Ti157  1  0.69577200  0.30528329  0.61356085  1
  Ti  Ti158  1  0.30126957  0.69390061  0.36954973  1
  Ti  Ti159  1  0.29123595  0.08826667  0.13506853  1
  Mo  Mo160  1  0.29817769  0.50714695  0.36548515  1
  Mo  Mo161  1  0.80859345  0.00548417  -0.01418670  1
  Mo  Mo162  1  0.27286644  0.31102129  0.37551192  1
  Mo  Mo163  1  0.50944561  0.10874794  0.62377945  1
  Mo  Mo164  1  -0.00896767  0.20195624  0.74824115  1
  Mo  Mo165  1  0.90539087  0.90602077  0.11868944  1
  Mo  Mo166  1  0.70268379  0.49578624  0.63260834  1
  Mo  Mo167  1  0.20265177  0.39326921  0.49628711  1
  Mo  Mo168  1  0.39954646  0.38986944  0.74412926  1
  Mo  Mo169  1  -0.00926636  0.60024599  0.50320271  1
  Mo  Mo170  1  0.19891181  0.80344329  0.26680341  1
  Mo  Mo171  1  -0.00301455  -0.00207584  0.73751805  1
  Mo  Mo172  1  0.90175307  0.69524728  0.87711482  1
  Mo  Mo173  1  -0.00811786  0.38729684  0.24183828  1
  Mo  Mo174  1  0.81078676  0.00903911  0.50468798  1
  Mo  Mo175  1  0.69150351  0.50633571  0.12815619  1
  Mo  Mo176  1  0.48820694  0.48527229  0.62851459  1
  Mo  Mo177  1  0.79975936  0.01075624  0.25496986  1
  Mo  Mo178  1  0.89658266  0.49077886  0.11351656  1
  Mo  Mo179  1  -0.00860657  0.19344874  0.50842912  1
  Mo  Mo180  1  0.59907162  0.39822514  0.50757291  1
  Mo  Mo181  1  0.59829510  0.40141538  0.24816652  1
  Mo  Mo182  1  0.29351898  0.89497474  0.37133967  1
  Mo  Mo183  1  0.61262869  0.20636785  0.50625246  1
  Mo  Mo184  1  0.89461646  0.70625747  0.12316779  1
  Mo  Mo185  1  0.10154596  0.90058506  0.36887527  1
  Mo  Mo186  1  0.71785765  0.71028068  0.88076450  1
  Mo  Mo187  1  0.09642858  0.89396932  0.87357923  1
  Mo  Mo188  1  0.59049144  0.20657838  -0.00425433  1
  Mo  Mo189  1  0.19758521  0.59880113  -0.00582839  1
  Mo  Mo190  1  0.60280394  0.01276580  0.50790426  1
  Mo  Mo191  1  0.09519430  0.09234668  0.36598955  1
  Mo  Mo192  1  0.10797406  0.69004996  0.12509906  1
  Mo  Mo193  1  0.88505417  0.30647186  0.38065322  1
  Mo  Mo194  1  0.21146058  -0.01052395  0.26065125  1
  Mo  Mo195  1  0.90188061  0.30540849  0.87762669  1
  Mo  Mo196  1  0.31332193  0.91336042  0.11877593  1
  Mo  Mo197  1  0.10489209  0.48604899  0.11347962  1
  Mo  Mo198  1  0.80437416  0.59610080  0.49449500  1
  Mo  Mo199  1  0.39950136  0.00009042  0.50652359  1
