# generated using pymatgen
data_HfZrTaTiMo
_symmetry_space_group_name_H-M   'P 1'
_cell_length_a   15.20020886
_cell_length_b   15.20490031
_cell_length_c   16.85612159
_cell_angle_alpha   89.97747373
_cell_angle_beta   89.98974917
_cell_angle_gamma   89.95920937
_symmetry_Int_Tables_number   1
_chemical_formula_structural   HfZrTaTiMo
_chemical_formula_sum   'Hf40 Zr40 Ta40 Ti40 Mo40'
_cell_volume   3895.74603288
_cell_formula_units_Z   40
loop_
 _symmetry_equiv_pos_site_id
 _symmetry_equiv_pos_as_xyz
  1  'x, y, z'
loop_
 _atom_site_type_symbol
 _atom_site_label
 _atom_site_symmetry_multiplicity
 _atom_site_fract_x
 _atom_site_fract_y
 _atom_site_fract_z
 _atom_site_occupancy
  Hf  Hf0  1  0.81082380  0.38169729  0.73780494  1
  Hf  Hf1  1  0.31075182  0.69817753  0.38225958  1
  Hf  Hf2  1  0.51834161  0.70167377  0.88853831  1
  Hf  Hf3  1  0.90138486  0.11408404  0.11114366  1
  Hf  Hf4  1  0.70993389  0.49245831  0.13736705  1
  Hf  Hf5  1  0.90773181  0.50732643  0.85929664  1
  Hf  Hf6  1  0.20295870  0.40444052  0.49801000  1
  Hf  Hf7  1  0.88633309  0.10058156  0.88936959  1
  Hf  Hf8  1  -0.01148360  0.20807538  0.25709541  1
  Hf  Hf9  1  0.32589540  0.91055482  0.62509851  1
  Hf  Hf10  1  0.11829777  0.69569591  0.11460545  1
  Hf  Hf11  1  0.19011260  0.19457706  0.25546102  1
  Hf  Hf12  1  0.50389140  0.89693538  0.13529604  1
  Hf  Hf13  1  0.30587547  0.70832593  0.87987230  1
  Hf  Hf14  1  0.09021344  0.11099289  0.62822187  1
  Hf  Hf15  1  0.89481397  0.90532017  0.12937550  1
  Hf  Hf16  1  0.48801167  0.08142920  0.62323226  1
  Hf  Hf17  1  0.40348857  0.59681506  0.75551690  1
  Hf  Hf18  1  0.42477826  0.81305504  0.75381709  1
  Hf  Hf19  1  0.50350687  0.49448185  0.63426961  1
  Hf  Hf20  1  0.21289615  0.01528506  -0.00051864  1
  Hf  Hf21  1  -0.02367816  0.41204603  0.26243485  1
  Hf  Hf22  1  0.39511891  0.17360752  -0.00324431  1
  Hf  Hf23  1  0.70296386  0.07471737  0.61360900  1
  Hf  Hf24  1  0.59409875  0.17979858  0.48376767  1
  Hf  Hf25  1  0.19492493  0.80684906  0.74646358  1
  Hf  Hf26  1  0.27365430  0.51182040  0.11048755  1
  Hf  Hf27  1  0.50652434  0.67953580  0.38014707  1
  Hf  Hf28  1  0.19135461  0.00195792  0.50649494  1
  Hf  Hf29  1  0.60308469  0.37628167  0.00725762  1
  Hf  Hf30  1  0.40628956  0.19171921  0.26874075  1
  Hf  Hf31  1  0.20741809  0.01108471  0.74553536  1
  Hf  Hf32  1  0.70478116  0.28023765  0.61544800  1
  Hf  Hf33  1  0.39067953  0.78830499  0.23993288  1
  Hf  Hf34  1  0.90809541  0.70402564  0.12352987  1
  Hf  Hf35  1  0.50982202  0.70560053  0.61615855  1
  Hf  Hf36  1  0.60161654  0.38572400  0.24383728  1
  Hf  Hf37  1  0.19983195  0.80403166  0.51521978  1
  Hf  Hf38  1  0.20217020  0.41353515  0.75231818  1
  Hf  Hf39  1  -0.00188611  0.82359289  0.48352219  1
  Zr  Zr40  1  0.19727125  0.19967365  0.48983387  1
  Zr  Zr41  1  0.01233845  0.61125026  0.25954821  1
  Zr  Zr42  1  0.30440492  0.69723079  0.62703017  1
  Zr  Zr43  1  0.49716617  0.08751262  0.13622031  1
  Zr  Zr44  1  0.71376284  0.69785151  0.89097506  1
  Zr  Zr45  1  0.38860919  0.38830486  0.00083215  1
  Zr  Zr46  1  0.79849621  0.41171573  0.51538475  1
  Zr  Zr47  1  0.00636793  0.81605769  0.26157506  1
  Zr  Zr48  1  0.69707835  0.49585886  0.86109356  1
  Zr  Zr49  1  0.89838498  0.73401274  0.62290034  1
  Zr  Zr50  1  0.49841521  0.28136863  0.87246823  1
  Zr  Zr51  1  0.69436543  0.49629922  0.37097921  1
  Zr  Zr52  1  0.10776600  0.51108860  0.37981528  1
  Zr  Zr53  1  0.78587337  -0.00703191  -0.00149189  1
  Zr  Zr54  1  0.00355098  0.41454180  0.00588968  1
  Zr  Zr55  1  0.20212911  0.81747343  -0.00140291  1
  Zr  Zr56  1  0.10406689  0.52000647  0.62449651  1
  Zr  Zr57  1  0.08756351  0.11077686  0.87563336  1
  Zr  Zr58  1  0.29850579  0.29139415  0.13086304  1
  Zr  Zr59  1  0.70966908  0.70604365  0.11875144  1
  Zr  Zr60  1  0.19610967  0.22206172  -0.00968219  1
  Zr  Zr61  1  0.79118613  0.61474977  0.73159667  1
  Zr  Zr62  1  0.18954531  0.40963920  0.25262714  1
  Zr  Zr63  1  0.80841465  0.59936611  0.26278038  1
  Zr  Zr64  1  0.60416109  0.77897321  0.25492742  1
  Zr  Zr65  1  0.49534177  0.28323895  0.62233903  1
  Zr  Zr66  1  0.50055606  0.49375421  0.87416572  1
  Zr  Zr67  1  0.79263541  0.40631670  -0.00527019  1
  Zr  Zr68  1  0.90047095  0.29373739  0.88794436  1
  Zr  Zr69  1  0.49401496  0.06885363  0.87035553  1
  Zr  Zr70  1  0.39828327  0.39956361  0.24470965  1
  Zr  Zr71  1  0.59485891  -0.02950791  0.74305717  1
  Zr  Zr72  1  0.60758493  0.18943789  0.27447327  1
  Zr  Zr73  1  -0.00380525  0.61673263  0.49732149  1
  Zr  Zr74  1  0.69719875  0.10321200  0.12927438  1
  Zr  Zr75  1  0.08703235  0.31472972  0.62707727  1
  Zr  Zr76  1  0.39906026  0.39441242  0.49563908  1
  Zr  Zr77  1  0.20332301  0.21162755  0.75943529  1
  Zr  Zr78  1  0.08578102  0.30861369  0.12464719  1
  Zr  Zr79  1  0.40277929  -0.00343479  0.48392953  1
  Ta  Ta80  1  0.80378730  0.80877593  0.26991125  1
  Ta  Ta81  1  0.20706352  0.60625193  0.50163131  1
  Ta  Ta82  1  0.00983992  -0.00479461  0.00418326  1
  Ta  Ta83  1  0.29134730  0.08234934  0.36191513  1
  Ta  Ta84  1  0.09192942  0.32242778  0.86962768  1
  Ta  Ta85  1  0.87408077  0.30667168  0.12462918  1
  Ta  Ta86  1  0.60790861  0.58502053  0.00948011  1
  Ta  Ta87  1  0.69983940  0.27645641  0.86923956  1
  Ta  Ta88  1  0.31846448  0.91954018  0.87237950  1
  Ta  Ta89  1  0.60440952  0.18153044  0.74742315  1
  Ta  Ta90  1  0.40470165  0.59205575  0.50406813  1
  Ta  Ta91  1  0.60415817  0.38563556  0.74341017  1
  Ta  Ta92  1  0.39337661  0.38523943  0.75338962  1
  Ta  Ta93  1  0.79715425  -0.01587982  0.75766166  1
  Ta  Ta94  1  0.81630014  0.59760408  0.00157768  1
  Ta  Ta95  1  -0.01431891  0.01393579  0.49762136  1
  Ta  Ta96  1  0.39774393  0.60218954  0.00446245  1
  Ta  Ta97  1  0.79795430  0.17812937  0.74905866  1
  Ta  Ta98  1  0.40722956  0.59687092  0.23365270  1
  Ta  Ta99  1  0.28375110  0.88881107  0.37156749  1
  Ta  Ta100  1  -0.00180594  0.01392024  0.24457338  1
  Ta  Ta101  1  0.90666011  0.70825482  0.87699341  1
  Ta  Ta102  1  0.50557598  0.69257051  0.11233954  1
  Ta  Ta103  1  0.30023073  0.29132793  0.62471271  1
  Ta  Ta104  1  0.18769729  -0.01155268  0.24380439  1
  Ta  Ta105  1  0.68899091  0.88898309  0.88236095  1
  Ta  Ta106  1  0.20025242  0.61126753  0.75919520  1
  Ta  Ta107  1  -0.01614796  0.01079952  0.75052098  1
  Ta  Ta108  1  -0.01696955  0.21624192  0.74707571  1
  Ta  Ta109  1  0.11760037  0.71973550  0.37654997  1
  Ta  Ta110  1  0.07770385  0.90528415  0.63222453  1
  Ta  Ta111  1  0.49086010  0.88613256  0.36720893  1
  Ta  Ta112  1  0.19827801  0.79909768  0.24028297  1
  Ta  Ta113  1  0.62691571  0.77674935  0.74315894  1
  Ta  Ta114  1  -0.01376364  0.20712783  0.49344843  1
  Ta  Ta115  1  0.79858547  0.81432606  0.47800543  1
  Ta  Ta116  1  -0.00827961  0.40783094  0.49230357  1
  Ta  Ta117  1  0.09544625  0.71079546  0.87759479  1
  Ta  Ta118  1  0.00824457  0.62210815  0.74427139  1
  Ta  Ta119  1  0.60949538  -0.02311005  0.48520663  1
  Ti  Ti120  1  0.31064576  0.50582766  0.37204531  1
  Ti  Ti121  1  0.30455334  0.08965835  0.14424332  1
  Ti  Ti122  1  0.10190109  0.10254193  0.11937257  1
  Ti  Ti123  1  -0.01184776  0.81694412  0.75327087  1
  Ti  Ti124  1  0.00015196  0.80777898  0.00066794  1
  Ti  Ti125  1  0.79715611  0.20403958  0.25783573  1
  Ti  Ti126  1  0.00911782  0.60562976  -0.00121739  1
  Ti  Ti127  1  0.29869719  0.90288132  0.12779044  1
  Ti  Ti128  1  0.10037351  0.51681579  0.87065641  1
  Ti  Ti129  1  0.41004637  0.81120421  0.00387601  1
  Ti  Ti130  1  0.38993356  0.19074761  0.48449010  1
  Ti  Ti131  1  0.88489508  0.30653108  0.38300577  1
  Ti  Ti132  1  0.80173874  0.60926953  0.50618197  1
  Ti  Ti133  1  0.49948441  0.49377100  0.11992581  1
  Ti  Ti134  1  0.29508806  0.30200580  0.36983606  1
  Ti  Ti135  1  0.89108098  0.10726142  0.62168746  1
  Ti  Ti136  1  0.50724425  0.27736146  0.12274297  1
  Ti  Ti137  1  0.91046665  0.49810206  0.63407681  1
  Ti  Ti138  1  0.89081265  0.93334162  0.36419664  1
  Ti  Ti139  1  0.61297046  0.58704142  0.51202843  1
  Ti  Ti140  1  0.09419457  0.90808055  0.86826975  1
  Ti  Ti141  1  0.50066023  0.49524001  0.37038966  1
  Ti  Ti142  1  0.60870508  -0.00931447  0.27125099  1
  Ti  Ti143  1  0.69986424  0.90035711  0.13386447  1
  Ti  Ti144  1  0.39001492  0.18231024  0.75331121  1
  Ti  Ti145  1  0.71412927  0.87777200  0.61778272  1
  Ti  Ti146  1  0.21523423  0.61266267  0.24974070  1
  Ti  Ti147  1  0.50108920  0.30287901  0.38161144  1
  Ti  Ti148  1  0.90629177  0.50469034  0.12826300  1
  Ti  Ti149  1  0.09174958  0.30294156  0.37746105  1
  Ti  Ti150  1  0.72750857  0.08191655  0.38218897  1
  Ti  Ti151  1  0.70496417  0.69321782  0.38247712  1
  Ti  Ti152  1  0.89709293  0.89397794  0.88327551  1
  Ti  Ti153  1  0.70328280  0.29840204  0.39003153  1
  Ti  Ti154  1  0.59859562  0.39931938  0.50713925  1
  Ti  Ti155  1  0.29407924  0.49890766  0.88450075  1
  Ti  Ti156  1  0.60204019  0.79445047  0.49045532  1
  Ti  Ti157  1  0.58566203  -0.00946240  -0.00051411  1
  Ti  Ti158  1  0.08844201  0.09203862  0.37454072  1
  Ti  Ti159  1  0.30409703  0.49749300  0.62708015  1
  Mo  Mo160  1  0.69805898  0.89518415  0.36891652  1
  Mo  Mo161  1  0.89333948  0.50491605  0.38830332  1
  Mo  Mo162  1  0.80160474  0.00716888  0.24680655  1
  Mo  Mo163  1  0.89724668  0.70967510  0.38080905  1
  Mo  Mo164  1  0.69152358  0.09351703  0.87252441  1
  Mo  Mo165  1  0.00026594  0.41257505  0.75243912  1
  Mo  Mo166  1  0.60897601  0.80452802  0.01307526  1
  Mo  Mo167  1  0.31063516  0.70536646  0.11160571  1
  Mo  Mo168  1  0.58772886  0.58875030  0.23947547  1
  Mo  Mo169  1  0.77866854  0.20671253  0.00206017  1
  Mo  Mo170  1  0.39380089  -0.01495220  0.00898631  1
  Mo  Mo171  1  0.60263736  0.59657214  0.74080626  1
  Mo  Mo172  1  0.19247755  0.41443831  -0.01443043  1
  Mo  Mo173  1  0.09760199  0.71645606  0.63180576  1
  Mo  Mo174  1  0.69857269  0.28958198  0.12875077  1
  Mo  Mo175  1  0.30192142  0.11329730  0.61878046  1
  Mo  Mo176  1  0.39998281  -0.00279440  0.74410945  1
  Mo  Mo177  1  0.50461213  0.88132664  0.88216880  1
  Mo  Mo178  1  0.09807901  0.91028905  0.12232648  1
  Mo  Mo179  1  0.19647736  0.60547505  -0.01948098  1
  Mo  Mo180  1  0.30105138  0.30747182  0.87078751  1
  Mo  Mo181  1  0.80403437  0.19369513  0.49401393  1
  Mo  Mo182  1  0.80448584  -0.00415601  0.49949455  1
  Mo  Mo183  1  0.70288897  0.70188745  0.60306552  1
  Mo  Mo184  1  0.10567047  0.91635103  0.37486650  1
  Mo  Mo185  1  0.81186556  0.80016911  0.00132067  1
  Mo  Mo186  1  0.90335646  0.29332202  0.62057747  1
  Mo  Mo187  1  0.30230720  0.10427905  0.87422933  1
  Mo  Mo188  1  -0.00350893  0.20041213  0.00519268  1
  Mo  Mo189  1  0.80121417  0.81104647  0.75522585  1
  Mo  Mo190  1  0.52450985  0.89328243  0.61211892  1
  Mo  Mo191  1  0.39278779  -0.01261050  0.26387102  1
  Mo  Mo192  1  0.79878042  0.38663623  0.25901059  1
  Mo  Mo193  1  0.89218526  0.92397548  0.62235689  1
  Mo  Mo194  1  0.09037737  0.51204878  0.12676696  1
  Mo  Mo195  1  0.90007957  0.11213425  0.37238024  1
  Mo  Mo196  1  0.41123673  0.79859205  0.49267504  1
  Mo  Mo197  1  0.69543984  0.49721106  0.63403399  1
  Mo  Mo198  1  0.60506097  0.18362140  -0.00486526  1
  Mo  Mo199  1  0.50172582  0.08523916  0.37494624  1
