# generated using pymatgen
data_HfZrTaTiMo
_symmetry_space_group_name_H-M   'P 1'
_cell_length_a   15.18483537
_cell_length_b   15.18551095
_cell_length_c   16.82077165
_cell_angle_alpha   89.93122468
_cell_angle_beta   90.00586803
_cell_angle_gamma   90.01642319
_symmetry_Int_Tables_number   1
_chemical_formula_structural   HfZrTaTiMo
_chemical_formula_sum   'Hf40 Zr40 Ta40 Ti40 Mo40'
_cell_volume   3878.69007904
_cell_formula_units_Z   40
loop_
 _symmetry_equiv_pos_site_id
 _symmetry_equiv_pos_as_xyz
  1  'x, y, z'
loop_
 _atom_site_type_symbol
 _atom_site_label
 _atom_site_symmetry_multiplicity
 _atom_site_fract_x
 _atom_site_fract_y
 _atom_site_fract_z
 _atom_site_occupancy
  Hf  Hf0  1  0.00986011  0.21663002  0.49518592  1
  Hf  Hf1  1  0.39414261  0.39296634  0.76046067  1
  Hf  Hf2  1  0.59992105  0.78884753  0.49629571  1
  Hf  Hf3  1  0.50106553  0.69551385  0.12042663  1
  Hf  Hf4  1  0.89402849  0.68508619  0.13081530  1
  Hf  Hf5  1  0.28640956  0.70583363  0.87912007  1
  Hf  Hf6  1  -0.00147346  0.01567025  0.76673122  1
  Hf  Hf7  1  0.39198446  0.81051622  0.23994757  1
  Hf  Hf8  1  -0.00583566  0.59222537  0.00143377  1
  Hf  Hf9  1  0.71106441  0.29110633  0.87514981  1
  Hf  Hf10  1  0.31718155  0.90829039  0.87162468  1
  Hf  Hf11  1  0.38850758  0.37836305  0.00028160  1
  Hf  Hf12  1  0.60470921  0.38113538  -0.00134844  1
  Hf  Hf13  1  0.50362030  0.09088295  0.14052235  1
  Hf  Hf14  1  0.51434152  0.48426074  0.37796778  1
  Hf  Hf15  1  0.80071280  0.01114616  0.25642767  1
  Hf  Hf16  1  0.39782256  0.00309464  0.27433987  1
  Hf  Hf17  1  0.19141106  0.40885655  0.02528957  1
  Hf  Hf18  1  0.49258873  0.48882482  0.61078690  1
  Hf  Hf19  1  0.41048787  0.81042039  0.74539191  1
  Hf  Hf20  1  0.00214392  0.00525094  -0.01813182  1
  Hf  Hf21  1  0.29074197  0.69392822  0.62321525  1
  Hf  Hf22  1  0.11084248  0.31917050  0.88034741  1
  Hf  Hf23  1  0.49726242  0.48692901  0.11726982  1
  Hf  Hf24  1  0.49638839  0.69543461  0.36454827  1
  Hf  Hf25  1  0.59863353  0.39561589  0.75851018  1
  Hf  Hf26  1  0.90604943  0.71080092  0.36085212  1
  Hf  Hf27  1  0.08979419  0.71014860  0.14347497  1
  Hf  Hf28  1  0.60871182  0.18576773  0.74239240  1
  Hf  Hf29  1  0.80501061  0.40047494  0.74874420  1
  Hf  Hf30  1  0.81399974  -0.01247623  0.49455850  1
  Hf  Hf31  1  0.38595682  0.60103774  0.24146932  1
  Hf  Hf32  1  0.38140865  0.59735137  0.00973897  1
  Hf  Hf33  1  0.18666648  0.60927348  0.01248525  1
  Hf  Hf34  1  0.69483704  0.88742283  0.88232180  1
  Hf  Hf35  1  0.01077945  0.80042545  -0.00946178  1
  Hf  Hf36  1  0.90072453  0.10950455  0.13097542  1
  Hf  Hf37  1  0.79478460  0.61452098  0.76156999  1
  Hf  Hf38  1  0.39259698  0.59886908  0.48612235  1
  Hf  Hf39  1  0.19312936  0.40080637  0.74565404  1
  Zr  Zr40  1  0.49507540  0.71247019  0.89008870  1
  Zr  Zr41  1  -0.02304640  0.81272913  0.76624667  1
  Zr  Zr42  1  0.38788046  0.59255319  0.75850114  1
  Zr  Zr43  1  0.00673091  0.21132081  0.25360084  1
  Zr  Zr44  1  0.80043790  -0.01539485  0.75671266  1
  Zr  Zr45  1  0.90836118  0.52293410  0.63117866  1
  Zr  Zr46  1  0.40478345  0.39836099  0.24994034  1
  Zr  Zr47  1  0.80165933  0.00578741  -0.00543859  1
  Zr  Zr48  1  0.30281919  0.09444057  0.13245624  1
  Zr  Zr49  1  0.59155561  0.59582320  0.75892111  1
  Zr  Zr50  1  0.79862623  0.80627008  0.23266642  1
  Zr  Zr51  1  0.92150184  0.90093153  0.12295860  1
  Zr  Zr52  1  0.60388472  0.18589943  0.50604352  1
  Zr  Zr53  1  0.11405391  0.10749703  0.61759565  1
  Zr  Zr54  1  0.69956436  0.49590789  0.62027113  1
  Zr  Zr55  1  0.17995782  0.59158384  0.49654383  1
  Zr  Zr56  1  0.28282486  0.49084165  0.37051027  1
  Zr  Zr57  1  0.69698061  0.11244368  0.12574355  1
  Zr  Zr58  1  0.69908283  0.49953343  0.11875306  1
  Zr  Zr59  1  0.00705829  0.42407541  0.49662007  1
  Zr  Zr60  1  0.49769105  0.08369879  0.62407990  1
  Zr  Zr61  1  0.21886431  0.20974112  0.00643381  1
  Zr  Zr62  1  0.70258621  0.68557391  0.36300700  1
  Zr  Zr63  1  0.70637546  0.89113901  0.37249708  1
  Zr  Zr64  1  0.49165727  0.27119425  0.87509547  1
  Zr  Zr65  1  0.70057326  0.30488859  0.38471356  1
  Zr  Zr66  1  0.49491519  0.69210783  0.61924322  1
  Zr  Zr67  1  0.10972168  0.11987901  0.86826491  1
  Zr  Zr68  1  0.20493479  -0.00212409  -0.00414986  1
  Zr  Zr69  1  0.19217513  0.80481803  0.74196781  1
  Zr  Zr70  1  0.49994669  0.29571622  0.61669095  1
  Zr  Zr71  1  0.88785342  0.72744805  0.62233417  1
  Zr  Zr72  1  0.49929626  0.27464717  0.36979281  1
  Zr  Zr73  1  0.29695329  0.29867986  0.61737975  1
  Zr  Zr74  1  0.00927276  0.20633573  0.01434816  1
  Zr  Zr75  1  0.91443361  0.29691173  0.86867629  1
  Zr  Zr76  1  0.91391066  0.09277319  0.61575199  1
  Zr  Zr77  1  0.00964762  -0.00146097  0.26538732  1
  Zr  Zr78  1  0.17714606  0.79540825  0.50427215  1
  Zr  Zr79  1  0.29717867  0.91033563  0.61555256  1
  Ta  Ta80  1  0.40424203  0.00272448  0.47874969  1
  Ta  Ta81  1  0.60792945  0.58689383  0.49310393  1
  Ta  Ta82  1  0.20969052  0.21188004  0.48646929  1
  Ta  Ta83  1  0.71054339  0.29389589  0.62099319  1
  Ta  Ta84  1  0.90972621  0.31045669  0.62631681  1
  Ta  Ta85  1  0.90134213  0.32182494  0.37515490  1
  Ta  Ta86  1  0.51314732  0.28033484  0.13393627  1
  Ta  Ta87  1  0.88965294  0.48523599  0.14189885  1
  Ta  Ta88  1  0.08446244  0.50338132  0.14708134  1
  Ta  Ta89  1  0.60525989  -0.00985503  0.49414351  1
  Ta  Ta90  1  -0.00958769  0.39989592  0.01713630  1
  Ta  Ta91  1  0.70949956  0.88621558  0.62194540  1
  Ta  Ta92  1  0.81322260  0.19000295  0.74266793  1
  Ta  Ta93  1  0.19777381  0.81344278  0.24227661  1
  Ta  Ta94  1  0.20464166  -0.00215364  0.26893915  1
  Ta  Ta95  1  0.08161391  0.51056349  0.35046122  1
  Ta  Ta96  1  0.39415089  0.81795213  0.02019709  1
  Ta  Ta97  1  0.50571668  0.89482941  0.61326831  1
  Ta  Ta98  1  0.90077425  0.11088580  0.38275211  1
  Ta  Ta99  1  0.61093805  0.79404383  0.74832979  1
  Ta  Ta100  1  0.38999383  0.80327254  0.48904469  1
  Ta  Ta101  1  0.41417868  0.00737123  0.00025507  1
  Ta  Ta102  1  0.80123638  0.79905976  0.00925720  1
  Ta  Ta103  1  0.29366780  0.49369358  0.61356734  1
  Ta  Ta104  1  0.30561091  0.10129440  0.60765288  1
  Ta  Ta105  1  0.69429209  0.69516695  0.11223563  1
  Ta  Ta106  1  0.32194772  0.11362055  0.87567559  1
  Ta  Ta107  1  0.28365784  0.49212894  0.88225804  1
  Ta  Ta108  1  0.69733885  0.69512417  0.61826840  1
  Ta  Ta109  1  0.70224592  0.49744973  0.88843901  1
  Ta  Ta110  1  0.31158932  0.29429889  0.14207096  1
  Ta  Ta111  1  0.59572911  0.80159470  0.23569727  1
  Ta  Ta112  1  0.07544695  0.91089362  0.62266152  1
  Ta  Ta113  1  0.49663083  0.49713675  0.89333208  1
  Ta  Ta114  1  0.21398155  0.01181368  0.74869068  1
  Ta  Ta115  1  0.69318219  0.69301428  0.90117550  1
  Ta  Ta116  1  0.07894898  0.69525941  0.63659091  1
  Ta  Ta117  1  0.69765541  0.09833242  0.87319513  1
  Ta  Ta118  1  0.27906261  0.70788402  0.36614422  1
  Ta  Ta119  1  0.80913679  0.20392405  0.50389721  1
  Ti  Ti120  1  0.59977546  0.59100270  0.24553747  1
  Ti  Ti121  1  0.59175533  0.18200490  -0.00511148  1
  Ti  Ti122  1  0.80723325  0.20981917  -0.00022930  1
  Ti  Ti123  1  0.59464337  -0.00547924  -0.00338450  1
  Ti  Ti124  1  0.61367984  0.38695262  0.24427507  1
  Ti  Ti125  1  0.20722843  0.19497999  0.25666024  1
  Ti  Ti126  1  0.38856005  0.38503835  0.48799132  1
  Ti  Ti127  1  0.09507095  0.88210485  0.37656797  1
  Ti  Ti128  1  0.39839459  0.18402835  0.74401237  1
  Ti  Ti129  1  0.80213556  0.58768604  -0.00194399  1
  Ti  Ti130  1  0.19420956  0.39735372  0.23545699  1
  Ti  Ti131  1  0.29967262  0.29310910  0.36376076  1
  Ti  Ti132  1  0.19207282  0.59583101  0.74864052  1
  Ti  Ti133  1  0.10960543  0.31845008  0.36922361  1
  Ti  Ti134  1  0.70001620  0.10532741  0.37690586  1
  Ti  Ti135  1  0.50327485  0.89228640  0.37633320  1
  Ti  Ti136  1  0.10572189  0.10830807  0.38127417  1
  Ti  Ti137  1  0.10677964  0.09492491  0.13304696  1
  Ti  Ti138  1  0.60259985  -0.00378714  0.26005335  1
  Ti  Ti139  1  0.09747613  0.49994011  0.63120409  1
  Ti  Ti140  1  0.09318169  0.69471877  0.86433688  1
  Ti  Ti141  1  0.71478094  0.49279346  0.37016445  1
  Ti  Ti142  1  -0.02252523  0.82341164  0.49598924  1
  Ti  Ti143  1  0.70924099  0.08574929  0.62294629  1
  Ti  Ti144  1  -0.00155994  0.62478267  0.48811917  1
  Ti  Ti145  1  0.80359858  0.40689085  0.50432658  1
  Ti  Ti146  1  0.21168446  0.20527825  0.74717873  1
  Ti  Ti147  1  0.59224902  0.80874979  0.01395884  1
  Ti  Ti148  1  0.80606405  0.60505919  0.49338569  1
  Ti  Ti149  1  0.09051570  0.50603709  0.87187067  1
  Ti  Ti150  1  0.58878605  -0.01671554  0.75304130  1
  Ti  Ti151  1  0.79975463  0.21526107  0.25729596  1
  Ti  Ti152  1  0.20638937  0.80832008  0.02152860  1
  Ti  Ti153  1  0.01578551  0.22285031  0.73672932  1
  Ti  Ti154  1  0.11280258  0.89848213  0.86917755  1
  Ti  Ti155  1  0.19924004  -0.00115595  0.48219508  1
  Ti  Ti156  1  0.69240803  0.90775682  0.12199760  1
  Ti  Ti157  1  0.90357517  0.49696896  0.87210447  1
  Ti  Ti158  1  0.71974633  0.30357415  0.12459619  1
  Ti  Ti159  1  0.88849103  0.70325708  0.88322082  1
  Mo  Mo160  1  0.10639608  0.29417156  0.13966423  1
  Mo  Mo161  1  0.29283172  0.70711890  0.12623288  1
  Mo  Mo162  1  0.29166091  0.89547068  0.38491244  1
  Mo  Mo163  1  0.41431334  0.19362544  0.00726280  1
  Mo  Mo164  1  0.50470225  0.07907142  0.86825491  1
  Mo  Mo165  1  0.10088235  0.30920127  0.62083930  1
  Mo  Mo166  1  0.61465567  0.19324211  0.25221494  1
  Mo  Mo167  1  0.88863499  0.50788418  0.37199619  1
  Mo  Mo168  1  0.79811103  0.79323334  0.49527202  1
  Mo  Mo169  1  0.78387072  0.79460488  0.76008290  1
  Mo  Mo170  1  0.19280668  0.39763470  0.49307721  1
  Mo  Mo171  1  0.19801205  0.60187428  0.24266370  1
  Mo  Mo172  1  0.40254242  0.19726787  0.25340675  1
  Mo  Mo173  1  -0.01386028  0.60026269  0.25181268  1
  Mo  Mo174  1  0.81111811  0.39971257  -0.00452654  1
  Mo  Mo175  1  0.60719722  0.39710353  0.50063293  1
  Mo  Mo176  1  0.01308477  0.00133025  0.48155670  1
  Mo  Mo177  1  0.11195464  0.91646877  0.12834261  1
  Mo  Mo178  1  0.00105978  0.60520375  0.76128360  1
  Mo  Mo179  1  0.00541995  0.80803243  0.25082666  1
  Mo  Mo180  1  0.59441666  0.59456724  -0.00327005  1
  Mo  Mo181  1  0.28883454  0.49875194  0.13306937  1
  Mo  Mo182  1  0.30097471  0.10771229  0.38158897  1
  Mo  Mo183  1  0.90490681  0.90705467  0.36789435  1
  Mo  Mo184  1  0.50652705  0.90740793  0.13038972  1
  Mo  Mo185  1  0.51427410  0.08723060  0.37199193  1
  Mo  Mo186  1  0.29391499  0.29627277  0.87230407  1
  Mo  Mo187  1  0.79802678  0.39756941  0.25474244  1
  Mo  Mo188  1  0.88954877  0.11385546  0.87364835  1
  Mo  Mo189  1  0.89876347  0.89655187  0.89049389  1
  Mo  Mo190  1  -0.00336402  0.39701077  0.25124853  1
  Mo  Mo191  1  0.50426598  0.90086164  0.87758282  1
  Mo  Mo192  1  0.09964121  0.70110838  0.35567427  1
  Mo  Mo193  1  0.39932130  0.00175279  0.74319567  1
  Mo  Mo194  1  0.89500905  0.30107059  0.13009875  1
  Mo  Mo195  1  0.78820381  0.59624054  0.24703744  1
  Mo  Mo196  1  0.89847922  0.90915112  0.62692258  1
  Mo  Mo197  1  0.30217180  0.91131522  0.12709883  1
  Mo  Mo198  1  0.39605297  0.19167162  0.49111691  1
  Mo  Mo199  1  0.00230924  0.40994424  0.74623299  1
