# generated using pymatgen
data_HfZrTaTiMo
_symmetry_space_group_name_H-M   'P 1'
_cell_length_a   15.17362377
_cell_length_b   15.17627048
_cell_length_c   16.81343697
_cell_angle_alpha   90.11287243
_cell_angle_beta   89.99463189
_cell_angle_gamma   89.87624603
_symmetry_Int_Tables_number   1
_chemical_formula_structural   HfZrTaTiMo
_chemical_formula_sum   'Hf40 Zr40 Ta40 Ti40 Mo40'
_cell_volume   3871.76520103
_cell_formula_units_Z   40
loop_
 _symmetry_equiv_pos_site_id
 _symmetry_equiv_pos_as_xyz
  1  'x, y, z'
loop_
 _atom_site_type_symbol
 _atom_site_label
 _atom_site_symmetry_multiplicity
 _atom_site_fract_x
 _atom_site_fract_y
 _atom_site_fract_z
 _atom_site_occupancy
  Hf  Hf0  1  0.91217103  0.69053432  0.13032173  1
  Hf  Hf1  1  0.29532188  0.49262371  0.13563123  1
  Hf  Hf2  1  0.39664258  0.00706236  0.76437694  1
  Hf  Hf3  1  0.08802547  0.50840612  0.14256562  1
  Hf  Hf4  1  0.71368428  0.08611121  0.87439501  1
  Hf  Hf5  1  0.18721178  0.61738324  0.48780082  1
  Hf  Hf6  1  0.30218456  0.69937194  0.12989545  1
  Hf  Hf7  1  0.61160629  0.78679906  0.50913510  1
  Hf  Hf8  1  0.78911596  0.39249628  -0.00260028  1
  Hf  Hf9  1  0.41101516  0.21914273  0.00298436  1
  Hf  Hf10  1  -0.00622503  0.40419912  0.50036527  1
  Hf  Hf11  1  0.61685549  0.79125366  0.74066452  1
  Hf  Hf12  1  0.10582071  0.89730036  0.36056497  1
  Hf  Hf13  1  0.69993411  0.48800752  0.12871352  1
  Hf  Hf14  1  0.30618774  0.69944929  0.87349486  1
  Hf  Hf15  1  0.81272478  0.19301351  0.75413237  1
  Hf  Hf16  1  0.01198739  0.79531200  0.49163972  1
  Hf  Hf17  1  0.87677268  0.51081664  0.63182483  1
  Hf  Hf18  1  -0.01418737  0.39119098  0.74281506  1
  Hf  Hf19  1  0.89762090  0.30199602  0.12199576  1
  Hf  Hf20  1  0.18791635  0.01258767  -0.00669374  1
  Hf  Hf21  1  0.41423308  0.80268153  0.75928338  1
  Hf  Hf22  1  0.30359672  0.91619382  0.12395122  1
  Hf  Hf23  1  0.19825590  0.80360330  0.00494993  1
  Hf  Hf24  1  0.29898953  0.90702441  0.62932685  1
  Hf  Hf25  1  0.51537797  0.11832472  0.86764303  1
  Hf  Hf26  1  0.78663588  0.20708728  0.24608866  1
  Hf  Hf27  1  0.50965669  0.29055920  0.62181533  1
  Hf  Hf28  1  0.78540241  0.60912691  0.24817930  1
  Hf  Hf29  1  0.08130825  0.90675470  0.87951185  1
  Hf  Hf30  1  0.28957530  0.10772379  0.62223713  1
  Hf  Hf31  1  0.53157226  0.68851579  0.37377743  1
  Hf  Hf32  1  0.59262605  0.00685137  0.50299870  1
  Hf  Hf33  1  0.20776110  0.19917239  -0.00576511  1
  Hf  Hf34  1  0.20696066  0.60120693  0.74490410  1
  Hf  Hf35  1  0.09147647  0.50599564  0.62769412  1
  Hf  Hf36  1  0.89524225  0.89564396  0.37344939  1
  Hf  Hf37  1  0.09359589  0.90738061  0.13517218  1
  Hf  Hf38  1  0.79809478  0.01057975  0.25070606  1
  Hf  Hf39  1  0.92045717  0.89460708  0.62971132  1
  Zr  Zr40  1  0.68765371  0.88450816  0.88183643  1
  Zr  Zr41  1  0.50758115  0.28022645  0.38410016  1
  Zr  Zr42  1  0.69316355  0.89228389  0.38114193  1
  Zr  Zr43  1  0.30499647  0.49765708  0.86883666  1
  Zr  Zr44  1  0.00306362  0.19001854  -0.00226766  1
  Zr  Zr45  1  0.60327561  0.59398899  0.00938952  1
  Zr  Zr46  1  0.59742592  0.36751829  0.23908006  1
  Zr  Zr47  1  0.00058799  0.19837797  0.26066158  1
  Zr  Zr48  1  0.09111753  0.31106934  0.87260899  1
  Zr  Zr49  1  0.89462859  0.30079594  0.38108957  1
  Zr  Zr50  1  0.60347999  0.77612178  0.22439552  1
  Zr  Zr51  1  -0.02110217  0.60630054  0.49238064  1
  Zr  Zr52  1  0.68653183  0.50644481  0.36611771  1
  Zr  Zr53  1  0.40401337  0.58910392  0.00373523  1
  Zr  Zr54  1  0.19921158  0.40441211  0.00105598  1
  Zr  Zr55  1  0.00374021  0.00308105  0.49243841  1
  Zr  Zr56  1  0.40257770  0.17989020  0.49845262  1
  Zr  Zr57  1  0.17780681  0.60294052  0.00108850  1
  Zr  Zr58  1  0.50387714  0.49862730  0.61755960  1
  Zr  Zr59  1  0.69504046  0.11126522  0.63006579  1
  Zr  Zr60  1  0.10714748  0.30537352  0.13233211  1
  Zr  Zr61  1  0.30935004  0.70638420  0.62029134  1
  Zr  Zr62  1  0.19265047  0.20447992  0.75351014  1
  Zr  Zr63  1  0.50469508  0.32903144  0.86566221  1
  Zr  Zr64  1  0.79612434  0.81057599  0.23159684  1
  Zr  Zr65  1  0.30656325  0.30362439  0.86906509  1
  Zr  Zr66  1  0.41351801  0.80792894  -0.00061540  1
  Zr  Zr67  1  0.59774801  -0.01797068  0.23651766  1
  Zr  Zr68  1  0.89552707  0.29041549  0.61632673  1
  Zr  Zr69  1  0.18306946  0.00991576  0.75904130  1
  Zr  Zr70  1  0.39873311  0.01645339  -0.01407782  1
  Zr  Zr71  1  0.49326410  0.48415654  0.37651294  1
  Zr  Zr72  1  0.09208889  0.70473465  0.86187060  1
  Zr  Zr73  1  0.88826252  0.90234971  0.87394317  1
  Zr  Zr74  1  0.10728703  0.29155716  0.60987441  1
  Zr  Zr75  1  0.72076416  0.89966993  0.62153019  1
  Zr  Zr76  1  0.29814871  0.50128291  0.60789186  1
  Zr  Zr77  1  0.32019278  0.72024089  0.37742025  1
  Zr  Zr78  1  0.08710310  0.71763113  0.63873736  1
  Zr  Zr79  1  0.20604042  0.60154798  0.27090027  1
  Ta  Ta80  1  0.90576648  0.09466193  0.12317429  1
  Ta  Ta81  1  0.69015963  0.11026361  0.37667972  1
  Ta  Ta82  1  0.68776939  0.48794295  0.87729841  1
  Ta  Ta83  1  0.51785632  0.70293883  0.87623212  1
  Ta  Ta84  1  0.39563257  -0.01536095  0.49715953  1
  Ta  Ta85  1  0.41352696  0.60643907  0.49210012  1
  Ta  Ta86  1  0.78849712  0.41719170  0.49845644  1
  Ta  Ta87  1  0.60160323  0.79808730  0.02155506  1
  Ta  Ta88  1  0.89316479  0.49884282  0.86880059  1
  Ta  Ta89  1  0.29559113  0.90249780  0.87605132  1
  Ta  Ta90  1  0.08310571  0.51041248  0.85864873  1
  Ta  Ta91  1  0.09751064  0.70602875  0.14804205  1
  Ta  Ta92  1  0.90106170  0.49699447  0.13271963  1
  Ta  Ta93  1  0.69392117  0.28828447  0.86989122  1
  Ta  Ta94  1  0.90406717  0.69326658  0.88155562  1
  Ta  Ta95  1  -0.00131567  0.79296445  0.00763664  1
  Ta  Ta96  1  0.59839994  0.59540787  0.75357907  1
  Ta  Ta97  1  0.20407599  0.01280303  0.49001090  1
  Ta  Ta98  1  0.20480825  0.01537040  0.25561463  1
  Ta  Ta99  1  0.29995438  0.11476874  0.13339324  1
  Ta  Ta100  1  0.20116097  0.81264337  0.75168372  1
  Ta  Ta101  1  0.59916452  -0.00649543  0.74879176  1
  Ta  Ta102  1  0.49799265  0.08048892  0.36629977  1
  Ta  Ta103  1  0.71445032  0.67539348  0.62037495  1
  Ta  Ta104  1  0.50591385  0.69501166  0.62266375  1
  Ta  Ta105  1  0.89336417  0.29547050  0.87718046  1
  Ta  Ta106  1  0.10378005  0.10238163  0.13688142  1
  Ta  Ta107  1  0.21380829  0.20825978  0.26374390  1
  Ta  Ta108  1  0.49156990  0.88443724  0.37740660  1
  Ta  Ta109  1  0.49758557  0.10352000  0.12917362  1
  Ta  Ta110  1  0.41301378  0.60104377  0.25209675  1
  Ta  Ta111  1  0.49967691  0.89736810  0.62307743  1
  Ta  Ta112  1  0.80036129  0.79239871  0.01251484  1
  Ta  Ta113  1  0.30417940  0.30826437  0.60743707  1
  Ta  Ta114  1  0.40025226  0.20872870  0.74312415  1
  Ta  Ta115  1  0.20806116  0.82176997  0.49782582  1
  Ta  Ta116  1  0.70079263  0.09985445  0.11616159  1
  Ta  Ta117  1  0.21138591  0.80929242  0.24891871  1
  Ta  Ta118  1  0.81802650  0.77879385  0.74894053  1
  Ta  Ta119  1  0.09086464  0.49980931  0.37241292  1
  Ti  Ti120  1  0.81173026  0.59105388  0.00144639  1
  Ti  Ti121  1  0.79134253  0.19985051  0.49601509  1
  Ti  Ti122  1  0.60631036  0.20376030  0.00902949  1
  Ti  Ti123  1  0.90541566  0.90344382  0.12491646  1
  Ti  Ti124  1  0.70694321  0.30846813  0.62826311  1
  Ti  Ti125  1  0.49639649  0.09447066  0.63528497  1
  Ti  Ti126  1  0.39914763  0.00083415  0.24834814  1
  Ti  Ti127  1  0.39982195  0.41477528  0.73875609  1
  Ti  Ti128  1  0.80200695  0.00655407  0.48968000  1
  Ti  Ti129  1  0.80635774  -0.00276509  0.00797861  1
  Ti  Ti130  1  0.38779397  0.38944882  0.26085821  1
  Ti  Ti131  1  -0.00553026  0.00723704  0.25921042  1
  Ti  Ti132  1  0.20046909  0.39566753  0.26866398  1
  Ti  Ti133  1  0.90433177  0.70264400  0.35908631  1
  Ti  Ti134  1  -0.00628073  0.41912393  -0.00443318  1
  Ti  Ti135  1  0.30777632  0.91379588  0.36919511  1
  Ti  Ti136  1  0.59288240  -0.00499305  0.00643197  1
  Ti  Ti137  1  0.10668080  0.30318691  0.38859804  1
  Ti  Ti138  1  0.29843158  0.29875334  0.39718086  1
  Ti  Ti139  1  0.80083561  0.39773916  0.25064147  1
  Ti  Ti140  1  0.71079298  0.68918107  0.88477715  1
  Ti  Ti141  1  0.08694684  0.09524340  0.62040589  1
  Ti  Ti142  1  -0.00341511  0.40067066  0.26066583  1
  Ti  Ti143  1  0.20086845  0.40095368  0.74151926  1
  Ti  Ti144  1  0.29882647  0.49321050  0.39174984  1
  Ti  Ti145  1  -0.00445957  0.18957956  0.48945068  1
  Ti  Ti146  1  0.80013133  0.19362766  -0.00167663  1
  Ti  Ti147  1  0.60493764  0.39522568  0.50457921  1
  Ti  Ti148  1  0.48974353  0.48601097  0.13703343  1
  Ti  Ti149  1  0.41255112  0.80634043  0.23673630  1
  Ti  Ti150  1  0.40670180  0.19931290  0.25498279  1
  Ti  Ti151  1  0.58164931  0.39054711  0.01103652  1
  Ti  Ti152  1  0.69785024  0.30194721  0.38183377  1
  Ti  Ti153  1  0.31002742  0.30257588  0.13136845  1
  Ti  Ti154  1  -0.01778172  0.01705188  0.75284829  1
  Ti  Ti155  1  0.10651297  0.10660753  0.37352308  1
  Ti  Ti156  1  0.61185567  0.40049391  0.74322119  1
  Ti  Ti157  1  0.88954606  0.50420591  0.36771959  1
  Ti  Ti158  1  0.78864595  0.58967720  0.76013611  1
  Ti  Ti159  1  0.89170725  0.09294649  0.62123942  1
  Mo  Mo160  1  0.40408692  0.40623486  0.01155248  1
  Mo  Mo161  1  0.71649618  0.70588791  0.37965579  1
  Mo  Mo162  1  0.49107053  0.29347184  0.13215640  1
  Mo  Mo163  1  0.19269938  0.19536103  0.48963301  1
  Mo  Mo164  1  0.00167735  0.81161947  0.75269243  1
  Mo  Mo165  1  0.70636526  0.90742560  0.10703807  1
  Mo  Mo166  1  0.49545904  0.68923227  0.12661908  1
  Mo  Mo167  1  0.00045531  0.18899407  0.75204380  1
  Mo  Mo168  1  0.40986592  0.80301197  0.50150891  1
  Mo  Mo169  1  0.89391400  0.70320225  0.62576981  1
  Mo  Mo170  1  -0.02326687  0.61000848  0.75001080  1
  Mo  Mo171  1  0.70932141  0.68846811  0.10799403  1
  Mo  Mo172  1  0.79216422  0.60703496  0.48667369  1
  Mo  Mo173  1  0.30297789  0.10718932  0.87130765  1
  Mo  Mo174  1  0.49640010  0.90618183  0.12265891  1
  Mo  Mo175  1  0.19598815  0.40473507  0.48800718  1
  Mo  Mo176  1  0.60879438  0.19741374  0.50027040  1
  Mo  Mo177  1  0.60125802  0.20184698  0.74945971  1
  Mo  Mo178  1  0.88902875  0.10019054  0.37985277  1
  Mo  Mo179  1  0.61062727  0.58808309  0.50432320  1
  Mo  Mo180  1  -0.00292958  0.59502039  0.00076429  1
  Mo  Mo181  1  0.69708963  0.49297816  0.62748241  1
  Mo  Mo182  1  0.51004683  0.90199222  0.87408465  1
  Mo  Mo183  1  0.08349227  0.10451770  0.87330622  1
  Mo  Mo184  1  0.59906154  0.17818779  0.24367392  1
  Mo  Mo185  1  0.90293213  0.09550368  0.88245371  1
  Mo  Mo186  1  0.30633166  0.10192769  0.36704287  1
  Mo  Mo187  1  0.00142320  0.80346148  0.24990119  1
  Mo  Mo188  1  0.79557093  -0.01176873  0.74616509  1
  Mo  Mo189  1  0.79031101  0.39578210  0.76342362  1
  Mo  Mo190  1  -0.00679547  0.59601421  0.26480066  1
  Mo  Mo191  1  0.40021414  0.39615134  0.49866909  1
  Mo  Mo192  1  -0.00699098  -0.00453737  0.01102166  1
  Mo  Mo193  1  0.59229380  0.58736830  0.23183478  1
  Mo  Mo194  1  0.11125123  0.91193812  0.62202282  1
  Mo  Mo195  1  0.50285864  0.51045302  0.86471209  1
  Mo  Mo196  1  0.10153115  0.70727643  0.35898275  1
  Mo  Mo197  1  0.81745205  0.78443514  0.49859802  1
  Mo  Mo198  1  0.41542423  0.60529960  0.75209108  1
  Mo  Mo199  1  0.69683051  0.28759902  0.11437366  1
