# generated using pymatgen
data_HfZrTaTiMo
_symmetry_space_group_name_H-M   'P 1'
_cell_length_a   15.20683504
_cell_length_b   15.20564383
_cell_length_c   16.86863555
_cell_angle_alpha   89.97686510
_cell_angle_beta   89.99156667
_cell_angle_gamma   89.90506776
_symmetry_Int_Tables_number   1
_chemical_formula_structural   HfZrTaTiMo
_chemical_formula_sum   'Hf40 Zr40 Ta40 Ti40 Mo40'
_cell_volume   3900.52411670
_cell_formula_units_Z   40
loop_
 _symmetry_equiv_pos_site_id
 _symmetry_equiv_pos_as_xyz
  1  'x, y, z'
loop_
 _atom_site_type_symbol
 _atom_site_label
 _atom_site_symmetry_multiplicity
 _atom_site_fract_x
 _atom_site_fract_y
 _atom_site_fract_z
 _atom_site_occupancy
  Hf  Hf0  1  0.09922337  0.70771253  0.38928940  1
  Hf  Hf1  1  0.10446305  0.69082885  0.11122163  1
  Hf  Hf2  1  0.39537012  0.40697993  0.25182366  1
  Hf  Hf3  1  0.29516097  0.10379448  0.36443227  1
  Hf  Hf4  1  0.50324149  0.10594565  0.35120649  1
  Hf  Hf5  1  0.30363463  0.30058986  0.62221102  1
  Hf  Hf6  1  0.40190620  0.40521580  0.49517332  1
  Hf  Hf7  1  0.70957813  0.29563096  0.36522327  1
  Hf  Hf8  1  0.38281285  0.61170290  -0.01229688  1
  Hf  Hf9  1  0.68623788  0.50733687  0.36893577  1
  Hf  Hf10  1  0.88560773  0.90660210  0.35660599  1
  Hf  Hf11  1  -0.01140629  0.79766514  -0.00596266  1
  Hf  Hf12  1  0.72501493  0.88738591  0.63364752  1
  Hf  Hf13  1  0.02122467  0.39680817  -0.01816007  1
  Hf  Hf14  1  0.28081439  0.89829837  0.38281581  1
  Hf  Hf15  1  0.60012476  0.39352273  0.00603447  1
  Hf  Hf16  1  0.89807193  0.70553756  0.36934446  1
  Hf  Hf17  1  0.79079262  0.60145884  0.24409184  1
  Hf  Hf18  1  0.18328361  0.79991976  0.24409801  1
  Hf  Hf19  1  0.49980628  0.50629422  0.12158998  1
  Hf  Hf20  1  0.69733178  0.90115475  0.88118472  1
  Hf  Hf21  1  0.08439303  0.90294677  0.37653902  1
  Hf  Hf22  1  0.21303178  0.19718217  0.74928896  1
  Hf  Hf23  1  0.39595850  0.39736493  0.75291420  1
  Hf  Hf24  1  0.18413889  0.57826831  -0.01839851  1
  Hf  Hf25  1  0.29704627  0.87952922  0.10929024  1
  Hf  Hf26  1  0.70663313  0.07925013  0.34790182  1
  Hf  Hf27  1  0.50490765  0.30632220  0.36024956  1
  Hf  Hf28  1  0.49179596  0.50065684  0.63353537  1
  Hf  Hf29  1  0.61037378  -0.00763872  0.49095276  1
  Hf  Hf30  1  0.39132452  0.79130911  0.26088703  1
  Hf  Hf31  1  0.09088503  0.69606695  0.86962589  1
  Hf  Hf32  1  0.19665277  -0.00454831  0.74717589  1
  Hf  Hf33  1  0.59768586  0.00330201  0.75221175  1
  Hf  Hf34  1  -0.02680366  0.81028795  0.51345636  1
  Hf  Hf35  1  0.49348879  0.90610892  0.12958822  1
  Hf  Hf36  1  0.30923939  0.08912808  0.89222263  1
  Hf  Hf37  1  0.18605254  0.39705651  0.25595270  1
  Hf  Hf38  1  0.40862328  0.19345709  0.75176285  1
  Hf  Hf39  1  0.00473628  0.18946933  0.75254579  1
  Zr  Zr40  1  0.49779988  0.49888355  0.87575224  1
  Zr  Zr41  1  0.70589611  0.09513744  0.62834303  1
  Zr  Zr42  1  0.19812638  0.21895483  0.00122329  1
  Zr  Zr43  1  0.81361088  0.39876186  0.24688275  1
  Zr  Zr44  1  0.41160261  0.79899983  0.48743713  1
  Zr  Zr45  1  0.29380067  0.51238808  0.12710583  1
  Zr  Zr46  1  0.37298102  0.60607893  0.76265257  1
  Zr  Zr47  1  0.81072880  0.19043771  0.00214613  1
  Zr  Zr48  1  -0.00358124  0.39693418  0.50837960  1
  Zr  Zr49  1  0.81061997  0.19574293  0.50084406  1
  Zr  Zr50  1  0.70718569  0.30231420  0.88101520  1
  Zr  Zr51  1  0.71501232  0.50800227  0.87773135  1
  Zr  Zr52  1  0.10481047  0.90232498  0.88884489  1
  Zr  Zr53  1  0.49675087  0.70305338  0.62987174  1
  Zr  Zr54  1  0.59891599  0.01428260  0.01251648  1
  Zr  Zr55  1  0.20456766  0.58769115  0.50638802  1
  Zr  Zr56  1  0.19419314  0.39324658  0.50308593  1
  Zr  Zr57  1  0.20512674  0.79480564  0.74863814  1
  Zr  Zr58  1  0.09284801  0.10512847  0.88596634  1
  Zr  Zr59  1  0.80227289  0.19037383  0.75697220  1
  Zr  Zr60  1  0.60458553  0.61074022  -0.00438157  1
  Zr  Zr61  1  0.90967187  0.11008099  0.36173857  1
  Zr  Zr62  1  0.61815375  0.79664640  0.49664959  1
  Zr  Zr63  1  -0.00750805  0.59721032  0.51339047  1
  Zr  Zr64  1  0.01087923  0.19691113  0.51002472  1
  Zr  Zr65  1  0.39639361  0.81325012  0.75177064  1
  Zr  Zr66  1  0.79387534  0.40845362  0.50264026  1
  Zr  Zr67  1  0.92639654  0.30175774  0.11881682  1
  Zr  Zr68  1  0.88741448  0.49846576  0.64546207  1
  Zr  Zr69  1  0.60210506  0.59550143  0.50582269  1
  Zr  Zr70  1  0.31482062  0.09480205  0.12564458  1
  Zr  Zr71  1  0.21050505  0.60352021  0.25970357  1
  Zr  Zr72  1  0.09661640  0.11225313  0.12242825  1
  Zr  Zr73  1  0.40201602  0.00442393  0.49060898  1
  Zr  Zr74  1  0.39218829  -0.00017498  0.74466214  1
  Zr  Zr75  1  0.49585274  0.10344582  0.61756859  1
  Zr  Zr76  1  0.09723574  0.70440560  0.62881489  1
  Zr  Zr77  1  0.00481434  0.59827161  0.25095859  1
  Zr  Zr78  1  0.60503513  0.20056405  0.49478098  1
  Zr  Zr79  1  0.60306793  0.79694598  0.75337488  1
  Ta  Ta80  1  0.60655483  0.40101506  0.75033346  1
  Ta  Ta81  1  0.59852041  0.39991137  0.50440968  1
  Ta  Ta82  1  0.18862488  0.00771288  0.50441449  1
  Ta  Ta83  1  0.49531414  0.71721402  0.87874198  1
  Ta  Ta84  1  0.70817044  0.50080405  0.11717987  1
  Ta  Ta85  1  0.49790857  0.29653397  0.13668213  1
  Ta  Ta86  1  0.48526781  0.70406158  0.12318978  1
  Ta  Ta87  1  0.70377544  0.30960704  0.63260562  1
  Ta  Ta88  1  0.40806878  0.59738397  0.48587941  1
  Ta  Ta89  1  0.79758621  0.80008317  0.23844879  1
  Ta  Ta90  1  0.29735279  0.29430678  0.37242166  1
  Ta  Ta91  1  0.59742704  0.78559154  0.24659977  1
  Ta  Ta92  1  -0.01423545  0.01108488  0.01006083  1
  Ta  Ta93  1  0.60042317  0.20556750  0.75352257  1
  Ta  Ta94  1  0.50358716  0.29470042  0.87969494  1
  Ta  Ta95  1  0.41620421  0.20175347  0.00678864  1
  Ta  Ta96  1  0.81759424  0.41126984  0.00306171  1
  Ta  Ta97  1  -0.00846232  0.81701985  0.75068290  1
  Ta  Ta98  1  0.30694031  0.30168151  0.87803566  1
  Ta  Ta99  1  0.89882821  0.29475056  0.64108626  1
  Ta  Ta100  1  0.00398876  -0.00584566  0.23426180  1
  Ta  Ta101  1  0.90597163  0.07627760  0.63290355  1
  Ta  Ta102  1  0.09065928  0.48301553  0.12333438  1
  Ta  Ta103  1  0.29960086  0.30327377  0.12672625  1
  Ta  Ta104  1  0.70324578  0.29814474  0.12713503  1
  Ta  Ta105  1  0.59621064  0.80499954  0.00404017  1
  Ta  Ta106  1  0.39763848  0.20520655  0.49416189  1
  Ta  Ta107  1  0.09551656  0.28934823  0.37494042  1
  Ta  Ta108  1  0.29084660  0.89731664  0.60674549  1
  Ta  Ta109  1  0.39121352  0.39683639  0.00051313  1
  Ta  Ta110  1  0.89795131  0.70040317  0.12380666  1
  Ta  Ta111  1  -0.02234516  0.59042054  -0.01059677  1
  Ta  Ta112  1  0.10450424  0.09660573  0.36375363  1
  Ta  Ta113  1  0.69990949  0.89928424  0.12918485  1
  Ta  Ta114  1  0.79568286  0.61982627  0.51070718  1
  Ta  Ta115  1  0.79320649  0.78589217  -0.00619553  1
  Ta  Ta116  1  0.89522318  0.50112940  0.37871535  1
  Ta  Ta117  1  0.80708937  -0.01676003  0.49633272  1
  Ta  Ta118  1  0.70520212  0.09423856  0.87471353  1
  Ta  Ta119  1  0.80785811  0.78987457  0.76885670  1
  Ti  Ti120  1  0.19847787  -0.00255689  0.00875094  1
  Ti  Ti121  1  0.20395522  0.19398210  0.50193151  1
  Ti  Ti122  1  0.00680567  0.21526791  0.25032658  1
  Ti  Ti123  1  0.50849146  0.29962178  0.62420062  1
  Ti  Ti124  1  0.41920381  0.60421605  0.26827434  1
  Ti  Ti125  1  0.29668672  0.69983346  0.38913619  1
  Ti  Ti126  1  0.11402594  0.31740138  0.85643604  1
  Ti  Ti127  1  -0.01282050  0.61441494  0.74991711  1
  Ti  Ti128  1  0.60640783  0.19926263  0.01094607  1
  Ti  Ti129  1  -0.00591270  0.00832915  0.49859803  1
  Ti  Ti130  1  0.39410920  -0.00681241  0.25427973  1
  Ti  Ti131  1  0.10784569  0.49793940  0.65288668  1
  Ti  Ti132  1  0.89756912  0.09840710  0.13283616  1
  Ti  Ti133  1  0.50827316  0.10353020  0.88258272  1
  Ti  Ti134  1  0.10493630  0.09784939  0.62858815  1
  Ti  Ti135  1  0.29937441  0.69509560  0.61277081  1
  Ti  Ti136  1  0.78617150  0.60700745  0.74880243  1
  Ti  Ti137  1  0.50245163  0.90305789  0.61924657  1
  Ti  Ti138  1  0.79940951  -0.00567741  0.01047783  1
  Ti  Ti139  1  0.09301150  0.89457815  0.11249979  1
  Ti  Ti140  1  0.48992187  0.91455197  0.89150002  1
  Ti  Ti141  1  0.60440429  0.41075842  0.23986897  1
  Ti  Ti142  1  0.90498175  0.49594862  0.85708770  1
  Ti  Ti143  1  0.80503605  0.19937956  0.23996036  1
  Ti  Ti144  1  0.59954496  0.60331317  0.75551769  1
  Ti  Ti145  1  0.20175428  0.20192931  0.24331980  1
  Ti  Ti146  1  0.69511857  0.69904781  0.12272142  1
  Ti  Ti147  1  0.09867266  0.30464791  0.64125446  1
  Ti  Ti148  1  0.30180348  0.49775834  0.37442266  1
  Ti  Ti149  1  0.69923821  0.70740968  0.36775494  1
  Ti  Ti150  1  0.51774380  0.89895029  0.35820569  1
  Ti  Ti151  1  0.09146160  0.49757148  0.37906959  1
  Ti  Ti152  1  0.90628019  0.50494301  0.12351245  1
  Ti  Ti153  1  0.19601280  -0.00474458  0.23869492  1
  Ti  Ti154  1  0.51196831  0.10953473  0.14839546  1
  Ti  Ti155  1  0.89882838  0.91293336  0.87823627  1
  Ti  Ti156  1  0.09018286  0.90956916  0.62142016  1
  Ti  Ti157  1  0.30384063  0.88595656  0.90091373  1
  Ti  Ti158  1  0.89849470  0.89439150  0.12517160  1
  Ti  Ti159  1  0.90928387  0.29672500  0.87147260  1
  Mo  Mo160  1  0.91015085  0.30844808  0.37039552  1
  Mo  Mo161  1  0.80560029  -0.00142917  0.22629045  1
  Mo  Mo162  1  -0.00064608  0.39421805  0.75461722  1
  Mo  Mo163  1  0.30461216  0.69481379  0.12788068  1
  Mo  Mo164  1  0.40818554  0.80018110  -0.00222853  1
  Mo  Mo165  1  0.00064811  0.40231286  0.26157956  1
  Mo  Mo166  1  0.20772142  0.40354112  0.74370586  1
  Mo  Mo167  1  0.29852182  0.50759527  0.62243044  1
  Mo  Mo168  1  0.29147252  0.09812863  0.61218355  1
  Mo  Mo169  1  0.00186874  -0.00303769  0.75292046  1
  Mo  Mo170  1  0.70042454  0.89247066  0.35349996  1
  Mo  Mo171  1  0.89546342  0.08871027  0.88052178  1
  Mo  Mo172  1  0.51092767  0.69320705  0.37008602  1
  Mo  Mo173  1  0.19487711  0.80456652  0.50830424  1
  Mo  Mo174  1  0.61000950  0.20894784  0.24175449  1
  Mo  Mo175  1  0.19417757  0.59638743  0.75456027  1
  Mo  Mo176  1  -0.00445190  0.80353444  0.23328523  1
  Mo  Mo177  1  0.70506230  0.10235400  0.13792432  1
  Mo  Mo178  1  0.39442114  0.20705378  0.24610301  1
  Mo  Mo179  1  0.40324476  0.00625612  0.00300384  1
  Mo  Mo180  1  0.70823148  0.69056102  0.63397385  1
  Mo  Mo181  1  -0.00080552  0.20264823  -0.01168972  1
  Mo  Mo182  1  0.28973021  0.70608981  0.88019582  1
  Mo  Mo183  1  0.90179919  0.90263434  0.63138512  1
  Mo  Mo184  1  0.69385698  0.70149866  0.88010084  1
  Mo  Mo185  1  0.20357469  0.78250353  -0.00177596  1
  Mo  Mo186  1  0.50172231  0.49962015  0.37101352  1
  Mo  Mo187  1  0.20720104  0.40016988  -0.00455232  1
  Mo  Mo188  1  0.88328620  0.71149572  0.63797754  1
  Mo  Mo189  1  0.59909829  0.60162390  0.23694837  1
  Mo  Mo190  1  0.59862552  -0.00830585  0.23829248  1
  Mo  Mo191  1  0.81174937  -0.01166545  0.76258292  1
  Mo  Mo192  1  0.89020750  0.69117721  0.87242101  1
  Mo  Mo193  1  0.79474948  0.80076716  0.49363874  1
  Mo  Mo194  1  0.80513223  0.60139662  0.00757163  1
  Mo  Mo195  1  0.69056578  0.49897871  0.63678276  1
  Mo  Mo196  1  0.09053829  0.49831057  0.84912636  1
  Mo  Mo197  1  0.28532171  0.48629854  0.87483416  1
  Mo  Mo198  1  0.10690386  0.30590210  0.12782931  1
  Mo  Mo199  1  0.79870087  0.39624797  0.75216669  1
