# generated using pymatgen
data_In2Te3
_symmetry_space_group_name_H-M   'P 1'
_cell_length_a   18.96532839
_cell_length_b   18.97410493
_cell_length_c   18.97420054
_cell_angle_alpha   89.97737794
_cell_angle_beta   90.07220538
_cell_angle_gamma   90.16366155
_symmetry_Int_Tables_number   1
_chemical_formula_structural   In2Te3
_chemical_formula_sum   'In72 Te108'
_cell_volume   6827.83475038
_cell_formula_units_Z   36
loop_
 _symmetry_equiv_pos_site_id
 _symmetry_equiv_pos_as_xyz
  1  'x, y, z'
loop_
 _atom_site_type_symbol
 _atom_site_label
 _atom_site_symmetry_multiplicity
 _atom_site_fract_x
 _atom_site_fract_y
 _atom_site_fract_z
 _atom_site_occupancy
  In  In0  1  0.32485278  0.35531141  0.35687431  1
  In  In1  1  0.48745451  0.32522781  0.14674945  1
  In  In2  1  0.81839302  0.34031434  0.83660537  1
  In  In3  1  0.68665433  0.32280402  0.30994467  1
  In  In4  1  -0.01060403  0.50199307  0.49966303  1
  In  In5  1  0.49149883  0.66299316  0.15169228  1
  In  In6  1  0.16147978  0.51812414  0.33931387  1
  In  In7  1  0.32409571  0.00473877  0.33076594  1
  In  In8  1  0.51503238  0.14866798  0.32583452  1
  In  In9  1  0.69273107  0.00321015  0.32865609  1
  In  In10  1  0.34326894  0.48180832  0.79323206  1
  In  In11  1  0.15815078  0.49754532  0.67830201  1
  In  In12  1  0.00851149  0.81171367  0.18001542  1
  In  In13  1  0.84858655  0.34777730  0.16991840  1
  In  In14  1  0.49215199  0.47637784  -0.01615231  1
  In  In15  1  0.35970552  0.00487576  -0.00523098  1
  In  In16  1  0.86112901  0.00695056  0.19382594  1
  In  In17  1  0.34029444  0.03288577  0.67427948  1
  In  In18  1  0.33053530  0.17315754  0.17249479  1
  In  In19  1  0.18591851  0.34073959  0.52159036  1
  In  In20  1  0.68085041  0.33832170  0.67695916  1
  In  In21  1  -0.00723674  0.65509171  -0.00460469  1
  In  In22  1  0.84123597  0.50892629  0.34186612  1
  In  In23  1  0.02218084  0.18282160  0.83836542  1
  In  In24  1  0.16867117  0.49188378  0.01730673  1
  In  In25  1  0.66534733  0.83818188  0.83568294  1
  In  In26  1  0.13122330  -0.00004197  0.17354135  1
  In  In27  1  0.19172288  0.32794577  0.82462705  1
  In  In28  1  0.32562888  0.82462057  0.48757066  1
  In  In29  1  0.85103494  0.18432790  0.00142878  1
  In  In30  1  0.31576045  0.75393780  0.20451596  1
  In  In31  1  0.67328168  0.49745486  0.47344977  1
  In  In32  1  -0.02790693  0.52142885  0.82895729  1
  In  In33  1  0.82655147  0.01546126  0.79425769  1
  In  In34  1  0.53025699  -0.02269116  0.52500385  1
  In  In35  1  0.65423697  0.50831951  0.83563921  1
  In  In36  1  0.49007696  0.81120841  0.34218473  1
  In  In37  1  0.32712204  0.66122974  -0.00370876  1
  In  In38  1  0.83858310  0.00725541  0.51492704  1
  In  In39  1  0.00615368  0.34286195  0.64064371  1
  In  In40  1  0.52286942  0.67703057  0.82977144  1
  In  In41  1  0.17573064  0.16514006  0.02047098  1
  In  In42  1  -0.01886570  0.30871622  0.35534856  1
  In  In43  1  0.16717435  0.66527636  0.49274092  1
  In  In44  1  0.67436829  0.01339827  0.67167832  1
  In  In45  1  0.81722365  0.49932844  -0.00546060  1
  In  In46  1  0.82421728  0.82419404  -0.00578368  1
  In  In47  1  0.82711860  0.83866427  0.34718311  1
  In  In48  1  0.68555105  0.67753542  0.32395818  1
  In  In49  1  0.12265549  0.78971777  0.69411317  1
  In  In50  1  0.82525256  0.16303434  0.66369724  1
  In  In51  1  0.65939958  0.65008825  0.63783419  1
  In  In52  1  0.34065329  0.63659470  0.64297242  1
  In  In53  1  0.33279500  0.84211640  0.84227225  1
  In  In54  1  0.00990912  0.00387130  0.67708854  1
  In  In55  1  0.48513757  0.19940722  -0.03360430  1
  In  In56  1  0.82840059  0.66737979  0.15448325  1
  In  In57  1  0.15496043  0.32903347  0.17934720  1
  In  In58  1  0.18247794  0.84144011  0.00823955  1
  In  In59  1  0.16186720  -0.00038619  0.85070676  1
  In  In60  1  0.51091467  0.32644054  0.50174768  1
  In  In61  1  0.65717479  0.03741578  0.00060549  1
  In  In62  1  0.34557052  0.17002260  0.49052048  1
  In  In63  1  0.51707945  -0.01771316  0.18079914  1
  In  In64  1  -0.00242220  0.82802621  0.51044123  1
  In  In65  1  0.82734821  0.81855828  0.66602378  1
  In  In66  1  0.63542909  0.48372867  0.14809081  1
  In  In67  1  0.01083403  -0.00067204  0.00137830  1
  In  In68  1  0.13848300  0.02376702  0.47333969  1
  In  In69  1  0.47552756  0.52364431  0.31446670  1
  In  In70  1  0.51408770  0.18304659  0.67955495  1
  In  In71  1  0.51424081  0.81364064  0.65742435  1
  Te  Te72  1  0.05613015  0.10727658  0.09726201  1
  Te  Te73  1  0.05904636  0.11083730  0.38502175  1
  Te  Te74  1  0.10713972  0.09723293  0.74734314  1
  Te  Te75  1  0.07068333  0.41645156  0.09698580  1
  Te  Te76  1  0.08639949  0.40495270  0.42431942  1
  Te  Te77  1  0.06668118  0.40944422  0.76514162  1
  Te  Te78  1  0.09160635  0.74126617  0.07673923  1
  Te  Te79  1  0.08331056  0.75649044  0.41076459  1
  Te  Te80  1  0.03206613  0.70923185  0.78112197  1
  Te  Te81  1  0.43176062  0.08770663  0.10071463  1
  Te  Te82  1  0.43142551  0.06127002  0.42649775  1
  Te  Te83  1  0.44266063  0.08469076  0.76606474  1
  Te  Te84  1  0.40687491  0.43347533  0.09491200  1
  Te  Te85  1  0.42165317  0.43998626  0.43993424  1
  Te  Te86  1  0.44823549  0.38054592  0.77036920  1
  Te  Te87  1  0.40141439  0.76517135  0.08093711  1
  Te  Te88  1  0.39994665  0.72207097  0.41587465  1
  Te  Te89  1  0.41042067  0.74553372  0.74349289  1
  Te  Te90  1  0.78158959  0.07799715  0.08542994  1
  Te  Te91  1  0.75614610  0.09451736  0.42642653  1
  Te  Te92  1  0.72147633  0.12076346  0.76815802  1
  Te  Te93  1  0.73661307  0.39927626  0.07628277  1
  Te  Te94  1  0.76946836  0.39618903  0.41313562  1
  Te  Te95  1  0.76275873  0.44704999  0.74612409  1
  Te  Te96  1  0.73370511  0.74181101  0.07341860  1
  Te  Te97  1  0.74981865  0.74937360  0.43360669  1
  Te  Te98  1  0.73111982  0.73523179  0.74763261  1
  Te  Te99  1  0.08463344  0.23759275  0.27399040  1
  Te  Te100  1  0.10464768  0.24524032  0.59892956  1
  Te  Te101  1  0.10106696  0.26605182  0.93473277  1
  Te  Te102  1  0.11991251  0.61335750  0.23506218  1
  Te  Te103  1  0.07807874  0.58786549  0.58897163  1
  Te  Te104  1  0.08902537  0.57196979  0.91246547  1
  Te  Te105  1  0.06919036  0.91041987  0.27008097  1
  Te  Te106  1  0.09660992  0.91926918  0.58643927  1
  Te  Te107  1  0.07364428  0.89395126  0.91324071  1
  Te  Te108  1  0.41522480  0.25254391  0.27673687  1
  Te  Te109  1  0.41043335  0.25873169  0.59305272  1
  Te  Te110  1  0.39564806  0.27546651  0.87134155  1
  Te  Te111  1  0.38060494  0.61750657  0.24571753  1
  Te  Te112  1  0.40879958  0.54094628  0.55983009  1
  Te  Te113  1  0.41750668  0.58610146  0.89885956  1
  Te  Te114  1  0.40262797  0.90362027  0.25012583  1
  Te  Te115  1  0.40394075  0.91694876  0.58488559  1
  Te  Te116  1  0.43803016  0.90254629  0.92398469  1
  Te  Te117  1  0.77126132  0.23424123  0.22890319  1
  Te  Te118  1  0.75958248  0.26148247  0.57970570  1
  Te  Te119  1  0.74768276  0.23670742  0.91291070  1
  Te  Te120  1  0.73600918  0.55781122  0.23583623  1
  Te  Te121  1  0.76012874  0.57838236  0.55970373  1
  Te  Te122  1  0.75014924  0.59461085  0.90701029  1
  Te  Te123  1  0.75480388  0.90445920  0.23182933  1
  Te  Te124  1  0.74128116  0.91136932  0.58168569  1
  Te  Te125  1  0.75512378  0.94034538  0.90679020  1
  Te  Te126  1  0.26601098  0.27115016  0.08038892  1
  Te  Te127  1  0.24092684  0.24361103  0.41197438  1
  Te  Te128  1  0.28244801  0.22429377  0.77925130  1
  Te  Te129  1  0.24019330  0.59595137  0.09706415  1
  Te  Te130  1  0.25719580  0.56063324  0.44384847  1
  Te  Te131  1  0.24765148  0.59405532  0.75426465  1
  Te  Te132  1  0.24710261  0.95108095  0.08684936  1
  Te  Te133  1  0.23244579  0.91661255  0.41182057  1
  Te  Te134  1  0.25160857  0.92960873  0.74980450  1
  Te  Te135  1  0.57922052  0.24353769  0.07083444  1
  Te  Te136  1  0.59771153  0.24361811  0.41039901  1
  Te  Te137  1  0.58041660  0.28084932  0.77198719  1
  Te  Te138  1  0.57975600  0.58760460  0.05565687  1
  Te  Te139  1  0.58139160  0.59260745  0.39781133  1
  Te  Te140  1  0.56474733  0.57304763  0.72994907  1
  Te  Te141  1  0.59989021  0.92519133  0.07572864  1
  Te  Te142  1  0.58653195  0.91544298  0.40034952  1
  Te  Te143  1  0.57662222  0.92031901  0.74355073  1
  Te  Te144  1  0.93825916  0.26814408  0.08312681  1
  Te  Te145  1  0.86845756  0.21103766  0.37209480  1
  Te  Te146  1  0.91714746  0.25077834  0.75345975  1
  Te  Te147  1  0.91770049  0.56483101  0.09144143  1
  Te  Te148  1  0.93841213  0.59980947  0.40243088  1
  Te  Te149  1  0.92948604  0.61606047  0.72339699  1
  Te  Te150  1  0.92301987  0.90665956  0.08666005  1
  Te  Te151  1  0.92566904  0.92731352  0.42055158  1
  Te  Te152  1  0.92095484  0.90547600  0.75026880  1
  Te  Te153  1  0.23147493  0.09200621  0.25166887  1
  Te  Te154  1  0.24635583  0.08539967  0.56767772  1
  Te  Te155  1  0.26163770  0.09257829  0.91808627  1
  Te  Te156  1  0.24961699  0.42680782  0.25005779  1
  Te  Te157  1  0.26585025  0.41300576  0.62294839  1
  Te  Te158  1  0.26331069  0.42979399  0.91101546  1
  Te  Te159  1  0.19162112  0.73685487  0.28298485  1
  Te  Te160  1  0.24556189  0.75423724  0.59942839  1
  Te  Te161  1  0.23649119  0.74438427  0.90525250  1
  Te  Te162  1  0.61430302  0.09055874  0.23097726  1
  Te  Te163  1  0.59678984  0.10189562  0.57578399  1
  Te  Te164  1  0.55784540  0.08782086  0.90246662  1
  Te  Te165  1  0.56503747  0.40998347  0.26621741  1
  Te  Te166  1  0.59539111  0.42198472  0.58123305  1
  Te  Te167  1  0.59799077  0.40007892  0.91900880  1
  Te  Te168  1  0.58204390  0.74998621  0.23831965  1
  Te  Te169  1  0.57399964  0.73528498  0.55212407  1
  Te  Te170  1  0.57129046  0.77270046  0.92891155  1
  Te  Te171  1  0.92972806  0.08939725  0.29791267  1
  Te  Te172  1  0.93861003  0.09868201  0.58345552  1
  Te  Te173  1  0.92962291  0.07538750  0.89780386  1
  Te  Te174  1  0.94034653  0.42349492  0.26473993  1
  Te  Te175  1  0.89855283  0.41958927  0.58137741  1
  Te  Te176  1  0.91961458  0.41304677  0.92245068  1
  Te  Te177  1  0.90720014  0.73608484  0.26298323  1
  Te  Te178  1  0.92024006  0.73086244  0.59132655  1
  Te  Te179  1  0.90824858  0.73946869  0.90718383  1
