# generated using pymatgen
data_In2Te3
_symmetry_space_group_name_H-M   'P 1'
_cell_length_a   18.82667922
_cell_length_b   18.81840610
_cell_length_c   18.81885586
_cell_angle_alpha   90.00824668
_cell_angle_beta   89.86901219
_cell_angle_gamma   89.93981327
_symmetry_Int_Tables_number   1
_chemical_formula_structural   In2Te3
_chemical_formula_sum   'In72 Te108'
_cell_volume   6667.27542222
_cell_formula_units_Z   36
loop_
 _symmetry_equiv_pos_site_id
 _symmetry_equiv_pos_as_xyz
  1  'x, y, z'
loop_
 _atom_site_type_symbol
 _atom_site_label
 _atom_site_symmetry_multiplicity
 _atom_site_fract_x
 _atom_site_fract_y
 _atom_site_fract_z
 _atom_site_occupancy
  In  In0  1  0.35064662  0.13045313  0.17229702  1
  In  In1  1  0.65031977  0.52394638  0.84902176  1
  In  In2  1  -0.01294681  0.18741966  0.50278398  1
  In  In3  1  0.16778626  -0.01744814  0.83359602  1
  In  In4  1  0.33742378  0.50106162  0.16084564  1
  In  In5  1  0.50117646  0.32493846  0.16567296  1
  In  In6  1  0.18716578  0.69068082  0.51316560  1
  In  In7  1  0.86155984  -0.01530777  0.87760387  1
  In  In8  1  0.16542602  0.81482825  0.30473263  1
  In  In9  1  0.16072070  0.14683306  0.01587293  1
  In  In10  1  0.16489057  0.33101751  0.49021099  1
  In  In11  1  0.15141816  0.52588706  -0.04067217  1
  In  In12  1  0.32775330  0.15138195  0.82283964  1
  In  In13  1  0.32620728  0.68410541  0.33661624  1
  In  In14  1  0.81892207  0.52195356  0.64070052  1
  In  In15  1  0.47525204  0.34247291  0.83790835  1
  In  In16  1  0.16893487  -0.02542546  0.12086073  1
  In  In17  1  0.66377835  0.13277207  0.16568318  1
  In  In18  1  0.48493077  -0.05671823  0.85610488  1
  In  In19  1  0.64025793  -0.03147323  0.68989700  1
  In  In20  1  -0.05075573  0.69118034  0.33712476  1
  In  In21  1  0.85449368  -0.01816617  0.49255396  1
  In  In22  1  0.68044201  0.15084782  0.84973168  1
  In  In23  1  0.52939478  0.52443386  0.66376938  1
  In  In24  1  0.02578450  0.16132314  0.15199107  1
  In  In25  1  0.82965223  0.83023119  0.67924332  1
  In  In26  1  -0.00898790  -0.01379423  0.36356729  1
  In  In27  1  0.82488445  0.17326223  0.31414993  1
  In  In28  1  -0.01284397  0.35112117  0.00112045  1
  In  In29  1  0.67810976  -0.03326041  -0.01240335  1
  In  In30  1  0.31812613  0.34031428  0.35154509  1
  In  In31  1  0.54746072  0.55135364  0.34887111  1
  In  In32  1  0.18081787  0.51801668  0.71475526  1
  In  In33  1  0.35249790  -0.01274324  0.33111700  1
  In  In34  1  0.49801701  0.16429394  0.68869675  1
  In  In35  1  0.86577241  0.37038216  0.17989483  1
  In  In36  1  0.17528764  0.18458185  0.31293068  1
  In  In37  1  -0.00989648  0.82695453  0.14268352  1
  In  In38  1  0.83407981  0.67415374  0.83439471  1
  In  In39  1  -0.00710202  0.69603186  0.66635683  1
  In  In40  1  0.16077028  0.14446570  0.66638124  1
  In  In41  1  0.14703809  0.35797578  0.85739964  1
  In  In42  1  0.50318696  0.34264417  0.51472831  1
  In  In43  1  0.50810313  -0.02901207  0.15773019  1
  In  In44  1  0.84634386  0.16549966  0.69239877  1
  In  In45  1  0.84116879  0.34382752  0.84019177  1
  In  In46  1  0.13755146  0.34057846  0.14702531  1
  In  In47  1  0.68056420  0.35267161  0.34456838  1
  In  In48  1  0.81566626  0.36596794  0.49635285  1
  In  In49  1  0.15016409  0.67158886  0.17900696  1
  In  In50  1  0.14982879  0.52928394  0.33593884  1
  In  In51  1  -0.02528643  0.84510145  0.48950001  1
  In  In52  1  0.34286879  0.83026987  0.50982034  1
  In  In53  1  0.67010502  0.71094333  0.00996913  1
  In  In54  1  0.69876073  0.51569546  0.17821422  1
  In  In55  1  0.32207433  0.68504176  -0.02701693  1
  In  In56  1  0.83650611  -0.02540194  0.16438866  1
  In  In57  1  0.32140510  0.31830153  -0.01329081  1
  In  In58  1  -0.00769705  0.81934710  0.84299854  1
  In  In59  1  0.66331179  0.79811654  0.49728895  1
  In  In60  1  0.16923791  0.82431683  0.67974916  1
  In  In61  1  0.16988531  -0.00116809  0.51460539  1
  In  In62  1  0.65706083  0.17688533  0.48595298  1
  In  In63  1  0.48506407  0.54571631  -0.02958824  1
  In  In64  1  0.52718150  0.68128816  0.16651277  1
  In  In65  1  0.67677071  -0.02634454  0.31352893  1
  In  In66  1  0.37173876  0.50884318  0.53213851  1
  In  In67  1  0.32499163  0.33029246  0.65717598  1
  In  In68  1  0.66834400  0.32180047  0.02419790  1
  In  In69  1  -0.00417387  0.51180172  0.50561098  1
  In  In70  1  0.48945075  -0.01243261  0.50733836  1
  In  In71  1  0.65533674  0.35034199  0.65620197  1
  Te  Te72  1  0.04153027  0.04770888  0.04661337  1
  Te  Te73  1  0.08331055  0.09587687  0.42033833  1
  Te  Te74  1  0.07732304  0.08020231  0.76739630  1
  Te  Te75  1  0.06971688  0.46533773  0.08432282  1
  Te  Te76  1  0.07170492  0.41885444  0.40886434  1
  Te  Te77  1  0.06860916  0.43720345  0.76095904  1
  Te  Te78  1  0.08808767  0.74337560  0.06583265  1
  Te  Te79  1  0.07927841  0.74418086  0.41442096  1
  Te  Te80  1  0.10068800  0.72350098  0.77277851  1
  Te  Te81  1  0.42394796  0.05723361  0.06992391  1
  Te  Te82  1  0.41639232  0.08245713  0.42150285  1
  Te  Te83  1  0.42464816  0.05260686  0.75815802  1
  Te  Te84  1  0.42241917  0.41516881  0.06736680  1
  Te  Te85  1  0.42720386  0.43165409  0.40861216  1
  Te  Te86  1  0.42208284  0.42738788  0.72569741  1
  Te  Te87  1  0.44232228  0.73751504  0.05486049  1
  Te  Te88  1  0.42801976  0.75793473  0.41198609  1
  Te  Te89  1  0.44904775  0.74398780  0.80866405  1
  Te  Te90  1  0.76259993  0.07158184  0.07126008  1
  Te  Te91  1  0.75308887  0.08094354  0.41374344  1
  Te  Te92  1  0.75218954  0.05851542  0.75161869  1
  Te  Te93  1  0.76623130  0.42798964  0.07184704  1
  Te  Te94  1  0.77804738  0.45803059  0.38534097  1
  Te  Te95  1  0.74166467  0.43202790  0.75270458  1
  Te  Te96  1  0.77262733  0.75536300  0.10504610  1
  Te  Te97  1  0.74495708  0.74721711  0.38028390  1
  Te  Te98  1  0.73470852  0.73146678  0.73842484  1
  Te  Te99  1  0.06099538  0.26763351  0.25919732  1
  Te  Te100  1  0.08358842  0.25859691  0.59685869  1
  Te  Te101  1  0.07754519  0.24605564  0.93189826  1
  Te  Te102  1  0.03805886  0.58816307  0.25126734  1
  Te  Te103  1  0.09265309  0.59762801  0.59046541  1
  Te  Te104  1  0.06497580  0.63561776  0.91284228  1
  Te  Te105  1  0.06930760  0.91734175  0.24375607  1
  Te  Te106  1  0.07540052  0.90551048  0.58925830  1
  Te  Te107  1  0.09115272  0.89273004  0.92491658  1
  Te  Te108  1  0.40041834  0.25037240  0.25324232  1
  Te  Te109  1  0.41625155  0.23496726  0.58091197  1
  Te  Te110  1  0.42297628  0.22569490  0.92024249  1
  Te  Te111  1  0.42360996  0.59018154  0.24924681  1
  Te  Te112  1  0.45378629  0.62551972  0.57715179  1
  Te  Te113  1  0.39276446  0.59953874  0.85788279  1
  Te  Te114  1  0.42024273  0.88902318  0.24664612  1
  Te  Te115  1  0.44005088  0.88987775  0.60837666  1
  Te  Te116  1  0.38398704  0.89172850  0.95631947  1
  Te  Te117  1  0.73351689  0.26136295  0.23047670  1
  Te  Te118  1  0.75256087  0.24697545  0.58676396  1
  Te  Te119  1  0.76491562  0.24636361  0.93218001  1
  Te  Te120  1  0.73350076  0.63777046  0.26141182  1
  Te  Te121  1  0.70801268  0.59275121  0.57616750  1
  Te  Te122  1  0.74755152  0.59866525  0.93777980  1
  Te  Te123  1  0.71789239  0.88397796  0.19836011  1
  Te  Te124  1  0.74142809  0.91713784  0.57879214  1
  Te  Te125  1  0.76010769  0.88044565  0.89951280  1
  Te  Te126  1  0.25172489  0.24532121  0.10277713  1
  Te  Te127  1  0.25886631  0.22470778  0.43402874  1
  Te  Te128  1  0.24201629  0.26488219  0.76687288  1
  Te  Te129  1  0.24671087  0.58787208  0.07583430  1
  Te  Te130  1  0.26222170  0.57760441  0.42830030  1
  Te  Te131  1  0.28171596  0.61664727  0.74733189  1
  Te  Te132  1  0.25872291  0.87975417  0.05197694  1
  Te  Te133  1  0.23732135  0.90447919  0.41366634  1
  Te  Te134  1  0.26833763  0.90416422  0.75412421  1
  Te  Te135  1  0.56973217  0.21897163  0.07882497  1
  Te  Te136  1  0.56743309  0.26054725  0.39994115  1
  Te  Te137  1  0.59629462  0.25476366  0.76611977  1
  Te  Te138  1  0.59272152  0.57236675  0.08010801  1
  Te  Te139  1  0.62096046  0.63318871  0.45211943  1
  Te  Te140  1  0.60036766  0.62355055  0.75045523  1
  Te  Te141  1  0.59026665  0.87913372  0.07152381  1
  Te  Te142  1  0.58723178  0.91034017  0.41825532  1
  Te  Te143  1  0.57894943  0.86029693  0.77280249  1
  Te  Te144  1  0.91550868  0.25332634  0.09485020  1
  Te  Te145  1  0.89891279  0.26773275  0.40766215  1
  Te  Te146  1  0.93396615  0.25716835  0.76423929  1
  Te  Te147  1  0.92742471  0.51070755  0.06111951  1
  Te  Te148  1  0.89310718  0.59125045  0.43259491  1
  Te  Te149  1  0.91589387  0.58613925  0.73954234  1
  Te  Te150  1  0.89819870  0.90048359  0.05061625  1
  Te  Te151  1  0.87691557  0.88551087  0.37238337  1
  Te  Te152  1  0.92835317  0.91967440  0.74817206  1
  Te  Te153  1  0.22764300  0.06072849  0.24052688  1
  Te  Te154  1  0.26674988  0.06587589  0.60180358  1
  Te  Te155  1  0.25926499  0.06940556  0.93103516  1
  Te  Te156  1  0.23474760  0.42509968  0.24798846  1
  Te  Te157  1  0.23922969  0.43112735  0.58072865  1
  Te  Te158  1  0.26881091  0.43574897  0.90776607  1
  Te  Te159  1  0.27406945  0.75838636  0.21410469  1
  Te  Te160  1  0.28508142  0.73167120  0.62016202  1
  Te  Te161  1  0.26137858  0.80584619  0.90377086  1
  Te  Te162  1  0.57001676  0.07203163  0.26594860  1
  Te  Te163  1  0.59488690  0.08799112  0.59442033  1
  Te  Te164  1  0.57991881  0.05710586  0.91185554  1
  Te  Te165  1  0.58302905  0.42873986  0.24361007  1
  Te  Te166  1  0.61008175  0.44630884  0.54824806  1
  Te  Te167  1  0.58228235  0.40781233  0.92664863  1
  Te  Te168  1  0.62101549  0.74080651  0.26889222  1
  Te  Te169  1  0.54033723  0.75975592  0.57359709  1
  Te  Te170  1  0.54075683  0.72811137  0.92309226  1
  Te  Te171  1  0.92669670  0.07990351  0.24918633  1
  Te  Te172  1  0.92454842  0.07879450  0.58916372  1
  Te  Te173  1  0.94326925  0.09124285  0.93122924  1
  Te  Te174  1  0.92171625  0.47624019  0.26188919  1
  Te  Te175  1  0.91962528  0.41258784  0.59610093  1
  Te  Te176  1  0.92009747  0.45192857  0.91109702  1
  Te  Te177  1  0.89425859  0.72124360  0.19881253  1
  Te  Te178  1  0.88852117  0.74436375  0.56602217  1
  Te  Te179  1  0.92887630  0.72212360  0.94070835  1
