# generated using pymatgen
data_In2Te3
_symmetry_space_group_name_H-M   'P 1'
_cell_length_a   18.75168388
_cell_length_b   18.75961204
_cell_length_c   18.75058988
_cell_angle_alpha   89.93941826
_cell_angle_beta   90.00990537
_cell_angle_gamma   90.02090990
_symmetry_Int_Tables_number   1
_chemical_formula_structural   In2Te3
_chemical_formula_sum   'In72 Te108'
_cell_volume   6595.97168056
_cell_formula_units_Z   36
loop_
 _symmetry_equiv_pos_site_id
 _symmetry_equiv_pos_as_xyz
  1  'x, y, z'
loop_
 _atom_site_type_symbol
 _atom_site_label
 _atom_site_symmetry_multiplicity
 _atom_site_fract_x
 _atom_site_fract_y
 _atom_site_fract_z
 _atom_site_occupancy
  In  In0  1  0.82661608  0.82400690  0.65305960  1
  In  In1  1  0.82907966  0.49547414  0.65192002  1
  In  In2  1  0.81923720  0.50367709  0.02435107  1
  In  In3  1  0.66917373  0.47385097  0.86978638  1
  In  In4  1  0.16792325  0.65631247  0.18270380  1
  In  In5  1  0.17556316  0.87313711  0.65777217  1
  In  In6  1  0.50956143  0.67152142  0.82749655  1
  In  In7  1  0.14896668  0.67315676  0.84405679  1
  In  In8  1  0.01675541  0.16287337  0.47539125  1
  In  In9  1  0.66097521  0.00307078  0.35956032  1
  In  In10  1  0.16769117  0.64765429  0.48076912  1
  In  In11  1  0.00934418  0.85270743  0.85802743  1
  In  In12  1  0.01095135  0.01257205  0.32889760  1
  In  In13  1  0.03562749  0.00971653  0.66157813  1
  In  In14  1  0.84073000  0.83423867  -0.01320309  1
  In  In15  1  0.00450362  0.64654045  -0.00119326  1
  In  In16  1  0.48155301  0.47612434  0.01169977  1
  In  In17  1  0.47599165  0.47060069  0.67755765  1
  In  In18  1  0.82161344  0.16676823  0.66672146  1
  In  In19  1  0.02999733  0.01175595  0.01219944  1
  In  In20  1  0.34155673  0.66259255  0.66478424  1
  In  In21  1  -0.00166328  0.49749113  0.83311372  1
  In  In22  1  0.65782540  0.00437635  0.68762378  1
  In  In23  1  0.67504921  0.65950185  0.66456788  1
  In  In24  1  0.83233098  0.00289894  0.47916597  1
  In  In25  1  0.31462363  0.00523253  0.29168951  1
  In  In26  1  0.63251878  0.33507238  0.00514868  1
  In  In27  1  -0.01688437  0.69108930  0.64220162  1
  In  In28  1  0.69195250  0.16266950  0.50483222  1
  In  In29  1  0.48299384  0.00795449  0.48627754  1
  In  In30  1  0.18391710  0.31798829  0.84676187  1
  In  In31  1  0.02041815  0.48165274  0.47844012  1
  In  In32  1  0.83917800  0.48799031  0.32631625  1
  In  In33  1  0.62176681  0.03822331  -0.02208026  1
  In  In34  1  0.16538002  0.84256368  0.33177911  1
  In  In35  1  0.01546514  0.31790453  0.03180791  1
  In  In36  1  0.49653865  0.67234637  0.46267701  1
  In  In37  1  0.66268016  0.33695193  0.32310229  1
  In  In38  1  0.83896111  0.65144346  0.17663276  1
  In  In39  1  0.17399734  0.17819583  0.65960746  1
  In  In40  1  0.00840205  0.66137622  0.32042450  1
  In  In41  1  0.32424321  0.47765711  0.18780048  1
  In  In42  1  0.84259380  0.17636140  0.01175798  1
  In  In43  1  0.48847749  0.17924421  0.68990318  1
  In  In44  1  0.65425858  0.17075619  0.17491354  1
  In  In45  1  0.64152848  0.84857504  0.17287138  1
  In  In46  1  0.47942608  0.32885928  0.49717134  1
  In  In47  1  0.64894286  0.49741506  0.50449333  1
  In  In48  1  0.67499094  0.81791461  0.46726751  1
  In  In49  1  0.82740576  0.33031938  0.83574516  1
  In  In50  1  0.34569415  0.03959932  0.02734377  1
  In  In51  1  0.35020022  0.83840825  0.49460172  1
  In  In52  1  0.18128715  0.32254880  0.16996464  1
  In  In53  1  0.19221782  0.86164658  0.01494446  1
  In  In54  1  0.48928350  0.82755876  0.01509355  1
  In  In55  1  0.01140606  0.33168014  0.33511864  1
  In  In56  1  0.17339814  0.16979915  0.00350879  1
  In  In57  1  0.33441380  0.46728569  0.83937910  1
  In  In58  1  0.31486703  0.86040727  0.82504103  1
  In  In59  1  0.83740722  0.01254605  0.18562519  1
  In  In60  1  -0.00498644  0.32080664  0.66903167  1
  In  In61  1  0.82616736  0.00225949  0.82991488  1
  In  In62  1  0.49767865  0.66651559  0.18066980  1
  In  In63  1  0.48217134  0.18652069  0.30916759  1
  In  In64  1  0.19874427  0.48356288  0.64265780  1
  In  In65  1  0.66176878  0.86053722  0.79019304  1
  In  In66  1  0.35565471  0.67440071  0.03390944  1
  In  In67  1  0.67781479  0.65725332  -0.00465739  1
  In  In68  1  0.00159306  0.81711863  0.18591147  1
  In  In69  1  0.50864922  0.86888258  0.64336670  1
  In  In70  1  0.66821084  0.47596079  0.18152220  1
  In  In71  1  0.33314633  0.47792074  0.47023240  1
  Te  Te72  1  0.10210365  0.09348341  0.11057092  1
  Te  Te73  1  0.12320955  0.08758734  0.39999803  1
  Te  Te74  1  0.08556536  0.10638878  0.75828644  1
  Te  Te75  1  0.09766023  0.42092932  0.09582650  1
  Te  Te76  1  0.12538917  0.40890710  0.40147837  1
  Te  Te77  1  0.09356106  0.41160175  0.74701793  1
  Te  Te78  1  0.08641475  0.75585934  0.07081364  1
  Te  Te79  1  0.07688365  0.75484172  0.42141765  1
  Te  Te80  1  0.08288196  0.76744164  0.74204888  1
  Te  Te81  1  0.42624553  0.12958489  0.11833609  1
  Te  Te82  1  0.39656740  0.09139261  0.39481629  1
  Te  Te83  1  0.42868791  0.06751291  0.76618038  1
  Te  Te84  1  0.40982487  0.38570101  0.10271891  1
  Te  Te85  1  0.42370185  0.40030442  0.37983473  1
  Te  Te86  1  0.37601041  0.37210904  0.73013226  1
  Te  Te87  1  0.39621064  0.78593443  0.13389954  1
  Te  Te88  1  0.39722558  0.75030594  0.38549387  1
  Te  Te89  1  0.41976076  0.76647583  0.74701529  1
  Te  Te90  1  0.74291846  0.07324478  0.07895427  1
  Te  Te91  1  0.77090488  0.10798811  0.38642562  1
  Te  Te92  1  0.72907088  0.10671745  0.77518406  1
  Te  Te93  1  0.75276761  0.38563400  0.09256424  1
  Te  Te94  1  0.74929288  0.41073960  0.42451135  1
  Te  Te95  1  0.73825602  0.41327096  0.74392317  1
  Te  Te96  1  0.75427683  0.75381780  0.08790412  1
  Te  Te97  1  0.78058209  0.73293502  0.41770233  1
  Te  Te98  1  0.75604997  0.74325523  0.76342518  1
  Te  Te99  1  0.10598780  0.23027032  0.26622906  1
  Te  Te100  1  0.08864035  0.26542002  0.56332705  1
  Te  Te101  1  0.06861526  0.24199782  0.91212486  1
  Te  Te102  1  0.08737761  0.55603241  0.25453741  1
  Te  Te103  1  0.08219412  0.57599216  0.59399525  1
  Te  Te104  1  0.10488241  0.55319880  0.92946292  1
  Te  Te105  1  0.09406693  0.92942913  0.22794238  1
  Te  Te106  1  0.08271220  0.92222207  0.55386651  1
  Te  Te107  1  0.12027375  0.94431462  0.90610290  1
  Te  Te108  1  0.36645456  0.23143659  0.22132648  1
  Te  Te109  1  0.40579884  0.21471418  0.56756217  1
  Te  Te110  1  0.45679889  0.25884611  0.89355526  1
  Te  Te111  1  0.40819340  0.57852399  0.25901437  1
  Te  Te112  1  0.42284029  0.57178718  0.57320096  1
  Te  Te113  1  0.41690076  0.58844556  0.91588489  1
  Te  Te114  1  0.41038865  0.91781055  0.22171512  1
  Te  Te115  1  0.38966793  0.95021094  0.59445014  1
  Te  Te116  1  0.39931269  0.92253116  0.93618377  1
  Te  Te117  1  0.75556174  0.25249050  0.24395714  1
  Te  Te118  1  0.74707309  0.26872002  0.59115332  1
  Te  Te119  1  0.73648418  0.24939150  0.92853544  1
  Te  Te120  1  0.73386697  0.58458567  0.26460219  1
  Te  Te121  1  0.75934149  0.59346611  0.55721445  1
  Te  Te122  1  0.77183397  0.58293620  0.90093770  1
  Te  Te123  1  0.74639592  0.91719264  0.26270544  1
  Te  Te124  1  0.73253037  0.92319912  0.57527324  1
  Te  Te125  1  0.73202234  0.92223068  0.92272062  1
  Te  Te126  1  0.27937368  0.24824464  0.07963142  1
  Te  Te127  1  0.27637497  0.24084278  0.47784645  1
  Te  Te128  1  0.27413799  0.23914877  0.75630633  1
  Te  Te129  1  0.25458644  0.57556814  0.08490996  1
  Te  Te130  1  0.26647504  0.58564841  0.39138220  1
  Te  Te131  1  0.25172226  0.58479498  0.76076494  1
  Te  Te132  1  0.26882016  0.94090293  0.11619443  1
  Te  Te133  1  0.25417436  0.92979281  0.41914675  1
  Te  Te134  1  0.25321174  0.96698589  0.74237578  1
  Te  Te135  1  0.55327424  0.23062291  0.07862534  1
  Te  Te136  1  0.58407578  0.23513194  0.41859222  1
  Te  Te137  1  0.57425449  0.25760205  0.78220231  1
  Te  Te138  1  0.58414483  0.57370714  0.08009910  1
  Te  Te139  1  0.57560873  0.56743828  0.39682017  1
  Te  Te140  1  0.58577708  0.56628926  0.74812579  1
  Te  Te141  1  0.56021047  0.94415212  0.08709683  1
  Te  Te142  1  0.55790236  0.89972755  0.40822916  1
  Te  Te143  1  0.53624927  0.95119766  0.77663857  1
  Te  Te144  1  0.93134186  0.23012891  0.11879896  1
  Te  Te145  1  0.91564426  0.25468652  0.41992266  1
  Te  Te146  1  0.91985924  0.23046774  0.76630714  1
  Te  Te147  1  0.93758443  0.55995356  0.10555349  1
  Te  Te148  1  0.92184144  0.57956310  0.41811437  1
  Te  Te149  1  0.91773104  0.58667116  0.73732250  1
  Te  Te150  1  0.92311876  0.91693391  0.08554378  1
  Te  Te151  1  0.92538444  0.91741271  0.40458397  1
  Te  Te152  1  0.91641171  0.91385700  0.74357139  1
  Te  Te153  1  0.22070168  0.12187876  0.26415704  1
  Te  Te154  1  0.24604533  0.10922453  0.54843994  1
  Te  Te155  1  0.27153262  0.10138513  0.91454423  1
  Te  Te156  1  0.24460475  0.39518483  0.28823638  1
  Te  Te157  1  0.26784413  0.37652309  0.56316023  1
  Te  Te158  1  0.26490210  0.39315906  0.94584045  1
  Te  Te159  1  0.25439392  0.74657016  0.26145981  1
  Te  Te160  1  0.24726701  0.74787493  0.58066853  1
  Te  Te161  1  0.25859848  0.74657374  0.92574623  1
  Te  Te162  1  0.57108661  0.07136921  0.25669796  1
  Te  Te163  1  0.58059128  0.08454967  0.57980587  1
  Te  Te164  1  0.52908247  0.12792301  0.88996269  1
  Te  Te165  1  0.55586370  0.39807537  0.23844294  1
  Te  Te166  1  0.57922937  0.39369297  0.59433897  1
  Te  Te167  1  0.53544937  0.39691497  0.88523152  1
  Te  Te168  1  0.59177892  0.74461505  0.26439105  1
  Te  Te169  1  0.57642119  0.74368526  0.58211434  1
  Te  Te170  1  0.59287992  0.76183017  0.91866596  1
  Te  Te171  1  0.93219508  0.10976949  0.24445105  1
  Te  Te172  1  0.91658107  0.08184421  0.58234815  1
  Te  Te173  1  0.92062429  0.07705253  0.92365661  1
  Te  Te174  1  0.92785830  0.40937332  0.23897016  1
  Te  Te175  1  0.91860523  0.40584522  0.56727513  1
  Te  Te176  1  0.91409894  0.41342015  0.93203412  1
  Te  Te177  1  0.89098199  0.75892553  0.27290963  1
  Te  Te178  1  0.89762268  0.75831026  0.53848805  1
  Te  Te179  1  0.92144319  0.73399913  0.90403836  1
