# generated using pymatgen
data_In2Te3
_symmetry_space_group_name_H-M   'P 1'
_cell_length_a   18.76323952
_cell_length_b   18.77413388
_cell_length_c   18.77262197
_cell_angle_alpha   90.01739878
_cell_angle_beta   89.95807028
_cell_angle_gamma   89.97885306
_symmetry_Int_Tables_number   1
_chemical_formula_structural   In2Te3
_chemical_formula_sum   'In72 Te108'
_cell_volume   6612.90831859
_cell_formula_units_Z   36
loop_
 _symmetry_equiv_pos_site_id
 _symmetry_equiv_pos_as_xyz
  1  'x, y, z'
loop_
 _atom_site_type_symbol
 _atom_site_label
 _atom_site_symmetry_multiplicity
 _atom_site_fract_x
 _atom_site_fract_y
 _atom_site_fract_z
 _atom_site_occupancy
  In  In0  1  0.33048441  0.36526112  0.01831745  1
  In  In1  1  0.82516104  0.34818023  0.17316103  1
  In  In2  1  0.14893429  0.30987856  0.19294295  1
  In  In3  1  0.32328379  0.17418168  0.84027190  1
  In  In4  1  0.31962637  -0.01703759  0.67202033  1
  In  In5  1  0.01299344  -0.01573273  0.02416544  1
  In  In6  1  0.66722309  0.51167016  0.83086980  1
  In  In7  1  0.67370897  0.36966195  -0.00353791  1
  In  In8  1  0.18373352  0.64338716  0.83841157  1
  In  In9  1  0.16155261  0.67934177  0.50811684  1
  In  In10  1  0.48634602  0.01662120  0.46492881  1
  In  In11  1  0.16984781  0.84803726  0.67593297  1
  In  In12  1  0.15821175  0.00691641  0.48554158  1
  In  In13  1  0.66819660  0.15095638  0.18143223  1
  In  In14  1  0.34273003  0.17214736  0.17630553  1
  In  In15  1  0.35060999  0.35570634  0.64171412  1
  In  In16  1  0.34518546  0.01082790  -0.00099431  1
  In  In17  1  0.48168253  0.17272245  0.02618768  1
  In  In18  1  0.82107426  0.83717673  0.33229403  1
  In  In19  1  0.18699456  0.53742148  0.02927420  1
  In  In20  1  0.00893410  0.48573663  0.86124996  1
  In  In21  1  -0.00900504  -0.00639886  0.65150217  1
  In  In22  1  0.50934710  0.49700902  0.34692662  1
  In  In23  1  0.53598358  0.33264586  0.83062058  1
  In  In24  1  0.82692044  0.66490596  0.48723698  1
  In  In25  1  0.51173968  -0.02644780  0.82234708  1
  In  In26  1  0.16193549  0.82199134  0.34597364  1
  In  In27  1  0.68354136  0.50173471  0.48030263  1
  In  In28  1  0.50861759  0.52340468  0.68425234  1
  In  In29  1  0.84136401  0.51081202  0.66155511  1
  In  In30  1  0.80556157  0.70615756  0.83460927  1
  In  In31  1  0.52111673  0.66082508  0.50940710  1
  In  In32  1  -0.01267777  0.81892101  0.84228677  1
  In  In33  1  -0.00576640  0.50254007  0.17964662  1
  In  In34  1  0.18451085  0.01477120  0.17971984  1
  In  In35  1  0.35253734  0.82455573  0.16925855  1
  In  In36  1  0.48429094  0.18529172  0.65360642  1
  In  In37  1  -0.02179190  0.66797762  0.65771094  1
  In  In38  1  0.50899057  0.67153384  0.18315906  1
  In  In39  1  0.65919624  -0.03164061  0.00640262  1
  In  In40  1  0.82719736  -0.02254895  0.85854074  1
  In  In41  1  0.65414217  0.18270062  0.48575521  1
  In  In42  1  -0.01767422  0.82127272  0.16234173  1
  In  In43  1  0.34107112  0.48455562  0.50880219  1
  In  In44  1  0.85009573  0.35361927  0.82618061  1
  In  In45  1  0.16469514  0.48813379  0.31029946  1
  In  In46  1  0.81339208  0.64768230  0.18450954  1
  In  In47  1  0.50179117  0.35328292  0.16066709  1
  In  In48  1  0.66244267  -0.02039849  0.66511286  1
  In  In49  1  0.66815389  -0.01317770  0.32364954  1
  In  In50  1  0.85584880  0.17920427  0.33285446  1
  In  In51  1  0.18863593  0.48823269  0.67399641  1
  In  In52  1  0.66510994  0.66709390  0.02018182  1
  In  In53  1  0.49022271  0.80810244  0.68457200  1
  In  In54  1  0.15056186  0.81629670  -0.00104801  1
  In  In55  1  0.65058606  0.15643270  0.82241491  1
  In  In56  1  0.15078944  0.14297197  0.00553978  1
  In  In57  1  0.15471504  0.16664466  0.65036846  1
  In  In58  1  -0.01132189  0.01521357  0.32873622  1
  In  In59  1  0.83281072  -0.00687991  0.51243075  1
  In  In60  1  0.51220170  0.81548192  0.00640421  1
  In  In61  1  -0.00567273  0.33283306  0.00990083  1
  In  In62  1  0.51713831  0.83638216  0.31876917  1
  In  In63  1  0.32906923  0.84661445  0.50667892  1
  In  In64  1  0.00119197  0.49556947  0.47378878  1
  In  In65  1  0.19070931  0.33738554  0.85926385  1
  In  In66  1  0.81395785  0.16831631  0.62781085  1
  In  In67  1  0.83236845  0.19241393  0.01254442  1
  In  In68  1  0.32605598  0.67720443  0.33007493  1
  In  In69  1  0.00295886  0.13915244  0.80930756  1
  In  In70  1  0.50259372  0.34146641  0.47784484  1
  In  In71  1  -0.00322028  0.33958727  0.63664473  1
  Te  Te72  1  0.06468705  0.09254849  0.11951523  1
  Te  Te73  1  0.09142899  0.10431403  0.39255094  1
  Te  Te74  1  0.10486662  0.05101094  0.73849044  1
  Te  Te75  1  0.10255820  0.41216869  0.08043248  1
  Te  Te76  1  0.09294251  0.39838460  0.40651377  1
  Te  Te77  1  0.08079412  0.40330149  0.75446137  1
  Te  Te78  1  0.07937600  0.73044423  0.09486025  1
  Te  Te79  1  0.06317426  0.73876920  0.41665344  1
  Te  Te80  1  0.08698849  0.73655591  0.74795132  1
  Te  Te81  1  0.43083908  0.05949769  0.11498780  1
  Te  Te82  1  0.39045423  0.11023750  0.39903268  1
  Te  Te83  1  0.42332210  0.09038977  0.75817889  1
  Te  Te84  1  0.43000760  0.45633390  0.07913374  1
  Te  Te85  1  0.39256476  0.40530892  0.39031553  1
  Te  Te86  1  0.42689991  0.41656442  0.75808294  1
  Te  Te87  1  0.40267679  0.71566388  0.07133093  1
  Te  Te88  1  0.42161035  0.75376873  0.42359205  1
  Te  Te89  1  0.43359174  0.72187500  0.79551766  1
  Te  Te90  1  0.74799729  0.07998412  0.07181426  1
  Te  Te91  1  0.75306495  0.08266375  0.41730807  1
  Te  Te92  1  0.76084531  0.07562900  0.74836428  1
  Te  Te93  1  0.74595247  0.45164599  0.09800428  1
  Te  Te94  1  0.77924513  0.45299933  0.37208241  1
  Te  Te95  1  0.74406507  0.41766534  0.73719447  1
  Te  Te96  1  0.73759923  0.75798577  0.11478042  1
  Te  Te97  1  0.72944584  0.74078750  0.40096982  1
  Te  Te98  1  0.73835947  0.78081287  0.72828960  1
  Te  Te99  1  0.05762001  0.24297692  0.29318470  1
  Te  Te100  1  0.07852557  0.24805821  0.55422084  1
  Te  Te101  1  0.07531153  0.24365782  0.90654925  1
  Te  Te102  1  0.09010955  0.59619383  0.24361206  1
  Te  Te103  1  0.07938951  0.56890062  0.59389928  1
  Te  Te104  1  0.07627240  0.59657639  0.94022483  1
  Te  Te105  1  0.08473244  0.91523661  0.24552450  1
  Te  Te106  1  0.07988098  0.90123691  0.56530401  1
  Te  Te107  1  0.08369614  0.91948179  0.90594023  1
  Te  Te108  1  0.43673379  0.25730000  0.25320454  1
  Te  Te109  1  0.39506155  0.24193397  0.54420280  1
  Te  Te110  1  0.41998757  0.26558383  0.91634532  1
  Te  Te111  1  0.41093189  0.57595593  0.25661628  1
  Te  Te112  1  0.40984777  0.59466426  0.58979778  1
  Te  Te113  1  0.36681229  0.61842693  0.87948338  1
  Te  Te114  1  0.40021823  0.91694787  0.27429846  1
  Te  Te115  1  0.43810100  0.92581331  0.59289433  1
  Te  Te116  1  0.41814913  0.90291869  0.91861525  1
  Te  Te117  1  0.74202307  0.25631506  0.26386350  1
  Te  Te118  1  0.75237115  0.27546608  0.54824352  1
  Te  Te119  1  0.74684166  0.25621106  0.90174470  1
  Te  Te120  1  0.73245457  0.53408164  0.25212133  1
  Te  Te121  1  0.73555804  0.59410022  0.59165253  1
  Te  Te122  1  0.75863899  0.58988856  0.92233145  1
  Te  Te123  1  0.75183919  0.91443494  0.22508870  1
  Te  Te124  1  0.75427116  0.88999904  0.58738819  1
  Te  Te125  1  0.74816925  0.87545250  0.93164258  1
  Te  Te126  1  0.25065997  0.24081222  0.06824498  1
  Te  Te127  1  0.28412945  0.21101379  0.41668084  1
  Te  Te128  1  0.25217424  0.25870837  0.73487820  1
  Te  Te129  1  0.28964303  0.61060197  0.10324933  1
  Te  Te130  1  0.24859205  0.58259034  0.42588613  1
  Te  Te131  1  0.28298819  0.58350995  0.73987331  1
  Te  Te132  1  0.25075139  0.91733264  0.07944118  1
  Te  Te133  1  0.26008340  0.92885349  0.39886719  1
  Te  Te134  1  0.27402365  0.88773701  0.77379534  1
  Te  Te135  1  0.60283341  0.25427477  0.07261734  1
  Te  Te136  1  0.57069232  0.24880140  0.38253889  1
  Te  Te137  1  0.60400031  0.25863231  0.71560320  1
  Te  Te138  1  0.57046649  0.57402526  0.08903062  1
  Te  Te139  1  0.60575555  0.60716612  0.39559271  1
  Te  Te140  1  0.58794950  0.62177157  0.76516477  1
  Te  Te141  1  0.56888786  0.90832095  0.10634914  1
  Te  Te142  1  0.59051307  0.91020746  0.43222398  1
  Te  Te143  1  0.61937998  0.87702765  0.77434035  1
  Te  Te144  1  0.92903228  0.24727392  0.11697740  1
  Te  Te145  1  0.94749925  0.27769376  0.39550301  1
  Te  Te146  1  0.91396522  0.24327264  0.73837247  1
  Te  Te147  1  0.90831423  0.58271779  0.08990742  1
  Te  Te148  1  0.90539040  0.57683744  0.39383506  1
  Te  Te149  1  0.92062972  0.58129544  0.77170078  1
  Te  Te150  1  0.89965666  0.90555116  0.07242008  1
  Te  Te151  1  0.92361855  0.91206254  0.42005381  1
  Te  Te152  1  0.90697047  0.90798184  0.74641908  1
  Te  Te153  1  0.24245728  0.11679242  0.27595646  1
  Te  Te154  1  0.25919156  0.08162350  0.57363257  1
  Te  Te155  1  0.23701641  0.06652051  0.90454866  1
  Te  Te156  1  0.25719686  0.40059358  0.23404651  1
  Te  Te157  1  0.22621228  0.39494478  0.55973844  1
  Te  Te158  1  0.26489709  0.45568870  0.91363556  1
  Te  Te159  1  0.23371073  0.74785066  0.23136428  1
  Te  Te160  1  0.26229713  0.74790250  0.60103459  1
  Te  Te161  1  0.25867976  0.73890018  0.92760546  1
  Te  Te162  1  0.56986780  0.08456759  0.26912014  1
  Te  Te163  1  0.58367576  0.08441531  0.58352090  1
  Te  Te164  1  0.56832590  0.08097581  0.92782251  1
  Te  Te165  1  0.59918616  0.42333467  0.25223216  1
  Te  Te166  1  0.57508964  0.43876740  0.56968504  1
  Te  Te167  1  0.56321497  0.44974907  0.92558519  1
  Te  Te168  1  0.61817288  0.75315353  0.24591937  1
  Te  Te169  1  0.59471311  0.75695728  0.59369328  1
  Te  Te170  1  0.57432003  0.71866492  0.90936999  1
  Te  Te171  1  0.88704944  0.07095069  0.23747487  1
  Te  Te172  1  0.93343481  0.10113250  0.55948377  1
  Te  Te173  1  0.91739983  0.08999102  0.92643629  1
  Te  Te174  1  0.91770335  0.41258848  0.27406336  1
  Te  Te175  1  0.89352181  0.41552347  0.55478125  1
  Te  Te176  1  0.89509379  0.43151447  0.94947613  1
  Te  Te177  1  0.91274717  0.73302884  0.26478064  1
  Te  Te178  1  0.90596097  0.76080671  0.57119418  1
  Te  Te179  1  0.90914503  0.73736849  0.93575899  1
