# generated using pymatgen
data_In2Te3
_symmetry_space_group_name_H-M   'P 1'
_cell_length_a   18.83054536
_cell_length_b   18.81775943
_cell_length_c   18.81934197
_cell_angle_alpha   90.01670532
_cell_angle_beta   90.04218893
_cell_angle_gamma   89.99902252
_symmetry_Int_Tables_number   1
_chemical_formula_structural   In2Te3
_chemical_formula_sum   'In72 Te108'
_cell_volume   6668.60675222
_cell_formula_units_Z   36
loop_
 _symmetry_equiv_pos_site_id
 _symmetry_equiv_pos_as_xyz
  1  'x, y, z'
loop_
 _atom_site_type_symbol
 _atom_site_label
 _atom_site_symmetry_multiplicity
 _atom_site_fract_x
 _atom_site_fract_y
 _atom_site_fract_z
 _atom_site_occupancy
  In  In0  1  0.66230839  0.65679427  0.01477560  1
  In  In1  1  0.35133819  0.48482303  0.84562334  1
  In  In2  1  0.47581365  0.52500592  0.31449899  1
  In  In3  1  0.65567711  -0.03577431  0.67219672  1
  In  In4  1  0.65602669  0.48607939  0.83678809  1
  In  In5  1  0.34572478  0.83382056  0.16508772  1
  In  In6  1  0.32432999  0.67858815  0.65324513  1
  In  In7  1  0.33618517  0.33861040  0.33308637  1
  In  In8  1  0.83860343  0.67896981  0.50229723  1
  In  In9  1  0.16982143  0.50196289  0.66483792  1
  In  In10  1  0.49576346  -0.00110455  0.47986092  1
  In  In11  1  0.01245223  0.35742554  0.01129687  1
  In  In12  1  0.34147142  0.81153873  0.47110825  1
  In  In13  1  0.84659142  0.83259005  -0.01363582  1
  In  In14  1  0.68823796  0.84670094  0.81682003  1
  In  In15  1  -0.01469801  0.32997775  0.37228172  1
  In  In16  1  0.63188588  0.00449310  0.03304051  1
  In  In17  1  0.65839599  0.14016430  0.87428578  1
  In  In18  1  0.52414481  0.83783838  0.67374249  1
  In  In19  1  0.50308986  0.32937069  0.85249248  1
  In  In20  1  0.47011520  0.82930763  -0.00756566  1
  In  In21  1  0.48829424  0.15353202  0.31719499  1
  In  In22  1  0.32110776  -0.01609100  0.67840307  1
  In  In23  1  0.65332496  0.51602277  0.17071322  1
  In  In24  1  0.62010674  0.30436850  0.02103587  1
  In  In25  1  0.63613150  0.84157429  0.45712669  1
  In  In26  1  0.86175218  0.52695340  0.66652803  1
  In  In27  1  0.35056271  0.34534888  0.03574631  1
  In  In28  1  0.16404698  0.66797867  0.85882248  1
  In  In29  1  0.30083990  0.54136332  0.46029237  1
  In  In30  1  0.81996662  0.14811740  -0.00779395  1
  In  In31  1  0.86171594  0.32290527  0.84320177  1
  In  In32  1  -0.00980181  -0.00273052  0.33258784  1
  In  In33  1  0.01341901  0.54022670  0.17024919  1
  In  In34  1  0.84034221  0.84091118  0.32213781  1
  In  In35  1  0.17757213  0.34767636  0.83762684  1
  In  In36  1  0.17111307  0.34635681  0.16996847  1
  In  In37  1  0.64456905  0.50357975  0.48808514  1
  In  In38  1  0.49040354  0.32124768  0.51174979  1
  In  In39  1  0.67930183  0.33116470  0.66475183  1
  In  In40  1  0.83008340  0.00870295  0.46975920  1
  In  In41  1  0.02445294  -0.03176945  -0.01797379  1
  In  In42  1  0.83706638  0.18540966  0.67506502  1
  In  In43  1  0.49770286  0.65827896  0.85880010  1
  In  In44  1  0.87218085  0.34506429  0.47418522  1
  In  In45  1  0.49699545  0.68270644  0.46943799  1
  In  In46  1  0.17491920  0.82533397  0.33878189  1
  In  In47  1  0.15653098  0.14841850  0.67206692  1
  In  In48  1  -0.00684491  0.16494195  0.17244653  1
  In  In49  1  0.00529456  0.67092917  0.33391448  1
  In  In50  1  0.16943078  -0.02627140  0.49799812  1
  In  In51  1  0.02130559  0.50670420  0.51194596  1
  In  In52  1  0.65037348  0.80321329  0.20223305  1
  In  In53  1  0.17433072  0.34123372  0.50095909  1
  In  In54  1  0.67233689  0.14101544  0.47471579  1
  In  In55  1  0.18524412  0.14139006  0.30296393  1
  In  In56  1  -0.01142829  0.17519150  0.49906286  1
  In  In57  1  0.84920376  0.49651603  0.01919982  1
  In  In58  1  0.82534053  0.49988100  0.30434594  1
  In  In59  1  0.81775482  0.32893805  0.17853023  1
  In  In60  1  0.03155642  0.81538463  0.12821576  1
  In  In61  1  0.85755733  0.83793019  0.64796562  1
  In  In62  1  0.31965222  0.15471874  0.83907386  1
  In  In63  1  0.85563269  0.67296053  0.83064749  1
  In  In64  1  0.18373075  0.17210694  -0.00457494  1
  In  In65  1  0.48620390  0.17849126  0.66182594  1
  In  In66  1  0.84208481  0.00727646  0.81946663  1
  In  In67  1  0.19470955  -0.00733078  0.15939644  1
  In  In68  1  0.31197842  0.82690550  0.84659273  1
  In  In69  1  0.01427731  -0.01093883  0.68862778  1
  In  In70  1  0.48125160  0.51904507  0.70143974  1
  In  In71  1  0.65515021  0.33663236  0.29729942  1
  Te  Te72  1  0.08521235  0.08261537  0.08245697  1
  Te  Te73  1  0.08549164  0.08810188  0.41596850  1
  Te  Te74  1  0.09607514  0.06962634  0.78071259  1
  Te  Te75  1  0.10566263  0.45400147  0.08296826  1
  Te  Te76  1  0.09805576  0.42992472  0.40397831  1
  Te  Te77  1  0.08481609  0.43489753  0.76361451  1
  Te  Te78  1  0.11433174  0.70116946  0.06972503  1
  Te  Te79  1  0.08522914  0.75119244  0.43073361  1
  Te  Te80  1  0.10655256  0.77761531  0.77634128  1
  Te  Te81  1  0.46880588  0.08847271  0.09403175  1
  Te  Te82  1  0.40883698  0.10737603  0.43270924  1
  Te  Te83  1  0.41893294  0.07595026  0.75260622  1
  Te  Te84  1  0.45880476  0.43869585  0.07056846  1
  Te  Te85  1  0.42376772  0.43095659  0.42652880  1
  Te  Te86  1  0.41303479  0.38968941  0.74306778  1
  Te  Te87  1  0.43335666  0.73019572  0.09743976  1
  Te  Te88  1  0.40613924  0.73166621  0.35835876  1
  Te  Te89  1  0.42212775  0.75235800  0.75524153  1
  Te  Te90  1  0.73741941  0.08649519  0.09632376  1
  Te  Te91  1  0.71651291  0.03811577  0.37733650  1
  Te  Te92  1  0.73836073  0.08757227  0.74213819  1
  Te  Te93  1  0.73377203  0.41401407  0.08006944  1
  Te  Te94  1  0.74352800  0.41405241  0.40892675  1
  Te  Te95  1  0.76737105  0.42266893  0.74955396  1
  Te  Te96  1  0.74451202  0.76798602  0.07989231  1
  Te  Te97  1  0.74705843  0.74962772  0.40288853  1
  Te  Te98  1  0.76268186  0.74663695  0.73246510  1
  Te  Te99  1  0.08363239  0.25506621  0.25805549  1
  Te  Te100  1  0.08226196  0.25652905  0.58780232  1
  Te  Te101  1  0.08356316  0.25743100  0.91977523  1
  Te  Te102  1  0.11383102  0.58389083  0.27432185  1
  Te  Te103  1  0.10250689  0.60610837  0.58415301  1
  Te  Te104  1  0.05780722  0.61503322  0.95270802  1
  Te  Te105  1  0.08343379  0.91698136  0.24253280  1
  Te  Te106  1  0.07468791  0.90289649  0.58506238  1
  Te  Te107  1  0.10011044  0.87353894  0.89909822  1
  Te  Te108  1  0.42020019  0.26126280  0.23730579  1
  Te  Te109  1  0.38498361  0.24303012  0.57717808  1
  Te  Te110  1  0.40405577  0.24645104  0.93129768  1
  Te  Te111  1  0.35664715  0.57344478  0.23628175  1
  Te  Te112  1  0.42470162  0.59382223  0.57314283  1
  Te  Te113  1  0.39949444  0.58743401  0.94107618  1
  Te  Te114  1  0.41294570  0.92235471  0.26405315  1
  Te  Te115  1  0.41884668  0.90453554  0.58184817  1
  Te  Te116  1  0.38436898  0.93185447  0.92639864  1
  Te  Te117  1  0.73617068  0.22580099  0.24424521  1
  Te  Te118  1  0.75366451  0.24740735  0.56148515  1
  Te  Te119  1  0.74030511  0.26750224  0.91728109  1
  Te  Te120  1  0.75574857  0.60612464  0.23022482  1
  Te  Te121  1  0.74797190  0.57661069  0.57471796  1
  Te  Te122  1  0.75445569  0.58064544  0.91493197  1
  Te  Te123  1  0.73704183  0.91695900  0.24802611  1
  Te  Te124  1  0.74597884  0.91017768  0.56178488  1
  Te  Te125  1  0.74746424  0.93834442  0.92452019  1
  Te  Te126  1  0.26142323  0.24043547  0.10672220  1
  Te  Te127  1  0.24206051  0.24299616  0.40613191  1
  Te  Te128  1  0.24801373  0.25050466  0.74417726  1
  Te  Te129  1  0.26058763  0.63429721  0.12271028  1
  Te  Te130  1  0.21620626  0.63695789  0.38671456  1
  Te  Te131  1  0.26608821  0.58815761  0.76208732  1
  Te  Te132  1  0.25088228  0.89380782  0.06591232  1
  Te  Te133  1  0.27305281  0.92893627  0.39394114  1
  Te  Te134  1  0.21944170  0.90236663  0.75356927  1
  Te  Te135  1  0.54471667  0.22070060  0.11833345  1
  Te  Te136  1  0.58529336  0.25394985  0.41362387  1
  Te  Te137  1  0.59532534  0.24494497  0.75881969  1
  Te  Te138  1  0.55330259  0.60637761  0.10318840  1
  Te  Te139  1  0.59695169  0.59886234  0.38017491  1
  Te  Te140  1  0.59860285  0.60015284  0.75196419  1
  Te  Te141  1  0.56620863  0.88543076  0.09895139  1
  Te  Te142  1  0.53318983  0.90665190  0.36481866  1
  Te  Te143  1  0.56248466  0.93279458  0.78849627  1
  Te  Te144  1  0.91075893  0.25792996  0.07019173  1
  Te  Te145  1  0.88623593  0.21292384  0.39201782  1
  Te  Te146  1  0.94606833  0.24064378  0.75592629  1
  Te  Te147  1  0.89602479  0.60558822  0.10668757  1
  Te  Te148  1  0.91119795  0.56740263  0.41403218  1
  Te  Te149  1  0.95744829  0.60622297  0.74571927  1
  Te  Te150  1  0.92399726  0.91952462  0.08638735  1
  Te  Te151  1  0.92919903  0.89914150  0.43220184  1
  Te  Te152  1  0.92470922  0.88977542  0.77415227  1
  Te  Te153  1  0.29650162  0.06985220  0.23544451  1
  Te  Te154  1  0.25171468  0.07563042  0.57721800  1
  Te  Te155  1  0.25916472  0.05871533  0.93576597  1
  Te  Te156  1  0.27293469  0.43688684  0.23579733  1
  Te  Te157  1  0.27020887  0.43691457  0.57080979  1
  Te  Te158  1  0.25192813  0.42472124  0.94565364  1
  Te  Te159  1  0.22394407  0.74781571  0.21372627  1
  Te  Te160  1  0.24260559  0.77003081  0.57309486  1
  Te  Te161  1  0.26019484  0.73477740  0.95240202  1
  Te  Te162  1  0.56290550  0.07648297  0.21419891  1
  Te  Te163  1  0.58431406  0.08052297  0.58670281  1
  Te  Te164  1  0.53900796  0.08525634  0.94512097  1
  Te  Te165  1  0.54674216  0.41689636  0.22856445  1
  Te  Te166  1  0.57532728  0.42372081  0.60236819  1
  Te  Te167  1  0.55829688  0.43945064  0.94739059  1
  Te  Te168  1  0.54107699  0.73313797  0.27751554  1
  Te  Te169  1  0.59383443  0.74761822  0.57100436  1
  Te  Te170  1  0.59826200  0.76150444  0.91367875  1
  Te  Te171  1  0.90197598  0.07447946  0.24334256  1
  Te  Te172  1  0.91146110  0.07400760  0.58980260  1
  Te  Te173  1  0.93232005  0.07981218  0.91769714  1
  Te  Te174  1  0.93173175  0.41287172  0.23755087  1
  Te  Te175  1  0.93476743  0.41119086  0.59704329  1
  Te  Te176  1  0.93573785  0.44066765  0.90652989  1
  Te  Te177  1  0.93256599  0.75755375  0.23203772  1
  Te  Te178  1  0.94111217  0.72472819  0.59937739  1
  Te  Te179  1  0.94245398  0.72433049  0.94421275  1
