# generated using pymatgen
data_In2Te3
_symmetry_space_group_name_H-M   'P 1'
_cell_length_a   18.85688291
_cell_length_b   18.84828589
_cell_length_c   18.86607346
_cell_angle_alpha   89.88462178
_cell_angle_beta   90.19640143
_cell_angle_gamma   89.98757294
_symmetry_Int_Tables_number   1
_chemical_formula_structural   In2Te3
_chemical_formula_sum   'In72 Te108'
_cell_volume   6705.32516566
_cell_formula_units_Z   36
loop_
 _symmetry_equiv_pos_site_id
 _symmetry_equiv_pos_as_xyz
  1  'x, y, z'
loop_
 _atom_site_type_symbol
 _atom_site_label
 _atom_site_symmetry_multiplicity
 _atom_site_fract_x
 _atom_site_fract_y
 _atom_site_fract_z
 _atom_site_occupancy
  In  In0  1  0.17715272  0.37234264  0.80881548  1
  In  In1  1  0.33522939  0.66162947  0.67662359  1
  In  In2  1  0.85052076  0.35806892  0.83610293  1
  In  In3  1  0.62948290  0.13896078  0.18383059  1
  In  In4  1  0.66635729  0.66135841  0.66020463  1
  In  In5  1  0.83499416  0.00513546  0.16976809  1
  In  In6  1  0.66069921  0.83366028  0.82522564  1
  In  In7  1  0.18136927  0.65994122  0.49820108  1
  In  In8  1  0.67830673  0.32103275  0.35549988  1
  In  In9  1  0.82569078  0.66858336  0.50975362  1
  In  In10  1  0.16297637  0.52734414  0.66131814  1
  In  In11  1  0.18944867  -0.01478796  0.14839514  1
  In  In12  1  0.65412201  -0.00632129  0.32723713  1
  In  In13  1  0.49025606  0.34228502  0.16682989  1
  In  In14  1  0.64601819  0.15953412  0.49451220  1
  In  In15  1  0.16338402  0.36118161  0.15657899  1
  In  In16  1  -0.00340360  0.81558721  0.16450628  1
  In  In17  1  0.17730760  0.33119136  0.50016070  1
  In  In18  1  0.48076887  0.49701429  0.66454917  1
  In  In19  1  0.30094150  0.68649163  -0.01910121  1
  In  In20  1  0.00748512  0.18027801  0.16837914  1
  In  In21  1  0.84412757  0.65313617  0.82985846  1
  In  In22  1  0.48300568  0.83260694  -0.00004268  1
  In  In23  1  0.37786769  0.84037239  0.19859628  1
  In  In24  1  0.84178106  0.33573369  0.17401770  1
  In  In25  1  0.31887094  0.34860120  0.00007858  1
  In  In26  1  0.49373580  0.66997629  0.85966974  1
  In  In27  1  0.66119892  0.34484596  0.65904783  1
  In  In28  1  0.38192882  0.65183393  0.33428389  1
  In  In29  1  0.33696836  -0.00461606  0.68140762  1
  In  In30  1  0.81919694  0.36134265  0.48262250  1
  In  In31  1  0.51041699  0.80781468  0.65497470  1
  In  In32  1  0.00933419  -0.01203060  0.38028865  1
  In  In33  1  0.51130688  -0.00709910  0.49140066  1
  In  In34  1  0.00333817  0.66070217  0.32311805  1
  In  In35  1  0.63327030  0.53552562  0.17418598  1
  In  In36  1  0.33224819  0.15794741  0.84481711  1
  In  In37  1  0.36896321  0.13584062  0.14864155  1
  In  In38  1  0.35181066  0.32380676  0.66476123  1
  In  In39  1  0.06114795  0.80643508  0.83718389  1
  In  In40  1  0.81499191  0.49399423  0.32391636  1
  In  In41  1  0.18222670  0.01127480  0.83750632  1
  In  In42  1  0.62803629  0.80289281  0.17710800  1
  In  In43  1  0.17042519  0.16157144  -0.00848498  1
  In  In44  1  0.49406339  0.35671380  0.83382325  1
  In  In45  1  0.35855797  0.51213486  0.48954491  1
  In  In46  1  -0.01020073  0.19769909  0.83892022  1
  In  In47  1  0.16833167  0.84386629  0.32449426  1
  In  In48  1  0.84137513  0.00866374  0.78210502  1
  In  In49  1  0.65495320  0.33826572  0.00345655  1
  In  In50  1  -0.00833754  0.33567824  0.69500166  1
  In  In51  1  0.01911810  0.48792599  0.50362262  1
  In  In52  1  0.00185093  0.13944959  0.48087850  1
  In  In53  1  0.49736013  -0.01110297  0.82534072  1
  In  In54  1  0.35803039  0.16014375  0.51963968  1
  In  In55  1  0.83216481  0.81580645  0.34460145  1
  In  In56  1  0.64345710  -0.02638641  -0.01912402  1
  In  In57  1  -0.01553330  0.82700456  0.52566201  1
  In  In58  1  0.33351439  0.35516958  0.32851911  1
  In  In59  1  0.02177317  0.64434287  -0.01802766  1
  In  In60  1  0.66837249  0.48238802  0.84608628  1
  In  In61  1  -0.01200957  -0.01391490  0.64444495  1
  In  In62  1  0.00143991  -0.01190424  -0.04294853  1
  In  In63  1  0.82760725  0.18424804  0.03278570  1
  In  In64  1  0.81772083  0.16066032  0.35749422  1
  In  In65  1  0.00960001  0.34524690  0.30733050  1
  In  In66  1  0.17864818  0.65614544  0.16622910  1
  In  In67  1  0.81192058  0.81648724  0.00253526  1
  In  In68  1  0.33006328  0.81815167  0.47259079  1
  In  In69  1  0.65963614  0.14633429  0.84183524  1
  In  In70  1  0.84413552  0.51306993  -0.00189249  1
  In  In71  1  0.15208165  0.15249282  0.65366644  1
  Te  Te72  1  0.06969419  0.07890112  0.07196363  1
  Te  Te73  1  0.11373439  0.08914549  0.40269876  1
  Te  Te74  1  0.06966546  0.08723824  0.76342507  1
  Te  Te75  1  0.05152169  0.40077448  0.07058261  1
  Te  Te76  1  0.10697104  0.42170675  0.39962432  1
  Te  Te77  1  0.05566034  0.46121354  0.75831406  1
  Te  Te78  1  0.09534854  0.74813095  0.07676399  1
  Te  Te79  1  0.08010948  0.75662986  0.41563674  1
  Te  Te80  1  0.10648647  0.69305381  0.75526627  1
  Te  Te81  1  0.45619939  0.04709329  0.07229137  1
  Te  Te82  1  0.40407486  0.06408206  0.41330882  1
  Te  Te83  1  0.42751385  0.10180862  0.74224491  1
  Te  Te84  1  0.40210167  0.43340409  0.08939199  1
  Te  Te85  1  0.43813883  0.41278236  0.41687940  1
  Te  Te86  1  0.38322197  0.43558970  0.76415077  1
  Te  Te87  1  0.41607822  0.73036286  0.09192291  1
  Te  Te88  1  0.45426277  0.76888673  0.40397586  1
  Te  Te89  1  0.41462476  0.75984458  0.76375736  1
  Te  Te90  1  0.72958826  0.06984947  0.07568254  1
  Te  Te91  1  0.74536103  0.05682729  0.43620396  1
  Te  Te92  1  0.72072428  0.08463559  0.71877796  1
  Te  Te93  1  0.74918225  0.42354797  0.08748935  1
  Te  Te94  1  0.70929086  0.45195144  0.42738674  1
  Te  Te95  1  0.75970972  0.43356239  0.73756094  1
  Te  Te96  1  0.72848927  0.73537526  0.09180286  1
  Te  Te97  1  0.73462511  0.72292829  0.40482227  1
  Te  Te98  1  0.75887321  0.75074491  0.74561057  1
  Te  Te99  1  0.11153349  0.24602667  0.25490613  1
  Te  Te100  1  0.06922911  0.25964899  0.58164061  1
  Te  Te101  1  0.10771492  0.26801166  0.90258869  1
  Te  Te102  1  0.08638442  0.57032365  0.24362878  1
  Te  Te103  1  0.06305388  0.61133503  0.58124632  1
  Te  Te104  1  0.13594992  0.57538113  0.92035070  1
  Te  Te105  1  0.06476008  0.92613697  0.24472415  1
  Te  Te106  1  0.09341231  0.91579441  0.57137070  1
  Te  Te107  1  0.12502834  0.90471092  0.94266794  1
  Te  Te108  1  0.40919027  0.24477653  0.24979719  1
  Te  Te109  1  0.45004653  0.26245098  0.57610623  1
  Te  Te110  1  0.41521294  0.25928361  0.92277118  1
  Te  Te111  1  0.45541448  0.56004572  0.23353307  1
  Te  Te112  1  0.43637501  0.61355195  0.57371378  1
  Te  Te113  1  0.38628929  0.58545882  0.91133834  1
  Te  Te114  1  0.42643082  0.94200962  0.29631942  1
  Te  Te115  1  0.41231485  0.90346438  0.58216025  1
  Te  Te116  1  0.40357173  0.89854935  0.89415278  1
  Te  Te117  1  0.74936606  0.22837381  0.23623184  1
  Te  Te118  1  0.74373392  0.25828846  0.56493730  1
  Te  Te119  1  0.74847084  0.25840336  0.91342946  1
  Te  Te120  1  0.73628598  0.60135001  0.25788562  1
  Te  Te121  1  0.75035515  0.56627243  0.58656287  1
  Te  Te122  1  0.73760143  0.59355528  0.92276450  1
  Te  Te123  1  0.74718028  0.90207701  0.23860183  1
  Te  Te124  1  0.79145212  0.96165501  0.65143900  1
  Te  Te125  1  0.76614888  0.92948752  0.89969248  1
  Te  Te126  1  0.25283422  0.24333780  0.09027403  1
  Te  Te127  1  0.27026959  0.24477529  0.42344095  1
  Te  Te128  1  0.24113296  0.24088087  0.74248204  1
  Te  Te129  1  0.27367219  0.57903394  0.08280709  1
  Te  Te130  1  0.25695158  0.57997851  0.39783813  1
  Te  Te131  1  0.23354435  0.60221848  0.77390154  1
  Te  Te132  1  0.28529401  0.88907044  0.09349716  1
  Te  Te133  1  0.26254278  0.92843972  0.40010750  1
  Te  Te134  1  0.23481782  0.91058918  0.74498462  1
  Te  Te135  1  0.57274037  0.23994130  0.08402392  1
  Te  Te136  1  0.57156157  0.22690989  0.38652940  1
  Te  Te137  1  0.58747359  0.26101447  0.76342490  1
  Te  Te138  1  0.52582812  0.61173157  0.10543029  1
  Te  Te139  1  0.52447959  0.59648418  0.36602618  1
  Te  Te140  1  0.57577119  0.57753814  0.76030006  1
  Te  Te141  1  0.56241369  0.92130438  0.10229205  1
  Te  Te142  1  0.61156149  0.89910454  0.43367841  1
  Te  Te143  1  0.58901079  0.92056920  0.72525198  1
  Te  Te144  1  0.94802258  0.28120555  0.06698203  1
  Te  Te145  1  0.92025046  0.26829058  0.40546827  1
  Te  Te146  1  0.88274923  0.23920616  0.73889976  1
  Te  Te147  1  0.92258223  0.60431685  0.08312538  1
  Te  Te148  1  0.91919148  0.56995050  0.41630439  1
  Te  Te149  1  0.92535331  0.54961886  0.76949923  1
  Te  Te150  1  0.91601862  0.91856288  0.07345620  1
  Te  Te151  1  0.89088340  0.91688038  0.44153963  1
  Te  Te152  1  0.95674863  0.90631834  0.76957602  1
  Te  Te153  1  0.26237019  0.07807877  0.23270003  1
  Te  Te154  1  0.24791802  0.06787385  0.57809580  1
  Te  Te155  1  0.27759529  0.06145697  0.94750848  1
  Te  Te156  1  0.26126860  0.44179424  0.23166044  1
  Te  Te157  1  0.25617346  0.43042646  0.58647725  1
  Te  Te158  1  0.21689979  0.44131611  0.93685383  1
  Te  Te159  1  0.26382815  0.74503239  0.26009239  1
  Te  Te160  1  0.25098137  0.75720982  0.59033145  1
  Te  Te161  1  0.20382807  0.76863403  0.89604839  1
  Te  Te162  1  0.53111810  0.05355278  0.26039298  1
  Te  Te163  1  0.57206444  0.07974772  0.59495706  1
  Te  Te164  1  0.54912875  0.08779165  0.93308433  1
  Te  Te165  1  0.60604317  0.40330282  0.24439899  1
  Te  Te166  1  0.56215161  0.41536387  0.57249540  1
  Te  Te167  1  0.55921850  0.44138410  0.94425855  1
  Te  Te168  1  0.54847330  0.73369730  0.28249292  1
  Te  Te169  1  0.61866323  0.76486296  0.56399039  1
  Te  Te170  1  0.59730963  0.75149787  0.93586921  1
  Te  Te171  1  0.92025267  0.09087538  0.26223628  1
  Te  Te172  1  0.90599545  0.09098357  0.57992629  1
  Te  Te173  1  0.90530439  0.10310859  0.92674335  1
  Te  Te174  1  0.92706360  0.44839034  0.23089960  1
  Te  Te175  1  0.91487814  0.41730982  0.58723620  1
  Te  Te176  1  0.94462697  0.42734462  0.92788155  1
  Te  Te177  1  0.89602287  0.72924586  0.23656237  1
  Te  Te178  1  0.89962063  0.74550343  0.61296228  1
  Te  Te179  1  0.92540795  0.75598043  0.91897484  1
