# generated using pymatgen
data_In2Te3
_symmetry_space_group_name_H-M   'P 1'
_cell_length_a   18.97879698
_cell_length_b   18.97892428
_cell_length_c   18.99759725
_cell_angle_alpha   90.18167615
_cell_angle_beta   89.69549199
_cell_angle_gamma   90.05620302
_symmetry_Int_Tables_number   1
_chemical_formula_structural   In2Te3
_chemical_formula_sum   'In72 Te108'
_cell_volume   6842.74618160
_cell_formula_units_Z   36
loop_
 _symmetry_equiv_pos_site_id
 _symmetry_equiv_pos_as_xyz
  1  'x, y, z'
loop_
 _atom_site_type_symbol
 _atom_site_label
 _atom_site_symmetry_multiplicity
 _atom_site_fract_x
 _atom_site_fract_y
 _atom_site_fract_z
 _atom_site_occupancy
  In  In0  1  -0.00229344  0.87819681  0.52653824  1
  In  In1  1  0.33137883  -0.00125451  0.66339846  1
  In  In2  1  0.31233348  0.14983393  0.82542451  1
  In  In3  1  0.00698469  0.00741424  0.00299974  1
  In  In4  1  0.67103319  0.82528697  0.50749975  1
  In  In5  1  0.33971755  0.35628382  0.33053227  1
  In  In6  1  0.51423900  0.64440843  0.81943180  1
  In  In7  1  0.34907874  0.35972446  0.64941613  1
  In  In8  1  0.81590050  0.51680674  0.32463908  1
  In  In9  1  0.83214320  0.68204795  0.81671176  1
  In  In10  1  0.17712490  0.82180912  0.66854630  1
  In  In11  1  0.50733945  0.83262822  0.67647626  1
  In  In12  1  0.18880574  0.16519273  0.00706076  1
  In  In13  1  0.02570621  0.20751125  0.18554550  1
  In  In14  1  0.53095633  0.32837095  0.50561280  1
  In  In15  1  0.80602244  0.81635386  -0.00585952  1
  In  In16  1  0.67170441  0.16345398  0.83291425  1
  In  In17  1  0.54026313  0.35577366  0.19545045  1
  In  In18  1  0.14730751  0.18352447  0.68166420  1
  In  In19  1  0.35160937  0.31432115  0.03236320  1
  In  In20  1  -0.00909870  0.51861267  0.15512514  1
  In  In21  1  0.48935466  -0.01627562  0.83790940  1
  In  In22  1  0.48225948  0.63525966  0.52958734  1
  In  In23  1  0.33906092  0.14824052  0.18452684  1
  In  In24  1  -0.01843297  0.63388246  -0.02620581  1
  In  In25  1  0.81124208  0.65207926  0.48152446  1
  In  In26  1  0.34872934  0.84392463  0.15487560  1
  In  In27  1  0.18973768  0.34710669  0.47569245  1
  In  In28  1  0.80100309  0.35102127  0.17935406  1
  In  In29  1  -0.00555259  0.69147161  0.34344946  1
  In  In30  1  0.79421361  0.81542289  0.35113659  1
  In  In31  1  0.30681658  0.49863439  0.81790608  1
  In  In32  1  -0.01312886  0.47041847  0.52743047  1
  In  In33  1  0.35584149  0.80603860  0.46832585  1
  In  In34  1  0.82554671  0.83665810  0.67452561  1
  In  In35  1  0.54635395  0.04324073  0.51584400  1
  In  In36  1  0.83965031  -0.00243192  0.85508854  1
  In  In37  1  0.81859656  -0.00302965  0.47823538  1
  In  In38  1  0.49962171  0.14698919  0.01900232  1
  In  In39  1  0.15326538  0.83092484  -0.00551374  1
  In  In40  1  0.65708339  0.50475097  0.51369218  1
  In  In41  1  0.14975258  0.36122061  0.82392801  1
  In  In42  1  -0.01318745  0.04714211  0.70224586  1
  In  In43  1  0.66886688  0.16860824  0.16147922  1
  In  In44  1  -0.00773727  0.01478126  0.31052899  1
  In  In45  1  0.49971910  0.61259877  0.19354185  1
  In  In46  1  0.84143689  0.34102406  0.51226325  1
  In  In47  1  0.53038191  0.84946264  0.01759589  1
  In  In48  1  0.48189879  0.46947503  -0.02293641  1
  In  In49  1  0.65774312  0.01201046  0.32550106  1
  In  In50  1  -0.01882825  0.67051174  0.64546245  1
  In  In51  1  0.18308304  0.02661908  0.50182744  1
  In  In52  1  0.17958594  0.64082124  0.48029380  1
  In  In53  1  0.68965150  0.48261617  0.80092165  1
  In  In54  1  0.83133320  0.23607261  0.70363010  1
  In  In55  1  0.18347159  0.50266973  0.33986499  1
  In  In56  1  0.83172344  0.18412845  -0.00382927  1
  In  In57  1  -0.01287844  0.18589868  0.50209141  1
  In  In58  1  0.83354482  0.01331414  0.16796543  1
  In  In59  1  0.33860235  0.20583306  0.47440947  1
  In  In60  1  -0.02031627  0.80756261  0.17448536  1
  In  In61  1  0.33556874  0.80128747  0.83873680  1
  In  In62  1  0.16001381  0.83123249  0.32698452  1
  In  In63  1  0.00106553  0.34269384  -0.01279097  1
  In  In64  1  0.51791396  0.30468284  0.82700782  1
  In  In65  1  0.51333912  0.15757258  0.34671503  1
  In  In66  1  0.16923701  0.50600531  -0.00425219  1
  In  In67  1  0.83245325  0.47691664  0.00022161  1
  In  In68  1  0.18515823  0.67610448  0.16642904  1
  In  In69  1  0.66121043  0.66709779  -0.00095544  1
  In  In70  1  0.35589121  -0.01253232  0.31474433  1
  In  In71  1  0.33472605  0.69037106  0.00772591  1
  Te  Te72  1  0.08468943  0.09778992  0.09666420  1
  Te  Te73  1  0.07221312  0.08416564  0.41852391  1
  Te  Te74  1  0.10546844  0.08287279  0.77849922  1
  Te  Te75  1  0.08438793  0.42009378  0.08874716  1
  Te  Te76  1  0.07541772  0.42176726  0.41056993  1
  Te  Te77  1  0.05388215  0.38502491  0.71707505  1
  Te  Te78  1  0.06801048  0.72401071  0.08129344  1
  Te  Te79  1  0.08388694  0.76566546  0.44284080  1
  Te  Te80  1  0.07373612  0.74275733  0.73388341  1
  Te  Te81  1  0.38970544  0.06569095  0.07287259  1
  Te  Te82  1  0.41807586  0.07284156  0.43527474  1
  Te  Te83  1  0.42369260  0.08708257  0.74383680  1
  Te  Te84  1  0.42895809  0.41744288  0.10994560  1
  Te  Te85  1  0.42992129  0.41391923  0.43128574  1
  Te  Te86  1  0.42269484  0.41064183  0.77007461  1
  Te  Te87  1  0.44808459  0.73998857  0.09411756  1
  Te  Te88  1  0.46149665  0.72266587  0.41268617  1
  Te  Te89  1  0.41544890  0.72553727  0.73647428  1
  Te  Te90  1  0.74579271  0.07943810  0.06512840  1
  Te  Te91  1  0.75992902  0.09446492  0.38890492  1
  Te  Te92  1  0.78282394  0.09620459  0.75522132  1
  Te  Te93  1  0.72229294  0.42561347  0.08264520  1
  Te  Te94  1  0.74935505  0.42485527  0.42219900  1
  Te  Te95  1  0.76707336  0.37401588  0.73403257  1
  Te  Te96  1  0.72010135  0.75869367  0.10096671  1
  Te  Te97  1  0.69627206  0.71134585  0.40451761  1
  Te  Te98  1  0.72850172  0.76206583  0.75274061  1
  Te  Te99  1  0.10088250  0.27062942  0.29023658  1
  Te  Te100  1  0.09476059  0.26869441  0.56928334  1
  Te  Te101  1  0.10098212  0.25242376  0.91743298  1
  Te  Te102  1  0.08470572  0.59877639  0.25838609  1
  Te  Te103  1  0.08411521  0.57490710  0.57964189  1
  Te  Te104  1  0.07853471  0.55853507  0.89416400  1
  Te  Te105  1  0.07500453  0.91188442  0.23205607  1
  Te  Te106  1  0.10769180  0.94578862  0.60650401  1
  Te  Te107  1  0.07913444  0.92216944  0.90858907  1
  Te  Te108  1  0.43498174  0.25364472  0.25736102  1
  Te  Te109  1  0.42884336  0.24668006  0.58727421  1
  Te  Te110  1  0.41182203  0.23359961  0.91809829  1
  Te  Te111  1  0.37911331  0.56927977  0.26462679  1
  Te  Te112  1  0.37510700  0.55750136  0.60332762  1
  Te  Te113  1  0.40015350  0.58511443  0.91022457  1
  Te  Te114  1  0.45233548  0.89532630  0.25024422  1
  Te  Te115  1  0.40775205  0.89752035  0.58193328  1
  Te  Te116  1  0.41062577  0.89394596  0.93139347  1
  Te  Te117  1  0.71956823  0.26129596  0.26519530  1
  Te  Te118  1  0.76064755  0.22752065  0.57070310  1
  Te  Te119  1  0.74599016  0.26373617  0.91061798  1
  Te  Te120  1  0.70776505  0.55460783  0.23001981  1
  Te  Te121  1  0.75922587  0.57769891  0.59589073  1
  Te  Te122  1  0.75110130  0.58204607  0.90896613  1
  Te  Te123  1  0.74705881  0.91589879  0.24738856  1
  Te  Te124  1  0.74101574  0.93137137  0.59041068  1
  Te  Te125  1  0.73485251  0.91846332  0.91985516  1
  Te  Te126  1  0.24638797  0.25036632  0.11883009  1
  Te  Te127  1  0.22822092  0.23538036  0.37429923  1
  Te  Te128  1  0.25639074  0.27349892  0.74628992  1
  Te  Te129  1  0.26882552  0.57907357  0.08646045  1
  Te  Te130  1  0.29320719  0.59091215  0.39264631  1
  Te  Te131  1  0.26527573  0.58165583  0.70754792  1
  Te  Te132  1  0.23105183  0.90363765  0.09400298  1
  Te  Te133  1  0.24988744  0.91713246  0.42032913  1
  Te  Te134  1  0.26062284  0.90910485  0.76276719  1
  Te  Te135  1  0.58003636  0.25967647  0.07964459  1
  Te  Te136  1  0.60877961  0.25371391  0.40242472  1
  Te  Te137  1  0.58784357  0.22312248  0.72498918  1
  Te  Te138  1  0.56271343  0.56819073  0.05855034  1
  Te  Te139  1  0.53903269  0.53682019  0.42049772  1
  Te  Te140  1  0.58318971  0.55252479  0.72570465  1
  Te  Te141  1  0.55573819  0.94357723  0.12652341  1
  Te  Te142  1  0.58580853  0.92577315  0.42931144  1
  Te  Te143  1  0.58084835  0.94820676  0.72800939  1
  Te  Te144  1  0.91182108  0.27132367  0.09267654  1
  Te  Te145  1  0.91658353  0.26984285  0.40714970  1
  Te  Te146  1  0.96115836  0.27744890  0.76264653  1
  Te  Te147  1  0.88474445  0.59611665  0.08422101  1
  Te  Te148  1  0.93186761  0.57591589  0.42119988  1
  Te  Te149  1  0.91814239  0.58551590  0.74703216  1
  Te  Te150  1  0.91048594  0.90981278  0.08518993  1
  Te  Te151  1  0.91620904  0.90867567  0.38968931  1
  Te  Te152  1  0.92551699  0.91822228  0.75384954  1
  Te  Te153  1  0.24556849  0.06369684  0.26057800  1
  Te  Te154  1  0.26204060  0.11989353  0.59024167  1
  Te  Te155  1  0.27076054  0.06437386  0.93639718  1
  Te  Te156  1  0.25544404  0.42791469  0.23499494  1
  Te  Te157  1  0.26142318  0.44465240  0.56417390  1
  Te  Te158  1  0.26275090  0.39948443  0.93673375  1
  Te  Te159  1  0.27205407  0.75638485  0.25955068  1
  Te  Te160  1  0.25630803  0.74233691  0.56403418  1
  Te  Te161  1  0.22486936  0.72542926  0.90992877  1
  Te  Te162  1  0.56052967  0.07278414  0.22119047  1
  Te  Te163  1  0.63164218  0.13935251  0.58315172  1
  Te  Te164  1  0.58387138  0.07075531  0.92011643  1
  Te  Te165  1  0.58562392  0.46700993  0.28311835  1
  Te  Te166  1  0.59007742  0.41457649  0.61039151  1
  Te  Te167  1  0.59806406  0.40820120  0.90294428  1
  Te  Te168  1  0.62456960  0.68539236  0.22333298  1
  Te  Te169  1  0.58624969  0.73389238  0.59181349  1
  Te  Te170  1  0.57795095  0.75215191  0.90485916  1
  Te  Te171  1  0.90929282  0.12007209  0.24238294  1
  Te  Te172  1  0.91719804  0.07129396  0.57330331  1
  Te  Te173  1  0.93161946  0.10463121  0.91540272  1
  Te  Te174  1  0.91450929  0.42868592  0.24902899  1
  Te  Te175  1  0.86798372  0.44623010  0.61695128  1
  Te  Te176  1  0.91356173  0.41388973  0.89506052  1
  Te  Te177  1  0.87754334  0.72779401  0.25508789  1
  Te  Te178  1  0.89405252  0.76496052  0.55150178  1
  Te  Te179  1  0.92108998  0.75876972  0.91401757  1
