# generated using pymatgen
data_In2Te3
_symmetry_space_group_name_H-M   'P 1'
_cell_length_a   18.94222017
_cell_length_b   18.94901008
_cell_length_c   18.94169065
_cell_angle_alpha   89.95730623
_cell_angle_beta   89.83572281
_cell_angle_gamma   90.00096799
_symmetry_Int_Tables_number   1
_chemical_formula_structural   In2Te3
_chemical_formula_sum   'In72 Te108'
_cell_volume   6798.83092065
_cell_formula_units_Z   36
loop_
 _symmetry_equiv_pos_site_id
 _symmetry_equiv_pos_as_xyz
  1  'x, y, z'
loop_
 _atom_site_type_symbol
 _atom_site_label
 _atom_site_symmetry_multiplicity
 _atom_site_fract_x
 _atom_site_fract_y
 _atom_site_fract_z
 _atom_site_occupancy
  In  In0  1  0.16110987  0.66074239  0.19609699  1
  In  In1  1  0.03813076  0.47219441  0.83050310  1
  In  In2  1  0.84671588  0.67080747  0.85232288  1
  In  In3  1  0.16914149  0.18072417  -0.02168120  1
  In  In4  1  0.48572794  0.31915418  0.83277449  1
  In  In5  1  0.32988650  0.82723558  0.50918236  1
  In  In6  1  0.15254075  0.19895439  0.31471776  1
  In  In7  1  0.68877272  0.85095389  0.85352420  1
  In  In8  1  0.32654892  0.00603463  -0.02628812  1
  In  In9  1  0.51613682  0.16290764  0.00537230  1
  In  In10  1  0.85845327  0.84841230  -0.03827334  1
  In  In11  1  0.53589309  0.83452676  0.02640509  1
  In  In12  1  -0.00064450  0.65265637  0.66592489  1
  In  In13  1  0.52987778  0.00409256  0.86064968  1
  In  In14  1  0.83797553  0.64317115  0.14573600  1
  In  In15  1  0.47878737  0.64793330  0.84471123  1
  In  In16  1  0.01825198  0.16603418  0.52003323  1
  In  In17  1  0.31986476  0.66376977  0.00059696  1
  In  In18  1  0.67437134  0.31931140  0.00837328  1
  In  In19  1  0.14258630  0.84942058  0.00264523  1
  In  In20  1  -0.00268421  0.51098496  0.50893345  1
  In  In21  1  0.64997615  0.47396749  0.85046049  1
  In  In22  1  0.29364920  0.36037709  0.65852255  1
  In  In23  1  0.49375010  0.17267268  0.67764191  1
  In  In24  1  0.32443765  0.63698474  0.65735583  1
  In  In25  1  0.33006440  0.33304370  0.32404534  1
  In  In26  1  0.67443295  0.33875162  0.31534100  1
  In  In27  1  0.37463269  -0.00906576  0.31682961  1
  In  In28  1  0.83716709  0.16734729  0.30322886  1
  In  In29  1  0.50426642  0.68245842  0.19493174  1
  In  In30  1  0.65454360  0.66724820  0.02640629  1
  In  In31  1  0.00175522  0.00763599  -0.01664721  1
  In  In32  1  0.32469429  0.15935305  0.79913939  1
  In  In33  1  0.14166679  0.16997617  0.67467151  1
  In  In34  1  0.00325563  0.68340705  0.32879498  1
  In  In35  1  0.84789109  0.50329563  0.31449270  1
  In  In36  1  0.15232836  0.82913866  0.34885876  1
  In  In37  1  0.64846504  0.67648097  0.67285973  1
  In  In38  1  0.33110582  0.33762157  0.00846473  1
  In  In39  1  0.82735988  0.17670344  0.04129862  1
  In  In40  1  0.19016481  0.00747628  0.16265973  1
  In  In41  1  0.64130549  0.02488110  0.29384208  1
  In  In42  1  -0.00924868  0.82909065  0.17301557  1
  In  In43  1  0.49662032  0.32775509  0.51401713  1
  In  In44  1  0.67626307  0.17592247  0.50642827  1
  In  In45  1  0.69420795  0.86179598  0.16304513  1
  In  In46  1  0.86973580  0.85764515  0.69197800  1
  In  In47  1  0.54422385  0.84811526  0.33265342  1
  In  In48  1  0.36394974  0.16614806  0.16180782  1
  In  In49  1  0.01305563  0.17363239  0.82724535  1
  In  In50  1  0.49814143  0.48947780  0.33856172  1
  In  In51  1  0.65055651  0.48170376  0.50965481  1
  In  In52  1  0.13974792  0.83007464  0.67683614  1
  In  In53  1  0.83880259  0.48373821  -0.01796552  1
  In  In54  1  0.16321826  0.50809638  0.34820426  1
  In  In55  1  0.48789286  0.66094501  0.49993088  1
  In  In56  1  0.16527729  -0.01136435  0.52456059  1
  In  In57  1  0.68389482  0.02196375  0.66911234  1
  In  In58  1  -0.01180538  0.34425551  0.30150311  1
  In  In59  1  0.00050903  0.46816814  0.12591343  1
  In  In60  1  0.31525588  0.84732998  0.82652764  1
  In  In61  1  0.29983816  0.67315456  0.35229755  1
  In  In62  1  0.32960810  0.48377480  0.16641477  1
  In  In63  1  0.49148697  0.83598981  0.65325506  1
  In  In64  1  0.80091937  0.70844778  0.48728957  1
  In  In65  1  0.83117083  -0.03188725  0.48600714  1
  In  In66  1  -0.01810736  0.01269819  0.34482230  1
  In  In67  1  0.32001157  0.15844514  0.47655538  1
  In  In68  1  0.85970896  0.16588633  0.67269904  1
  In  In69  1  0.79841534  0.49346801  0.69618950  1
  In  In70  1  0.84952812  0.32040436  0.50900685  1
  In  In71  1  0.30254877  0.48643598  0.83752680  1
  Te  Te72  1  0.09553330  0.08574932  0.07465485  1
  Te  Te73  1  0.10075508  0.08763206  0.41413176  1
  Te  Te74  1  0.05191327  0.06188673  0.73121413  1
  Te  Te75  1  0.09692173  0.39819429  0.03944591  1
  Te  Te76  1  0.06484957  0.41247359  0.41461648  1
  Te  Te77  1  0.08491475  0.36815585  0.73623607  1
  Te  Te78  1  0.08214543  0.74012268  0.09208808  1
  Te  Te79  1  0.10267997  0.71733973  0.43045518  1
  Te  Te80  1  0.05818788  0.74286753  0.76670397  1
  Te  Te81  1  0.42708409  0.05967789  0.07437119  1
  Te  Te82  1  0.42968563  0.08189846  0.41735967  1
  Te  Te83  1  0.42885348  0.05842037  0.75593421  1
  Te  Te84  1  0.42499370  0.38773441  0.10904514  1
  Te  Te85  1  0.40390535  0.41468086  0.43030612  1
  Te  Te86  1  0.40450081  0.41644186  0.74938368  1
  Te  Te87  1  0.42198702  0.74464791  0.08022241  1
  Te  Te88  1  0.42047266  0.75902208  0.40203683  1
  Te  Te89  1  0.41126051  0.74257749  0.74608049  1
  Te  Te90  1  0.73401159  0.05889400  0.05299584  1
  Te  Te91  1  0.77047359  0.09398429  0.42123400  1
  Te  Te92  1  0.77941594  0.08007167  0.76148123  1
  Te  Te93  1  0.73366644  0.43686345  0.07314992  1
  Te  Te94  1  0.76614020  0.41629942  0.41901890  1
  Te  Te95  1  0.75307697  0.38859278  0.78904530  1
  Te  Te96  1  0.76641965  0.76239455  0.06183502  1
  Te  Te97  1  0.72478591  0.76871757  0.38230542  1
  Te  Te98  1  0.76016848  0.75073315  0.75513736  1
  Te  Te99  1  0.05936967  0.25020779  0.21083632  1
  Te  Te100  1  0.08030778  0.27980843  0.59276330  1
  Te  Te101  1  0.05526689  0.27020977  0.93946963  1
  Te  Te102  1  0.05060266  0.56098937  0.24532022  1
  Te  Te103  1  0.09972028  0.55475009  0.60960589  1
  Te  Te104  1  0.13399489  0.56751131  0.88885380  1
  Te  Te105  1  0.08953996  0.92475698  0.24416578  1
  Te  Te106  1  0.06362240  0.89461979  0.56714685  1
  Te  Te107  1  0.07985067  0.92283632  0.88906780  1
  Te  Te108  1  0.43327159  0.23929233  0.27112128  1
  Te  Te109  1  0.39093428  0.24995601  0.59234294  1
  Te  Te110  1  0.39609399  0.22334897  0.91770763  1
  Te  Te111  1  0.39441641  0.58620565  0.26148355  1
  Te  Te112  1  0.43706236  0.56633962  0.59842409  1
  Te  Te113  1  0.40191014  0.55455630  0.93436449  1
  Te  Te114  1  0.45541367  0.90660361  0.23056447  1
  Te  Te115  1  0.41164711  0.92855136  0.57472545  1
  Te  Te116  1  0.43132837  0.89873806  0.92055103  1
  Te  Te117  1  0.73241534  0.23609894  0.22323372  1
  Te  Te118  1  0.75121528  0.25939106  0.60615428  1
  Te  Te119  1  0.78004142  0.25882278  0.92524910  1
  Te  Te120  1  0.74645222  0.57081482  0.23408611  1
  Te  Te121  1  0.74181304  0.58930895  0.58369518  1
  Te  Te122  1  0.73389022  0.58886652  0.91525012  1
  Te  Te123  1  0.76348478  0.95362088  0.25379110  1
  Te  Te124  1  0.75338554  0.90621883  0.59954712  1
  Te  Te125  1  0.76258022  0.95881186  0.92529690  1
  Te  Te126  1  0.25070137  0.24083001  0.09374054  1
  Te  Te127  1  0.23132187  0.26967816  0.42429015  1
  Te  Te128  1  0.22524381  0.26979376  0.76526997  1
  Te  Te129  1  0.23415339  0.57661321  0.09259503  1
  Te  Te130  1  0.25948037  0.56498908  0.44588329  1
  Te  Te131  1  0.22956676  0.59787641  0.76940923  1
  Te  Te132  1  0.26293186  0.90893565  0.07360577  1
  Te  Te133  1  0.25568174  0.92488067  0.40880932  1
  Te  Te134  1  0.24491805  0.92238098  0.72460475  1
  Te  Te135  1  0.60124582  0.22604714  0.11260384  1
  Te  Te136  1  0.58910710  0.25865744  0.41568475  1
  Te  Te137  1  0.59133271  0.23555169  0.77012328  1
  Te  Te138  1  0.55421500  0.58747900  0.09577143  1
  Te  Te139  1  0.58971481  0.58345921  0.41479611  1
  Te  Te140  1  0.57542024  0.57204793  0.75497537  1
  Te  Te141  1  0.61946551  0.95302162  0.06847314  1
  Te  Te142  1  0.59225940  0.95792974  0.41566729  1
  Te  Te143  1  0.59300167  0.91021025  0.75030167  1
  Te  Te144  1  0.91690993  0.26917896  0.11745232  1
  Te  Te145  1  0.93192076  0.24346885  0.40649956  1
  Te  Te146  1  0.94815968  0.27072494  0.73234668  1
  Te  Te147  1  0.93777884  0.58248681  0.04878408  1
  Te  Te148  1  0.90421977  0.59809963  0.42097023  1
  Te  Te149  1  0.91590175  0.56338241  0.76806243  1
  Te  Te150  1  0.91838715  0.92393517  0.08057757  1
  Te  Te151  1  0.93726603  0.89291888  0.41636166  1
  Te  Te152  1  0.95855227  0.94245860  0.77323423  1
  Te  Te153  1  0.26113155  0.09799988  0.26162196  1
  Te  Te154  1  0.24878576  0.09237715  0.59440385  1
  Te  Te155  1  0.22777311  0.07542679  0.88409861  1
  Te  Te156  1  0.22296915  0.41108605  0.24759495  1
  Te  Te157  1  0.22697717  0.46522217  0.58106959  1
  Te  Te158  1  0.21962983  0.41429889  0.94193084  1
  Te  Te159  1  0.25213829  0.77056837  0.24587406  1
  Te  Te160  1  0.23821600  0.73976683  0.58976331  1
  Te  Te161  1  0.23398631  0.75599395  0.91628735  1
  Te  Te162  1  0.56035069  0.12993389  0.22943778  1
  Te  Te163  1  0.57834231  0.08821376  0.58280958  1
  Te  Te164  1  0.60860263  0.12441625  0.89489741  1
  Te  Te165  1  0.57591653  0.41653025  0.23874786  1
  Te  Te166  1  0.58733375  0.39539366  0.60777928  1
  Te  Te167  1  0.55658275  0.39694118  0.94105263  1
  Te  Te168  1  0.63449289  0.74706688  0.25364945  1
  Te  Te169  1  0.58718549  0.76089393  0.56292368  1
  Te  Te170  1  0.58325162  0.74473174  0.90613680  1
  Te  Te171  1  0.92394858  0.07679483  0.22705306  1
  Te  Te172  1  0.91620177  0.06869289  0.57044154  1
  Te  Te173  1  0.91400117  0.11534924  0.92663251  1
  Te  Te174  1  0.88050995  0.39450456  0.20290728  1
  Te  Te175  1  0.90189342  0.43159029  0.59661940  1
  Te  Te176  1  0.94120322  0.39562071  0.91840107  1
  Te  Te177  1  0.89067167  0.74535340  0.24964701  1
  Te  Te178  1  0.90674120  0.74859305  0.59053403  1
  Te  Te179  1  0.95741995  0.75120379  0.90759766  1
