# generated using pymatgen
data_In2Te3
_symmetry_space_group_name_H-M   'P 1'
_cell_length_a   18.99058783
_cell_length_b   18.97130961
_cell_length_c   18.93026572
_cell_angle_alpha   89.87439991
_cell_angle_beta   90.23914651
_cell_angle_gamma   90.26817214
_symmetry_Int_Tables_number   1
_chemical_formula_structural   In2Te3
_chemical_formula_sum   'In72 Te108'
_cell_volume   6819.97628908
_cell_formula_units_Z   36
loop_
 _symmetry_equiv_pos_site_id
 _symmetry_equiv_pos_as_xyz
  1  'x, y, z'
loop_
 _atom_site_type_symbol
 _atom_site_label
 _atom_site_symmetry_multiplicity
 _atom_site_fract_x
 _atom_site_fract_y
 _atom_site_fract_z
 _atom_site_occupancy
  In  In0  1  0.51578608  0.13407678  0.32177707  1
  In  In1  1  0.31406960  0.35599502  0.31930278  1
  In  In2  1  -0.00514100  0.81390832  0.50041606  1
  In  In3  1  0.84114202  0.01555417  0.16443787  1
  In  In4  1  0.73752610  0.88622605  0.02850138  1
  In  In5  1  0.52031538  0.13104035  0.00787065  1
  In  In6  1  0.00546277  0.46586015  0.83919846  1
  In  In7  1  0.22888582  0.59292175  0.16192024  1
  In  In8  1  0.15643520  0.00566301  0.15917843  1
  In  In9  1  0.69229497  0.32677743  0.01281358  1
  In  In10  1  0.28029779  0.45524057  0.50217946  1
  In  In11  1  0.16337403  0.84325603  0.66063995  1
  In  In12  1  0.51989454  -0.00090600  0.49926278  1
  In  In13  1  0.34720904  -0.01522563  0.31883230  1
  In  In14  1  0.82032800  0.65040767  0.19874666  1
  In  In15  1  0.02286564  0.18472654  0.81794145  1
  In  In16  1  0.48845081  0.31958261  0.54120893  1
  In  In17  1  0.16251637  0.18512552  0.01331420  1
  In  In18  1  0.85773402  0.18045499  0.63856368  1
  In  In19  1  0.49952847  0.50986115  0.69284858  1
  In  In20  1  0.16634457  0.20936812  0.66320440  1
  In  In21  1  -0.00314839  0.67278711  -0.02596719  1
  In  In22  1  0.49136271  0.53510423  0.01257098  1
  In  In23  1  0.17915400  0.03574861  0.82303200  1
  In  In24  1  0.32484954  0.85810610  0.51522153  1
  In  In25  1  0.34732631  0.16621173  0.15771135  1
  In  In26  1  0.67046636  0.50554708  0.47977507  1
  In  In27  1  0.83587793  0.17420847  -0.00647652  1
  In  In28  1  -0.01625065  0.85102557  0.81133747  1
  In  In29  1  0.85132477  0.59796175  0.43170735  1
  In  In30  1  0.32330584  0.48946464  0.85304158  1
  In  In31  1  0.32872772  0.69054268  0.33427093  1
  In  In32  1  0.69498055  0.66519947  0.64749529  1
  In  In33  1  0.48971073  0.33725408  0.85527500  1
  In  In34  1  0.30514807  0.22545927  0.51906093  1
  In  In35  1  0.35591371  0.82527738  0.85345792  1
  In  In36  1  0.49308400  0.65321943  0.51220956  1
  In  In37  1  0.35321958  0.15741192  0.84934885  1
  In  In38  1  -0.00576893  0.31313082  0.32137591  1
  In  In39  1  0.81916290  0.83148599  0.32991642  1
  In  In40  1  0.16185443  0.63883338  0.84335547  1
  In  In41  1  0.66349870  0.00394846  0.67857436  1
  In  In42  1  0.68040448  0.16611335  0.50679756  1
  In  In43  1  0.31259632  0.36997612  0.00038592  1
  In  In44  1  0.87448063  0.35899345  0.50029168  1
  In  In45  1  0.35005271  0.02174668  0.67744839  1
  In  In46  1  0.83166943  0.83752555  0.64683248  1
  In  In47  1  0.34584068  0.83411517  0.15932033  1
  In  In48  1  0.85351251  0.47695770  0.01636657  1
  In  In49  1  0.66191516  0.33880393  0.69430249  1
  In  In50  1  -0.00523730  0.02083384  0.32763403  1
  In  In51  1  0.49998077  0.32611050  0.15503469  1
  In  In52  1  0.51741695  0.70281394  0.18107485  1
  In  In53  1  -0.03886105  0.84106707  0.15491512  1
  In  In54  1  0.81969879  -0.00246693  0.81957964  1
  In  In55  1  0.01011715  0.48995841  0.15953193  1
  In  In56  1  0.82856479  0.32855281  0.18975271  1
  In  In57  1  0.65708628  0.67702469  0.01788308  1
  In  In58  1  0.02982005  0.62751376  0.66669372  1
  In  In59  1  0.31801570  0.66199785  0.69508810  1
  In  In60  1  0.81623288  0.66432082  0.82737757  1
  In  In61  1  0.11550633  0.48702192  0.33517059  1
  In  In62  1  0.65382296  0.81280435  0.47400027  1
  In  In63  1  0.01410083  0.02088196  0.00301030  1
  In  In64  1  0.65749924  0.31574164  0.32842477  1
  In  In65  1  0.66480038  0.49141569  0.83807969  1
  In  In66  1  0.48695480  0.50387347  0.33555698  1
  In  In67  1  0.82550843  0.02743782  0.49482043  1
  In  In68  1  0.17538197  0.82994169  -0.01340401  1
  In  In69  1  0.14337397  0.64577137  0.49021128  1
  In  In70  1  0.16470439  0.01283367  0.47407884  1
  In  In71  1  0.52022959  0.85519922  0.01794309  1
  Te  Te72  1  0.06223177  0.11349765  0.11071077  1
  Te  Te73  1  0.09929845  0.10811973  0.38457854  1
  Te  Te74  1  0.08487449  0.08835130  0.71891043  1
  Te  Te75  1  0.04723823  0.36693293  0.08543515  1
  Te  Te76  1  0.10215299  0.36073588  0.42112622  1
  Te  Te77  1  0.04540369  0.38464098  0.72030480  1
  Te  Te78  1  0.06777643  0.76603290  0.07086697  1
  Te  Te79  1  0.08217699  0.74729323  0.40578854  1
  Te  Te80  1  0.08962303  0.75067612  0.76094772  1
  Te  Te81  1  0.43527047  0.05561568  0.10884348  1
  Te  Te82  1  0.41507365  0.07686937  0.41986845  1
  Te  Te83  1  0.44368715  0.05565938  0.78946807  1
  Te  Te84  1  0.41253600  0.43660208  0.10053497  1
  Te  Te85  1  0.41428886  0.41231905  0.43354179  1
  Te  Te86  1  0.40643577  0.40698902  0.75001275  1
  Te  Te87  1  0.42321386  0.74245111  0.07000797  1
  Te  Te88  1  0.41385585  0.76068207  0.43880320  1
  Te  Te89  1  0.41793649  0.75827817  0.74006356  1
  Te  Te90  1  0.75020287  0.08158011  0.06776294  1
  Te  Te91  1  0.72698949  0.07963718  0.39937641  1
  Te  Te92  1  0.76151777  0.10851624  0.73272994  1
  Te  Te93  1  0.74564593  0.43073431  0.11112328  1
  Te  Te94  1  0.75259701  0.39931229  0.41168483  1
  Te  Te95  1  0.76052304  0.43421836  0.74459624  1
  Te  Te96  1  0.75432646  0.75290688  0.10571955  1
  Te  Te97  1  0.77623590  0.73514348  0.43909099  1
  Te  Te98  1  0.74252671  0.77352004  0.75116054  1
  Te  Te99  1  0.08870623  0.29443706  0.20945205  1
  Te  Te100  1  0.09414916  0.28170038  0.55570222  1
  Te  Te101  1  0.06534449  0.26459947  0.93500363  1
  Te  Te102  1  0.09254220  0.59801124  0.22594306  1
  Te  Te103  1  0.09084756  0.53203093  0.57167317  1
  Te  Te104  1  0.08354600  0.55357751  0.94057825  1
  Te  Te105  1  0.06371511  0.91693508  0.23943602  1
  Te  Te106  1  0.07810744  0.92335906  0.56723704  1
  Te  Te107  1  0.08920494  0.92712891  0.90112385  1
  Te  Te108  1  0.42449118  0.25144032  0.26544301  1
  Te  Te109  1  0.41383523  0.22169003  0.61933905  1
  Te  Te110  1  0.42112410  0.24481912  0.95513113  1
  Te  Te111  1  0.41594506  0.60322188  0.24713577  1
  Te  Te112  1  0.39778905  0.57087906  0.59603455  1
  Te  Te113  1  0.42850327  0.58516919  0.89020386  1
  Te  Te114  1  0.44203303  0.88227715  0.26427583  1
  Te  Te115  1  0.43425759  0.92170069  0.59925959  1
  Te  Te116  1  0.42285416  0.92781705  0.93203886  1
  Te  Te117  1  0.73830239  0.22615988  0.24694161  1
  Te  Te118  1  0.75194515  0.28046544  0.57856717  1
  Te  Te119  1  0.75062525  0.25295175  0.90198961  1
  Te  Te120  1  0.76382682  0.57513264  0.31117834  1
  Te  Te121  1  0.77684216  0.56710577  0.56930307  1
  Te  Te122  1  0.75112668  0.57972965  0.93658367  1
  Te  Te123  1  0.75010322  0.92299753  0.23798046  1
  Te  Te124  1  0.73353533  0.91964197  0.56458119  1
  Te  Te125  1  0.69077158  0.96345195  0.89960767  1
  Te  Te126  1  0.25179439  0.26998910  0.10370673  1
  Te  Te127  1  0.24260679  0.24618819  0.38605735  1
  Te  Te128  1  0.24643925  0.24314018  0.78742096  1
  Te  Te129  1  0.26077599  0.51020247  0.04342955  1
  Te  Te130  1  0.25863690  0.58025247  0.41610257  1
  Te  Te131  1  0.22757842  0.55038493  0.74243846  1
  Te  Te132  1  0.25289964  0.92351071  0.07683023  1
  Te  Te133  1  0.24198191  0.90618042  0.39725578  1
  Te  Te134  1  0.25598217  0.91983611  0.75400379  1
  Te  Te135  1  0.59930681  0.23430877  0.09084594  1
  Te  Te136  1  0.56419232  0.24612385  0.43039233  1
  Te  Te137  1  0.57510451  0.25224633  0.77203834  1
  Te  Te138  1  0.59128136  0.58615677  0.11869875  1
  Te  Te139  1  0.58278348  0.60237699  0.40170376  1
  Te  Te140  1  0.60194630  0.60177466  0.75402605  1
  Te  Te141  1  0.61805188  0.92654393  0.10728715  1
  Te  Te142  1  0.58782869  0.91885353  0.39363303  1
  Te  Te143  1  0.61154087  0.90931503  0.77669233  1
  Te  Te144  1  0.91243474  0.26733381  0.08305889  1
  Te  Te145  1  0.90704697  0.23992494  0.41924006  1
  Te  Te146  1  0.93162332  0.26926354  0.73331902  1
  Te  Te147  1  0.91658003  0.59999611  0.08367881  1
  Te  Te148  1  0.97750349  0.53499092  0.38822421  1
  Te  Te149  1  0.92828552  0.58194663  0.76967010  1
  Te  Te150  1  0.90124770  0.92602187  0.04286003  1
  Te  Te151  1  0.91049441  0.91907250  0.41919528  1
  Te  Te152  1  0.91644370  0.94501716  0.71294645  1
  Te  Te153  1  0.25550537  0.08205944  0.24567978  1
  Te  Te154  1  0.25261478  0.08481797  0.57825810  1
  Te  Te155  1  0.25302316  0.08531509  0.94448446  1
  Te  Te156  1  0.23665181  0.45782767  0.24377088  1
  Te  Te157  1  0.24363767  0.34540377  0.59788480  1
  Te  Te158  1  0.22675939  0.37762098  0.87778988  1
  Te  Te159  1  0.24310402  0.74083379  0.21951992  1
  Te  Te160  1  0.23934374  0.74070801  0.57915030  1
  Te  Te161  1  0.25885723  0.72234268  0.92366136  1
  Te  Te162  1  0.55411626  0.05078281  0.20894999  1
  Te  Te163  1  0.57796149  0.09992424  0.59765538  1
  Te  Te164  1  0.58382882  0.07632740  0.88753802  1
  Te  Te165  1  0.57770247  0.41836608  0.24997527  1
  Te  Te166  1  0.58210218  0.43557942  0.58294365  1
  Te  Te167  1  0.57968438  0.42171674  0.94887536  1
  Te  Te168  1  0.57453590  0.79239255  0.28186789  1
  Te  Te169  1  0.58136872  0.74940956  0.59090744  1
  Te  Te170  1  0.58807447  0.76359039  0.92353988  1
  Te  Te171  1  0.89974178  0.10998016  0.26078123  1
  Te  Te172  1  0.93868027  0.11567899  0.53386712  1
  Te  Te173  1  0.92774943  0.08251620  0.89150080  1
  Te  Te174  1  0.91468549  0.43596369  0.26430403  1
  Te  Te175  1  0.95900148  0.43126894  0.59847543  1
  Te  Te176  1  0.88809401  0.39842677  0.89928300  1
  Te  Te177  1  0.92313977  0.74185362  0.26395753  1
  Te  Te178  1  0.92971056  0.72925248  0.60733962  1
  Te  Te179  1  0.89924345  0.76728475  0.90582492  1
