# generated using pymatgen
data_In2Te3
_symmetry_space_group_name_H-M   'P 1'
_cell_length_a   18.77682123
_cell_length_b   18.76733059
_cell_length_c   18.78147478
_cell_angle_alpha   89.95848632
_cell_angle_beta   89.93866131
_cell_angle_gamma   90.03353052
_symmetry_Int_Tables_number   1
_chemical_formula_structural   In2Te3
_chemical_formula_sum   'In72 Te108'
_cell_volume   6618.41247231
_cell_formula_units_Z   36
loop_
 _symmetry_equiv_pos_site_id
 _symmetry_equiv_pos_as_xyz
  1  'x, y, z'
loop_
 _atom_site_type_symbol
 _atom_site_label
 _atom_site_symmetry_multiplicity
 _atom_site_fract_x
 _atom_site_fract_y
 _atom_site_fract_z
 _atom_site_occupancy
  In  In0  1  0.66580664  0.15392190  0.79439174  1
  In  In1  1  0.84381262  0.49844696  0.01631995  1
  In  In2  1  0.00189869  0.84173123  0.85815712  1
  In  In3  1  0.68071618  0.49080214  0.83648815  1
  In  In4  1  0.83166851  0.82914357  0.65734292  1
  In  In5  1  0.83990942  0.46518699  0.66889769  1
  In  In6  1  -0.00251858  -0.00613127  0.00780924  1
  In  In7  1  0.85874711  0.17266241  0.00501558  1
  In  In8  1  0.84034029  0.83007240  0.32384408  1
  In  In9  1  0.32536781  0.64630528  0.65340010  1
  In  In10  1  0.80823524  0.33470448  0.82871480  1
  In  In11  1  0.17914472  0.85462620  0.65623655  1
  In  In12  1  0.82452481  0.17512477  0.32050158  1
  In  In13  1  -0.02901229  0.33647279  0.65135654  1
  In  In14  1  0.47491203  0.83061893  0.01576950  1
  In  In15  1  0.32603744  0.48500771  0.18261758  1
  In  In16  1  0.46984535  0.45796513  0.67076512  1
  In  In17  1  0.69361727  0.80311838  0.14656233  1
  In  In18  1  0.47637666  0.82125931  0.33723968  1
  In  In19  1  0.16724199  0.00258131  0.15839424  1
  In  In20  1  -0.00508265  0.18210484  0.83570549  1
  In  In21  1  0.33168207  0.83739101  0.82898024  1
  In  In22  1  0.66119637  -0.00179971  0.33084150  1
  In  In23  1  0.19348560  0.33451645  0.48038811  1
  In  In24  1  0.00373371  0.51898346  0.83648165  1
  In  In25  1  -0.01156693  0.81691398  0.16472817  1
  In  In26  1  0.01246941  -0.00063850  0.66264945  1
  In  In27  1  0.19774654  0.16621075  0.65447955  1
  In  In28  1  0.62342380  0.20719169  0.49569306  1
  In  In29  1  0.00540933  0.17459343  0.17321674  1
  In  In30  1  0.84989313  0.66762222  0.87007409  1
  In  In31  1  0.17299559  0.65019894  0.84066544  1
  In  In32  1  0.50062012  0.67123247  0.84967783  1
  In  In33  1  0.85557441  0.65248650  0.48818133  1
  In  In34  1  0.50856159  0.34775884  0.19596255  1
  In  In35  1  0.17115747  0.50818338  0.31621516  1
  In  In36  1  0.66266988  0.64223571  0.33818693  1
  In  In37  1  0.48133184  0.17713324  -0.01072804  1
  In  In38  1  0.34779046  0.65228460  0.02466878  1
  In  In39  1  0.64461990  0.49338329  0.49435256  1
  In  In40  1  0.33700907  0.18185418  0.16881567  1
  In  In41  1  0.31734472  0.01783309  -0.02808440  1
  In  In42  1  0.00731982  0.34996611  0.32120147  1
  In  In43  1  0.68546681  0.85827725  0.51528941  1
  In  In44  1  0.16864097  0.17515282  0.33489994  1
  In  In45  1  0.32450316  0.32798854  -0.00553220  1
  In  In46  1  0.67259001  0.35465663  0.00276620  1
  In  In47  1  0.02231217  0.15118003  0.49534501  1
  In  In48  1  0.66667144  0.65785770  0.67591912  1
  In  In49  1  0.49473108  0.63870708  0.18096065  1
  In  In50  1  0.16804467  0.65774190  0.46972395  1
  In  In51  1  0.18002958  0.32712166  0.83194936  1
  In  In52  1  0.49476304  -0.01142868  0.19581441  1
  In  In53  1  0.35885792  0.00665484  0.65969535  1
  In  In54  1  0.19866537  0.83924685  0.34584107  1
  In  In55  1  0.01612946  0.66836001  0.00723097  1
  In  In56  1  0.46579856  0.03278250  0.48663004  1
  In  In57  1  0.50053852  0.86338645  0.65888699  1
  In  In58  1  0.51732505  0.51523654  0.00229515  1
  In  In59  1  0.81480864  0.32455335  0.50330745  1
  In  In60  1  0.47733703  0.18659754  0.66128045  1
  In  In61  1  0.02288292  0.36048334  0.02994541  1
  In  In62  1  0.18353318  0.47956209  0.64886372  1
  In  In63  1  0.65880234  0.15922998  0.17816041  1
  In  In64  1  0.00459602  0.02354751  0.32755362  1
  In  In65  1  0.64388362  0.84360522  0.84584322  1
  In  In66  1  0.82738165  -0.01135246  0.50650404  1
  In  In67  1  0.66866944  0.00541952  -0.00777523  1
  In  In68  1  0.84023828  0.51651825  0.32805974  1
  In  In69  1  0.14143477  0.84067317  0.00792655  1
  In  In70  1  0.01011222  0.67255759  0.65735437  1
  In  In71  1  0.50332618  0.66715515  0.47576292  1
  Te  Te72  1  0.08930429  0.09925552  0.07006193  1
  Te  Te73  1  0.11894649  0.05232624  0.42733105  1
  Te  Te74  1  0.09113468  0.10211896  0.74629292  1
  Te  Te75  1  0.10746844  0.44391791  0.11788208  1
  Te  Te76  1  0.08850046  0.42651295  0.42382736  1
  Te  Te77  1  0.07154069  0.41488313  0.74584206  1
  Te  Te78  1  0.10868579  0.73511803  0.11180116  1
  Te  Te79  1  0.08908827  0.74428817  0.37943724  1
  Te  Te80  1  0.08999706  0.75304501  0.76223736  1
  Te  Te81  1  0.42058736  0.07193312  0.08516678  1
  Te  Te82  1  0.39727718  0.12093681  0.39105759  1
  Te  Te83  1  0.41275307  0.09715952  0.76213837  1
  Te  Te84  1  0.42810963  0.41513304  0.08058909  1
  Te  Te85  1  0.46204300  0.36482351  0.46349786  1
  Te  Te86  1  0.39255675  0.37423724  0.76496319  1
  Te  Te87  1  0.39786115  0.75757184  0.12698035  1
  Te  Te88  1  0.38571022  0.73229004  0.41413010  1
  Te  Te89  1  0.41927354  0.74532831  0.74003606  1
  Te  Te90  1  0.75739852  0.08762168  0.08597327  1
  Te  Te91  1  0.74384636  0.08971962  0.42190492  1
  Te  Te92  1  0.75940411  0.05347569  0.74753138  1
  Te  Te93  1  0.75031576  0.42409565  0.10568231  1
  Te  Te94  1  0.74516909  0.41729029  0.40672703  1
  Te  Te95  1  0.71626007  0.39508726  0.72133649  1
  Te  Te96  1  0.78357006  0.73411526  0.05474233  1
  Te  Te97  1  0.74380977  0.74916326  0.42393020  1
  Te  Te98  1  0.75093377  0.74903875  0.76440651  1
  Te  Te99  1  0.10706722  0.27186999  0.23400692  1
  Te  Te100  1  0.08810397  0.26015206  0.58311420  1
  Te  Te101  1  0.08484459  0.25863426  0.93203005  1
  Te  Te102  1  0.06065123  0.54622684  0.22043912  1
  Te  Te103  1  0.08641001  0.57295386  0.57446788  1
  Te  Te104  1  0.10484012  0.55864279  0.94177848  1
  Te  Te105  1  0.08038144  0.91506127  0.24860488  1
  Te  Te106  1  0.07244880  0.90254660  0.56761768  1
  Te  Te107  1  0.10700366  0.94734072  0.89996870  1
  Te  Te108  1  0.40779505  0.26506601  0.27025678  1
  Te  Te109  1  0.39987951  0.25835604  0.55246745  1
  Te  Te110  1  0.39972036  0.25173293  0.88871468  1
  Te  Te111  1  0.39466937  0.58240119  0.27457134  1
  Te  Te112  1  0.42992978  0.57083018  0.57349536  1
  Te  Te113  1  0.40512856  0.56847298  0.91030616  1
  Te  Te114  1  0.38434676  0.92002189  0.27038818  1
  Te  Te115  1  0.40578652  0.90442616  0.54995855  1
  Te  Te116  1  0.42843061  0.92555343  0.90723638  1
  Te  Te117  1  0.73652096  0.26553495  0.24563645  1
  Te  Te118  1  0.73928509  0.22939396  0.58554146  1
  Te  Te119  1  0.74112069  0.23731688  0.92588143  1
  Te  Te120  1  0.75428147  0.59543439  0.23341704  1
  Te  Te121  1  0.74980029  0.57825520  0.57521456  1
  Te  Te122  1  0.73867196  0.58711372  0.93803783  1
  Te  Te123  1  0.74953529  0.91727527  0.23727975  1
  Te  Te124  1  0.73207493  0.95053948  0.63116280  1
  Te  Te125  1  0.75445364  0.92004826  0.90790378  1
  Te  Te126  1  0.23785836  0.24308293  0.07917116  1
  Te  Te127  1  0.27943561  0.21679832  0.43355513  1
  Te  Te128  1  0.27733104  0.27165365  0.72902223  1
  Te  Te129  1  0.24404620  0.57886089  0.09974357  1
  Te  Te130  1  0.27054604  0.56552939  0.41436447  1
  Te  Te131  1  0.26060042  0.55659406  0.75821699  1
  Te  Te132  1  0.25839587  0.91615630  0.07209495  1
  Te  Te133  1  0.23802204  0.94228954  0.44411760  1
  Te  Te134  1  0.25111186  0.94277830  0.75434107  1
  Te  Te135  1  0.57581658  0.25200852  0.08306387  1
  Te  Te136  1  0.57362451  0.29414100  0.38426652  1
  Te  Te137  1  0.57567583  0.25972182  0.74685622  1
  Te  Te138  1  0.60406560  0.57249229  0.10733926  1
  Te  Te139  1  0.54770742  0.54548694  0.38150689  1
  Te  Te140  1  0.56691310  0.56938438  0.74988782  1
  Te  Te141  1  0.58389407  0.91511163  0.09429117  1
  Te  Te142  1  0.57453566  0.91395866  0.42429734  1
  Te  Te143  1  0.57237923  0.94134297  0.75941736  1
  Te  Te144  1  0.91444803  0.27669369  0.10100670  1
  Te  Te145  1  0.92994461  0.24272038  0.41335524  1
  Te  Te146  1  0.89065268  0.24028630  0.73950536  1
  Te  Te147  1  0.94243065  0.57575237  0.09954729  1
  Te  Te148  1  0.94982735  0.60397672  0.38462784  1
  Te  Te149  1  0.90118333  0.58964528  0.73808800  1
  Te  Te150  1  0.90685423  0.92298491  0.10018557  1
  Te  Te151  1  0.92609495  0.92016960  0.41250119  1
  Te  Te152  1  0.92008884  0.91347374  0.75223250  1
  Te  Te153  1  0.25698008  0.07905682  0.25377972  1
  Te  Te154  1  0.25569105  0.06284267  0.56353482  1
  Te  Te155  1  0.20998872  0.07870131  0.89562460  1
  Te  Te156  1  0.26083534  0.39300789  0.27991417  1
  Te  Te157  1  0.28780676  0.40389252  0.57389175  1
  Te  Te158  1  0.23814642  0.42697774  0.92405037  1
  Te  Te159  1  0.28790719  0.78156737  0.24255455  1
  Te  Te160  1  0.24693494  0.74728020  0.57340752  1
  Te  Te161  1  0.25356799  0.74832410  0.92670167  1
  Te  Te162  1  0.55937692  0.09988224  0.27879185  1
  Te  Te163  1  0.57207029  0.08820931  0.57748077  1
  Te  Te164  1  0.57604612  0.09069957  0.90712997  1
  Te  Te165  1  0.59472861  0.43180991  0.28082333  1
  Te  Te166  1  0.57301711  0.39153364  0.58062283  1
  Te  Te167  1  0.57006990  0.40862640  0.90419330  1
  Te  Te168  1  0.58662668  0.75520673  0.25389804  1
  Te  Te169  1  0.58487955  0.74903076  0.58464383  1
  Te  Te170  1  0.58394759  0.74353013  0.95249697  1
  Te  Te171  1  0.90122734  0.07734121  0.23018051  1
  Te  Te172  1  0.91468567  0.08938695  0.58428624  1
  Te  Te173  1  0.91310971  0.07218611  0.90421816  1
  Te  Te174  1  0.90175586  0.41184707  0.24008638  1
  Te  Te175  1  0.91932326  0.43313435  0.54393552  1
  Te  Te176  1  0.91703904  0.40882181  0.90765954  1
  Te  Te177  1  0.91267243  0.72228700  0.25281124  1
  Te  Te178  1  0.93211234  0.76315627  0.56166466  1
  Te  Te179  1  0.90644366  0.77747759  0.96399628  1
