# generated using pymatgen
data_In2Te3
_symmetry_space_group_name_H-M   'P 1'
_cell_length_a   18.93227801
_cell_length_b   18.92434919
_cell_length_c   18.91793854
_cell_angle_alpha   89.98985013
_cell_angle_beta   89.90482774
_cell_angle_gamma   90.05192224
_symmetry_Int_Tables_number   1
_chemical_formula_structural   In2Te3
_chemical_formula_sum   'In72 Te108'
_cell_volume   6777.92645402
_cell_formula_units_Z   36
loop_
 _symmetry_equiv_pos_site_id
 _symmetry_equiv_pos_as_xyz
  1  'x, y, z'
loop_
 _atom_site_type_symbol
 _atom_site_label
 _atom_site_symmetry_multiplicity
 _atom_site_fract_x
 _atom_site_fract_y
 _atom_site_fract_z
 _atom_site_occupancy
  In  In0  1  0.86423906  -0.03466924  0.15085294  1
  In  In1  1  0.83516649  -0.00302667  0.50861694  1
  In  In2  1  0.32655555  0.48901393  0.47844125  1
  In  In3  1  0.16781458  0.15837289  -0.00796075  1
  In  In4  1  0.65138244  0.83873551  0.48408395  1
  In  In5  1  0.84380727  0.50287780  0.02923727  1
  In  In6  1  0.83442383  0.15855843  0.66240751  1
  In  In7  1  0.83266056  0.50381035  0.30153097  1
  In  In8  1  0.50044503  0.50902141  0.03100698  1
  In  In9  1  0.16630448  0.31670059  0.49395983  1
  In  In10  1  0.48513357  0.49808091  0.66815772  1
  In  In11  1  0.66185049  0.01017159  0.68680871  1
  In  In12  1  0.17080815  0.49846448  0.68242139  1
  In  In13  1  0.15847708  0.64287059  0.50613073  1
  In  In14  1  0.33456276  0.83786887  0.16707124  1
  In  In15  1  0.17317834  0.86383123  0.35168423  1
  In  In16  1  0.50470893  0.17586391  0.32321946  1
  In  In17  1  0.50107686  0.68289341  0.82873878  1
  In  In18  1  0.00338444  0.68733179  0.67917457  1
  In  In19  1  0.68143360  0.84150846  0.87275541  1
  In  In20  1  0.31409137  0.47798522  0.16722286  1
  In  In21  1  0.81892424  0.33294696  0.48102230  1
  In  In22  1  0.31749065  0.84051878  0.82937040  1
  In  In23  1  0.66802993  0.68555722  0.66816577  1
  In  In24  1  0.16314271  0.32934336  0.16345162  1
  In  In25  1  0.85852523  -0.01142771  0.82466842  1
  In  In26  1  0.70849741  0.82749694  0.12817301  1
  In  In27  1  -0.00842446  0.15843625  0.16056785  1
  In  In28  1  0.50658583  0.16571800  0.01095283  1
  In  In29  1  0.51350935  0.67413779  0.16438581  1
  In  In30  1  0.83799706  0.51235872  0.68034274  1
  In  In31  1  0.53331207  0.48659595  0.29089283  1
  In  In32  1  0.33795317  0.67263168  0.33908302  1
  In  In33  1  0.00662162  0.50727619  0.82276957  1
  In  In34  1  0.16340739  0.49014080  0.00982998  1
  In  In35  1  0.48618398  0.32637957  0.49765585  1
  In  In36  1  0.83937664  0.81536343  0.31642595  1
  In  In37  1  0.16283418  0.64823305  0.15690946  1
  In  In38  1  0.82530554  0.17489099  -0.00459165  1
  In  In39  1  0.50202979  0.86117537  0.64114941  1
  In  In40  1  0.34020684  0.17019632  0.17066358  1
  In  In41  1  0.85444624  0.84752403  0.69026365  1
  In  In42  1  0.50433825  0.33415249  0.82457510  1
  In  In43  1  0.66484212  0.66823801  0.31757252  1
  In  In44  1  0.01233748  0.35040345  0.67394677  1
  In  In45  1  0.64909568  0.16265521  0.49100481  1
  In  In46  1  0.48251672  0.18393600  0.66993249  1
  In  In47  1  0.32652522  0.49445909  0.84152735  1
  In  In48  1  -0.01573220  0.14244295  0.50173906  1
  In  In49  1  0.50557125  0.83631846  -0.00521995  1
  In  In50  1  0.68815520  0.50330867  0.85767113  1
  In  In51  1  -0.01240366  0.68689517  0.00126212  1
  In  In52  1  0.49692217  -0.00319452  0.16625525  1
  In  In53  1  0.81830004  0.33420127  0.85459849  1
  In  In54  1  0.45376563  0.00123784  0.48768420  1
  In  In55  1  0.32370165  0.64500825  0.66861460  1
  In  In56  1  0.64143761  0.50469390  0.50197854  1
  In  In57  1  0.48438096  0.82935768  0.34511911  1
  In  In58  1  0.20080610  0.14524525  0.65156728  1
  In  In59  1  -0.00175666  0.49133961  0.46538319  1
  In  In60  1  0.83765895  0.32920422  0.17053019  1
  In  In61  1  0.15952596  0.83664250  -0.01995146  1
  In  In62  1  0.17122009  0.15230441  0.35845829  1
  In  In63  1  0.32259492  0.15746489  0.83131746  1
  In  In64  1  -0.00464362  0.66777747  0.31397635  1
  In  In65  1  0.00700873  0.83227125  0.52779870  1
  In  In66  1  0.16491754  0.84605762  0.68245544  1
  In  In67  1  0.15443093  -0.01624385  0.16849322  1
  In  In68  1  0.67069483  0.18810199  0.15329128  1
  In  In69  1  0.50948482  0.03140549  0.84188297  1
  In  In70  1  0.85378359  0.15700747  0.32112923  1
  In  In71  1  0.02958352  0.17387843  0.82310719  1
  Te  Te72  1  0.07301545  0.06805909  0.07146461  1
  Te  Te73  1  0.06945551  0.06053670  0.41506681  1
  Te  Te74  1  0.10905738  0.07571121  0.74644765  1
  Te  Te75  1  0.07137039  0.43253273  0.11005913  1
  Te  Te76  1  0.09759357  0.40771657  0.39963120  1
  Te  Te77  1  0.10796848  0.40001626  0.77941029  1
  Te  Te78  1  0.08658106  0.76097074  0.09289933  1
  Te  Te79  1  0.08140471  0.74507717  0.42358895  1
  Te  Te80  1  0.09018316  0.75591992  0.77396108  1
  Te  Te81  1  0.40446104  0.07113354  0.07363944  1
  Te  Te82  1  0.40327664  0.12073251  0.41726062  1
  Te  Te83  1  0.40861625  0.07002309  0.73751221  1
  Te  Te84  1  0.40962940  0.40603428  0.08181275  1
  Te  Te85  1  0.43367409  0.42412478  0.39376620  1
  Te  Te86  1  0.39520955  0.40203618  0.74107352  1
  Te  Te87  1  0.41354711  0.74604538  0.07545519  1
  Te  Te88  1  0.39685441  0.76007650  0.43975199  1
  Te  Te89  1  0.41308731  0.75531292  0.72913224  1
  Te  Te90  1  0.77865219  0.08954928  0.11130511  1
  Te  Te91  1  0.75551952  0.08364237  0.41435165  1
  Te  Te92  1  0.75040456  0.09499642  0.77085784  1
  Te  Te93  1  0.74067822  0.40346813  0.08162969  1
  Te  Te94  1  0.73827213  0.43668618  0.40624744  1
  Te  Te95  1  0.74373218  0.41446218  0.74651218  1
  Te  Te96  1  0.78354677  0.73741477  0.03833617  1
  Te  Te97  1  0.74918962  0.74359473  0.41842366  1
  Te  Te98  1  0.75631823  0.75873988  0.76655569  1
  Te  Te99  1  0.08829491  0.22827519  0.25132650  1
  Te  Te100  1  0.07089558  0.24011208  0.58763042  1
  Te  Te101  1  0.07791564  0.25886322  0.93133970  1
  Te  Te102  1  0.08016543  0.56730440  0.24730101  1
  Te  Te103  1  0.05926724  0.56650024  0.59502828  1
  Te  Te104  1  0.07948206  0.58918385  0.92680976  1
  Te  Te105  1  0.07101213  0.89519780  0.25227119  1
  Te  Te106  1  0.10905449  0.93136470  0.57099618  1
  Te  Te107  1  0.04687215  0.91258104  0.91848842  1
  Te  Te108  1  0.42951935  0.26994067  0.23531199  1
  Te  Te109  1  0.39046231  0.24115651  0.57128650  1
  Te  Te110  1  0.41980858  0.24317195  0.91239014  1
  Te  Te111  1  0.41749224  0.58445250  0.24196017  1
  Te  Te112  1  0.41334510  0.58142737  0.56390830  1
  Te  Te113  1  0.42878878  0.58193706  0.91345214  1
  Te  Te114  1  0.40242058  0.93074854  0.26550001  1
  Te  Te115  1  0.38001524  0.92420646  0.59034371  1
  Te  Te116  1  0.42136249  0.92420727  0.90643248  1
  Te  Te117  1  0.74883545  0.25232597  0.26763708  1
  Te  Te118  1  0.74175132  0.24624925  0.57991511  1
  Te  Te119  1  0.72340857  0.26999297  0.94630003  1
  Te  Te120  1  0.73758867  0.58500597  0.21908154  1
  Te  Te121  1  0.74374287  0.58429014  0.58411966  1
  Te  Te122  1  0.77230334  0.59616693  0.93538992  1
  Te  Te123  1  0.75301645  0.91764651  0.24630120  1
  Te  Te124  1  0.73741901  0.91338255  0.59393243  1
  Te  Te125  1  0.76751558  0.94390683  0.93212003  1
  Te  Te126  1  0.25765660  0.25118995  0.07262280  1
  Te  Te127  1  0.27116849  0.24605720  0.41584541  1
  Te  Te128  1  0.24329976  0.24790158  0.74638260  1
  Te  Te129  1  0.26819514  0.58639445  0.06998884  1
  Te  Te130  1  0.23416268  0.57461530  0.39419275  1
  Te  Te131  1  0.23160153  0.59831024  0.77827939  1
  Te  Te132  1  0.25427954  0.92148816  0.07191278  1
  Te  Te133  1  0.26478581  0.94023280  0.43633774  1
  Te  Te134  1  0.22625388  0.94627470  0.77581127  1
  Te  Te135  1  0.54977545  0.26551481  0.11345735  1
  Te  Te136  1  0.59343729  0.27244097  0.40352516  1
  Te  Te137  1  0.58890609  0.23691464  0.75356007  1
  Te  Te138  1  0.61315150  0.58470885  0.09747975  1
  Te  Te139  1  0.56552819  0.58993999  0.40080370  1
  Te  Te140  1  0.58735437  0.57860944  0.74977027  1
  Te  Te141  1  0.59777561  0.92326181  0.07782057  1
  Te  Te142  1  0.57244896  0.93840140  0.40686202  1
  Te  Te143  1  0.58417535  0.89953844  0.76338844  1
  Te  Te144  1  0.92778419  0.26036566  0.06898143  1
  Te  Te145  1  0.92823217  0.25364872  0.41228014  1
  Te  Te146  1  0.91147711  0.26261852  0.74869510  1
  Te  Te147  1  0.93309147  0.59497040  0.10639300  1
  Te  Te148  1  0.90312422  0.59262115  0.41083352  1
  Te  Te149  1  0.90698521  0.61078159  0.77162257  1
  Te  Te150  1  0.94534264  0.91147421  0.03675461  1
  Te  Te151  1  0.91212483  0.89650425  0.42669281  1
  Te  Te152  1  0.96845849  0.89913668  0.77032339  1
  Te  Te153  1  0.24598429  0.07793609  0.24666944  1
  Te  Te154  1  0.21703480  0.04631291  0.54054241  1
  Te  Te155  1  0.24251964  0.05998611  0.90977288  1
  Te  Te156  1  0.24397321  0.39749538  0.26738060  1
  Te  Te157  1  0.24709769  0.41407978  0.58397076  1
  Te  Te158  1  0.25908927  0.40570897  0.93579268  1
  Te  Te159  1  0.23997653  0.75419909  0.25341501  1
  Te  Te160  1  0.23452422  0.74050209  0.59125221  1
  Te  Te161  1  0.26361996  0.74621296  0.92663597  1
  Te  Te162  1  0.59399419  0.08510417  0.24111477  1
  Te  Te163  1  0.57022789  0.06989022  0.58169309  1
  Te  Te164  1  0.60334049  0.07756395  0.94268178  1
  Te  Te165  1  0.62657995  0.43918470  0.18617645  1
  Te  Te166  1  0.57716774  0.40254692  0.59449366  1
  Te  Te167  1  0.57619194  0.42580230  0.92273687  1
  Te  Te168  1  0.59026390  0.78098660  0.24239614  1
  Te  Te169  1  0.56867901  0.74350025  0.56952277  1
  Te  Te170  1  0.59714913  0.73030229  0.93502976  1
  Te  Te171  1  0.93823041  0.05015408  0.25567865  1
  Te  Te172  1  0.92968371  0.05174542  0.61377150  1
  Te  Te173  1  0.92337126  0.10028996  0.90717549  1
  Te  Te174  1  0.92966648  0.40412021  0.25691866  1
  Te  Te175  1  0.90863046  0.41419019  0.57823655  1
  Te  Te176  1  0.92047968  0.42581306  0.91768905  1
  Te  Te177  1  0.89993956  0.72596510  0.21485072  1
  Te  Te178  1  0.89723842  0.74432250  0.58612919  1
  Te  Te179  1  0.89519100  0.79296083  0.94618026  1
