# generated using pymatgen
data_In2Te3
_symmetry_space_group_name_H-M   'P 1'
_cell_length_a   18.75657547
_cell_length_b   18.75559779
_cell_length_c   18.77141760
_cell_angle_alpha   89.93420349
_cell_angle_beta   89.93881939
_cell_angle_gamma   90.01122316
_symmetry_Int_Tables_number   1
_chemical_formula_structural   In2Te3
_chemical_formula_sum   'In72 Te108'
_cell_volume   6603.60349429
_cell_formula_units_Z   36
loop_
 _symmetry_equiv_pos_site_id
 _symmetry_equiv_pos_as_xyz
  1  'x, y, z'
loop_
 _atom_site_type_symbol
 _atom_site_label
 _atom_site_symmetry_multiplicity
 _atom_site_fract_x
 _atom_site_fract_y
 _atom_site_fract_z
 _atom_site_occupancy
  In  In0  1  0.66636314  0.49068463  0.82166220  1
  In  In1  1  0.18132953  0.16569458  0.35237131  1
  In  In2  1  0.51947503  0.66508006  0.82697164  1
  In  In3  1  0.51283816  -0.01770797  0.15673928  1
  In  In4  1  0.47646689  0.20277636  0.30653805  1
  In  In5  1  0.85280258  0.33693250  0.16702276  1
  In  In6  1  0.17397563  0.63616460  0.18249028  1
  In  In7  1  0.51325819  -0.00556174  0.49007086  1
  In  In8  1  0.81541163  0.18652760  0.66352864  1
  In  In9  1  0.63971094  0.48910572  0.49728924  1
  In  In10  1  0.18577048  0.32237528  0.83371441  1
  In  In11  1  0.80751044  0.50180197  0.00163081  1
  In  In12  1  0.68294900  0.81902031  0.48510958  1
  In  In13  1  0.00031212  -0.01941319  0.66957264  1
  In  In14  1  0.49614281  0.18437008  -0.00064430  1
  In  In15  1  0.65396689  0.16375181  0.14182212  1
  In  In16  1  0.34218809  0.00240939  0.32795740  1
  In  In17  1  0.32773002  0.48929681  0.82706217  1
  In  In18  1  0.82733433  0.65337457  0.18259702  1
  In  In19  1  -0.03760942  0.81552265  0.18039765  1
  In  In20  1  0.65615825  0.35278523  0.32337642  1
  In  In21  1  0.00958802  0.18465038  0.13942103  1
  In  In22  1  0.18746790  -0.00463804  0.17605340  1
  In  In23  1  0.84198728  -0.00356105  0.51876758  1
  In  In24  1  0.35162503  0.68612433  0.01392828  1
  In  In25  1  0.33219930  0.80917261  0.48799074  1
  In  In26  1  0.34044523  0.01676044  0.68543567  1
  In  In27  1  0.83062069  0.83305580  -0.00754724  1
  In  In28  1  0.18224318  0.83590059  0.00535138  1
  In  In29  1  0.66562065  0.20345965  0.48867635  1
  In  In30  1  0.00006097  0.67189439  0.00118711  1
  In  In31  1  0.83400568  0.79926619  0.33370042  1
  In  In32  1  0.85585171  0.18359022  0.33725774  1
  In  In33  1  0.01018747  0.19336701  0.48507624  1
  In  In34  1  -0.01332773  0.50884121  0.82129900  1
  In  In35  1  0.64880611  0.65399179  -0.00226480  1
  In  In36  1  0.66548641  0.01943646  0.69251481  1
  In  In37  1  0.81205317  0.33252077  0.82833568  1
  In  In38  1  0.33263433  0.20210093  0.51322276  1
  In  In39  1  0.79833438  0.00261487  0.15723537  1
  In  In40  1  0.85340624  0.82271266  0.66586868  1
  In  In41  1  0.00402284  0.82530231  0.82371561  1
  In  In42  1  -0.00844566  0.50362100  0.48405514  1
  In  In43  1  0.67184907  0.64873929  0.65130760  1
  In  In44  1  0.64761029  0.49537919  0.17657116  1
  In  In45  1  0.16477326  0.18271827  0.67156566  1
  In  In46  1  0.18642961  0.81044824  0.33776412  1
  In  In47  1  0.33510164  0.84736514  0.84727113  1
  In  In48  1  -0.00252284  0.31225753  0.01342665  1
  In  In49  1  0.33462485  0.64607913  0.63456546  1
  In  In50  1  -0.00681717  0.33520310  0.64765773  1
  In  In51  1  0.16727190  0.50460394  -0.00555277  1
  In  In52  1  0.17386296  -0.00509490  0.83176581  1
  In  In53  1  0.33272967  0.62361945  0.33589786  1
  In  In54  1  0.50444794  0.32955747  0.83342041  1
  In  In55  1  -0.03745604  0.03613351  -0.03144249  1
  In  In56  1  0.01847339  0.49669215  0.19910811  1
  In  In57  1  -0.00560402  0.34676960  0.34196109  1
  In  In58  1  0.47805824  0.62477209  0.48408559  1
  In  In59  1  -0.00425942  0.66549008  0.66791862  1
  In  In60  1  0.18524706  0.48415803  0.64624929  1
  In  In61  1  0.66564350  0.84512097  0.83813110  1
  In  In62  1  0.50989511  0.82854563  0.66843972  1
  In  In63  1  0.48455515  0.17817072  0.67634326  1
  In  In64  1  0.33482582  0.01205042  0.00391020  1
  In  In65  1  0.00979934  0.00686818  0.33247303  1
  In  In66  1  0.64987153  0.17118871  0.85004224  1
  In  In67  1  0.20677281  0.35256896  0.20407602  1
  In  In68  1  0.01758393  0.81263180  0.50484221  1
  In  In69  1  0.67062712  -0.01432132  0.33393673  1
  In  In70  1  0.49014650  0.48652602  0.02614539  1
  In  In71  1  0.17663102  0.17700585  0.01097795  1
  Te  Te72  1  0.09135230  0.06627410  0.07817846  1
  Te  Te73  1  0.09492866  0.07281282  0.43934781  1
  Te  Te74  1  0.07863638  0.08393049  0.75252571  1
  Te  Te75  1  0.09289678  0.41024561  0.09411648  1
  Te  Te76  1  0.09895236  0.42659465  0.40943621  1
  Te  Te77  1  0.08937729  0.41429465  0.75421726  1
  Te  Te78  1  0.09392225  0.74624049  0.09627201  1
  Te  Te79  1  0.09950973  0.72360026  0.41962035  1
  Te  Te80  1  0.09496577  0.75247113  0.73499794  1
  Te  Te81  1  0.41983810  0.09180889  0.10138330  1
  Te  Te82  1  0.42170692  0.09878060  0.42446650  1
  Te  Te83  1  0.42849451  0.08774864  0.77913712  1
  Te  Te84  1  0.42891187  0.37245914  0.10178172  1
  Te  Te85  1  0.36948801  0.45476799  0.41117783  1
  Te  Te86  1  0.41850079  0.41166291  0.74114404  1
  Te  Te87  1  0.45012007  0.75189243  0.10129923  1
  Te  Te88  1  0.42415626  0.73730848  0.39262131  1
  Te  Te89  1  0.41087929  0.74024438  0.74616089  1
  Te  Te90  1  0.72094562  0.06821449  0.04773665  1
  Te  Te91  1  0.75638962  0.08949928  0.42122413  1
  Te  Te92  1  0.77151359  0.08861593  0.77552263  1
  Te  Te93  1  0.73502918  0.40286165  0.09088633  1
  Te  Te94  1  0.74732560  0.41545236  0.42031048  1
  Te  Te95  1  0.75379456  0.42032959  0.72441622  1
  Te  Te96  1  0.75038517  0.73630538  0.08062549  1
  Te  Te97  1  0.73618142  0.70935286  0.40174886  1
  Te  Te98  1  0.74100685  0.75163611  0.74322516  1
  Te  Te99  1  0.08270910  0.24797828  0.25608924  1
  Te  Te100  1  0.10844650  0.27881280  0.56460475  1
  Te  Te101  1  0.08130565  0.23783683  0.90862731  1
  Te  Te102  1  0.11338456  0.55921947  0.29689148  1
  Te  Te103  1  0.08726959  0.58089796  0.57895236  1
  Te  Te104  1  0.08741159  0.59551080  0.90122381  1
  Te  Te105  1  0.08652870  0.90412629  0.24907233  1
  Te  Te106  1  0.09415869  0.91503834  0.57775413  1
  Te  Te107  1  0.07817178  0.91616998  0.92597413  1
  Te  Te108  1  0.38292473  0.28996132  0.23010800  1
  Te  Te109  1  0.44099781  0.28602585  0.57876311  1
  Te  Te110  1  0.40157906  0.25308590  0.90821750  1
  Te  Te111  1  0.42065763  0.54211303  0.24363367  1
  Te  Te112  1  0.43318355  0.53458773  0.59889534  1
  Te  Te113  1  0.42428805  0.58102753  0.91542199  1
  Te  Te114  1  0.42927336  0.90554166  0.25671505  1
  Te  Te115  1  0.41641127  0.91630738  0.58067039  1
  Te  Te116  1  0.42747388  0.91766832  0.93621302  1
  Te  Te117  1  0.74535456  0.24300867  0.24829231  1
  Te  Te118  1  0.74239586  0.28774203  0.58368318  1
  Te  Te119  1  0.73065920  0.26558230  0.93132617  1
  Te  Te120  1  0.72362897  0.58846535  0.26679109  1
  Te  Te121  1  0.75274213  0.56285455  0.56397198  1
  Te  Te122  1  0.74918994  0.59577740  0.89694064  1
  Te  Te123  1  0.74526426  0.88745689  0.24218834  1
  Te  Te124  1  0.73036599  0.91390366  0.59648806  1
  Te  Te125  1  0.74595908  0.93462285  0.92516649  1
  Te  Te126  1  0.26152692  0.26167520  0.09851865  1
  Te  Te127  1  0.26405513  0.27557217  0.40505827  1
  Te  Te128  1  0.27450053  0.26008696  0.73348501  1
  Te  Te129  1  0.27233068  0.57276148  0.08283513  1
  Te  Te130  1  0.27660361  0.56127584  0.46349098  1
  Te  Te131  1  0.24396871  0.58627679  0.74557335  1
  Te  Te132  1  0.28067683  0.90163175  0.09998989  1
  Te  Te133  1  0.25006345  0.92295723  0.42025054  1
  Te  Te134  1  0.24775078  0.90347460  0.73469690  1
  Te  Te135  1  0.55920914  0.27486850  0.10405749  1
  Te  Te136  1  0.55382196  0.27822697  0.41464887  1
  Te  Te137  1  0.60066929  0.25800088  0.73531431  1
  Te  Te138  1  0.55649665  0.60088741  0.10728738  1
  Te  Te139  1  0.57545085  0.56939084  0.38608609  1
  Te  Te140  1  0.56971670  0.56253057  0.72743816  1
  Te  Te141  1  0.60635945  0.88819299  0.09200933  1
  Te  Te142  1  0.57375973  0.88653698  0.40110935  1
  Te  Te143  1  0.56162974  0.93405229  0.76510273  1
  Te  Te144  1  0.88144256  0.22363269  0.06664592  1
  Te  Te145  1  0.89509690  0.28515773  0.44418007  1
  Te  Te146  1  0.92512944  0.25312661  0.75714967  1
  Te  Te147  1  0.92482433  0.56938948  0.08771019  1
  Te  Te148  1  0.91502936  0.59005947  0.39258366  1
  Te  Te149  1  0.89236063  0.58575619  0.73888056  1
  Te  Te150  1  0.92074653  0.92424998  0.08059084  1
  Te  Te151  1  0.91378387  0.91364280  0.40864284  1
  Te  Te152  1  0.89950920  0.92425959  0.76944477  1
  Te  Te153  1  0.26829389  0.10534332  0.24140551  1
  Te  Te154  1  0.25283912  0.08987005  0.58532507  1
  Te  Te155  1  0.25744753  0.09929404  0.90484953  1
  Te  Te156  1  0.28539160  0.46426632  0.26858129  1
  Te  Te157  1  0.28362425  0.42748900  0.54912553  1
  Te  Te158  1  0.26561974  0.40197245  0.93738925  1
  Te  Te159  1  0.27361400  0.73697514  0.23874558  1
  Te  Te160  1  0.23507330  0.73675898  0.57214314  1
  Te  Te161  1  0.24902160  0.73657242  0.91063454  1
  Te  Te162  1  0.58216775  0.09071575  0.26481023  1
  Te  Te163  1  0.59106728  0.09344674  0.57908366  1
  Te  Te164  1  0.57467595  0.07460652  0.93420512  1
  Te  Te165  1  0.54019002  0.43576997  0.26769428  1
  Te  Te166  1  0.54089215  0.41292720  0.57893152  1
  Te  Te167  1  0.58853249  0.41697041  0.92919351  1
  Te  Te168  1  0.56077134  0.80052290  0.20242577  1
  Te  Te169  1  0.56986742  0.73383111  0.56529327  1
  Te  Te170  1  0.56924548  0.76675777  0.92861562  1
  Te  Te171  1  0.91331831  0.07884253  0.23853839  1
  Te  Te172  1  0.92811543  0.10344838  0.58722775  1
  Te  Te173  1  0.89382123  0.12899260  0.88156783  1
  Te  Te174  1  0.89341896  0.44063332  0.27001670  1
  Te  Te175  1  0.91275783  0.44891059  0.60049680  1
  Te  Te176  1  0.91856529  0.41960828  0.92976451  1
  Te  Te177  1  0.94708605  0.69761019  0.28197771  1
  Te  Te178  1  0.89941772  0.73127178  0.55647768  1
  Te  Te179  1  0.90524331  0.73576676  0.90035662  1
