# generated using pymatgen
data_In2Te3
_symmetry_space_group_name_H-M   'P 1'
_cell_length_a   18.82799821
_cell_length_b   18.82692809
_cell_length_c   18.82982601
_cell_angle_alpha   89.95604816
_cell_angle_beta   90.02090154
_cell_angle_gamma   90.07493729
_symmetry_Int_Tables_number   1
_chemical_formula_structural   In2Te3
_chemical_formula_sum   'In72 Te108'
_cell_volume   6674.66373464
_cell_formula_units_Z   36
loop_
 _symmetry_equiv_pos_site_id
 _symmetry_equiv_pos_as_xyz
  1  'x, y, z'
loop_
 _atom_site_type_symbol
 _atom_site_label
 _atom_site_symmetry_multiplicity
 _atom_site_fract_x
 _atom_site_fract_y
 _atom_site_fract_z
 _atom_site_occupancy
  In  In0  1  0.51233738  0.84133420  0.34826574  1
  In  In1  1  0.85142155  0.64897327  0.49212697  1
  In  In2  1  0.79599286  0.18149659  0.63983934  1
  In  In3  1  0.17175768  0.83829063  0.68017478  1
  In  In4  1  0.68951406  0.66362277  0.63070558  1
  In  In5  1  0.00280359  -0.00700338  0.67028226  1
  In  In6  1  0.32078283  0.33095092  0.66958067  1
  In  In7  1  0.00027682  0.49981461  0.17210833  1
  In  In8  1  -0.02229442  0.34372429  0.63738274  1
  In  In9  1  0.49817758  0.00894629  0.17406350  1
  In  In10  1  0.83354901  -0.01086487  0.49070736  1
  In  In11  1  0.13377636  0.67858638  0.47619433  1
  In  In12  1  0.34155620  0.83600257  0.49502270  1
  In  In13  1  0.84505769  0.82831257  0.00808481  1
  In  In14  1  0.17115453  0.48513870  0.66412718  1
  In  In15  1  0.47553154  0.87152299  0.67308235  1
  In  In16  1  0.68687962  0.15528308  0.17732366  1
  In  In17  1  0.83206898  0.50374730  0.00372181  1
  In  In18  1  0.32216556  0.81847880  0.16196339  1
  In  In19  1  0.67511427  0.69236037  0.01310773  1
  In  In20  1  0.66949948  0.85891075  0.49571224  1
  In  In21  1  0.16219658  0.35361799  0.14370483  1
  In  In22  1  0.51395883  0.65990344  0.83798239  1
  In  In23  1  0.50844679  0.35312598  0.15290177  1
  In  In24  1  -0.00546839  0.32078478  0.32592504  1
  In  In25  1  0.29214980  0.17653953  0.17649074  1
  In  In26  1  0.83402902  0.83144640  0.31800877  1
  In  In27  1  0.34119226  0.16208699  0.50936369  1
  In  In28  1  0.01041935  0.16612343  0.83191145  1
  In  In29  1  0.15694261  -0.03301291  0.85386615  1
  In  In30  1  0.01092947  0.65567517  0.69791808  1
  In  In31  1  0.81898131  0.01494851  0.16457694  1
  In  In32  1  0.84443005  0.32917621  0.84247914  1
  In  In33  1  0.03746636  0.63486552  -0.00404169  1
  In  In34  1  0.67351943  0.65936748  0.31000441  1
  In  In35  1  0.86137449  0.65734802  0.85658472  1
  In  In36  1  0.51001071  0.34432789  0.47707844  1
  In  In37  1  0.31962225  0.64749411  0.67538597  1
  In  In38  1  0.68806886  0.48726724  0.16146622  1
  In  In39  1  0.17096783  0.49507066  0.34150536  1
  In  In40  1  0.68506009  0.51492695  0.50666974  1
  In  In41  1  0.49417065  0.17061212  -0.02587545  1
  In  In42  1  0.00783208  0.18378791  0.49554452  1
  In  In43  1  0.16044815  0.33589832  0.50560277  1
  In  In44  1  0.44915714  0.64298468  0.17881089  1
  In  In45  1  0.67727784  0.47306852  0.81286948  1
  In  In46  1  0.18843717  -0.00293141  0.50767190  1
  In  In47  1  0.82975910  0.83452855  0.65416430  1
  In  In48  1  0.66449742  0.01379104  0.00808823  1
  In  In49  1  0.66341196  0.34321919  0.35241213  1
  In  In50  1  0.66725463  0.32915049  -0.02148835  1
  In  In51  1  0.84667673  0.01439245  0.81754677  1
  In  In52  1  0.34132246  -0.01001193  0.00258953  1
  In  In53  1  0.49258885  0.18213169  0.35917377  1
  In  In54  1  0.66773792  0.84311948  0.81144456  1
  In  In55  1  0.16491046  0.16502762  -0.00207910  1
  In  In56  1  0.67392369  0.85662397  0.16604964  1
  In  In57  1  -0.00576023  0.81639116  0.17614715  1
  In  In58  1  0.16054738  0.00583381  0.16549567  1
  In  In59  1  0.30223455  0.67287372  -0.00872390  1
  In  In60  1  0.35878195  0.16750132  0.81054336  1
  In  In61  1  0.34159123  0.34521931  0.34375547  1
  In  In62  1  0.17195410  0.35086989  0.85444731  1
  In  In63  1  0.50069883  0.68742619  0.50712161  1
  In  In64  1  0.82324517  0.16219445  0.34881923  1
  In  In65  1  0.50295317  0.31588461  0.79564327  1
  In  In66  1  -0.01685696  -0.02828398  0.31880281  1
  In  In67  1  0.49551632  0.47660772  0.66039837  1
  In  In68  1  0.33203788  0.83749115  0.84941477  1
  In  In69  1  0.15467635  0.15314951  0.31292701  1
  In  In70  1  0.17966807  0.65447243  0.16955698  1
  In  In71  1  0.48637756  0.52366414  0.00478607  1
  Te  Te72  1  0.06933771  0.08656966  0.08107242  1
  Te  Te73  1  0.06770946  0.07244644  0.41005164  1
  Te  Te74  1  0.10113632  0.07081704  0.75539673  1
  Te  Te75  1  0.05642980  0.41708368  0.06203901  1
  Te  Te76  1  0.06458885  0.41937076  0.42287149  1
  Te  Te77  1  0.07311361  0.40019233  0.74311895  1
  Te  Te78  1  0.09397192  0.74751969  0.08326430  1
  Te  Te79  1  0.03358457  0.74670119  0.39432624  1
  Te  Te80  1  0.10122757  0.74798991  0.77540055  1
  Te  Te81  1  0.40647639  0.10015434  0.08993626  1
  Te  Te82  1  0.40957568  0.07282012  0.41432888  1
  Te  Te83  1  0.45549045  0.08648569  0.73281202  1
  Te  Te84  1  0.40505442  0.42553098  0.07863351  1
  Te  Te85  1  0.42904494  0.45055512  0.40538595  1
  Te  Te86  1  0.39531511  0.42683955  0.76172483  1
  Te  Te87  1  0.41678788  0.74182175  0.06864669  1
  Te  Te88  1  0.41034840  0.73769809  0.39694900  1
  Te  Te89  1  0.41969245  0.74297703  0.74549495  1
  Te  Te90  1  0.77619955  0.11833774  0.05002074  1
  Te  Te91  1  0.73397834  0.08255596  0.43570934  1
  Te  Te92  1  0.74225661  0.09316717  0.74674234  1
  Te  Te93  1  0.76797798  0.38584279  0.07838299  1
  Te  Te94  1  0.76135746  0.44771507  0.39711244  1
  Te  Te95  1  0.75935020  0.38276862  0.73047833  1
  Te  Te96  1  0.77114019  0.74946331  0.11719343  1
  Te  Te97  1  0.74620538  0.74815793  0.42490685  1
  Te  Te98  1  0.76249002  0.73395144  0.75765745  1
  Te  Te99  1  0.08040675  0.24848173  0.22126362  1
  Te  Te100  1  0.09506312  0.24295010  0.60429872  1
  Te  Te101  1  0.06909720  0.26454045  0.93158193  1
  Te  Te102  1  0.07880567  0.58990691  0.26508832  1
  Te  Te103  1  0.08319369  0.58131138  0.58531218  1
  Te  Te104  1  0.11178921  0.56210963  0.89003621  1
  Te  Te105  1  0.09906510  0.89732092  0.25497020  1
  Te  Te106  1  0.08329589  0.90560918  0.57555417  1
  Te  Te107  1  0.04314125  0.89666584  0.91084546  1
  Te  Te108  1  0.41585196  0.25263315  0.24387006  1
  Te  Te109  1  0.42869038  0.26340320  0.58478651  1
  Te  Te110  1  0.40656431  0.27569353  0.90901767  1
  Te  Te111  1  0.40963877  0.54046790  0.27281747  1
  Te  Te112  1  0.41772788  0.57998685  0.57907457  1
  Te  Te113  1  0.39630849  0.58720562  0.89958974  1
  Te  Te114  1  0.41459674  0.90792784  0.24926703  1
  Te  Te115  1  0.41186604  0.94746800  0.56445006  1
  Te  Te116  1  0.43423543  0.92360321  0.91094356  1
  Te  Te117  1  0.75575732  0.26448868  0.25583344  1
  Te  Te118  1  0.72826806  0.29306054  0.57426398  1
  Te  Te119  1  0.74920134  0.23332013  0.90277291  1
  Te  Te120  1  0.77318339  0.56332973  0.25782959  1
  Te  Te121  1  0.79415961  0.55749575  0.61403627  1
  Te  Te122  1  0.72636017  0.58290357  0.91673380  1
  Te  Te123  1  0.73812492  0.94166439  0.27482308  1
  Te  Te124  1  0.73778252  0.94318687  0.60375546  1
  Te  Te125  1  0.75479897  0.91603087  0.92183356  1
  Te  Te126  1  0.25932235  0.26838369  0.06070772  1
  Te  Te127  1  0.23565333  0.24792422  0.40479684  1
  Te  Te128  1  0.23674821  0.24585634  0.76221592  1
  Te  Te129  1  0.25209790  0.56057978  0.07732840  1
  Te  Te130  1  0.24129316  0.59109221  0.42822701  1
  Te  Te131  1  0.22508692  0.57893601  0.76876319  1
  Te  Te132  1  0.23518590  0.90850191  0.07306838  1
  Te  Te133  1  0.23881868  0.90086267  0.40987000  1
  Te  Te134  1  0.26922456  0.93269266  0.74816943  1
  Te  Te135  1  0.58715535  0.23906354  0.08603307  1
  Te  Te136  1  0.61072190  0.23031589  0.44238774  1
  Te  Te137  1  0.59244557  0.21622038  0.73398137  1
  Te  Te138  1  0.59002513  0.59181948  0.09513872  1
  Te  Te139  1  0.58778263  0.59649688  0.42022324  1
  Te  Te140  1  0.59084268  0.58199703  0.73019479  1
  Te  Te141  1  0.56755813  0.91599604  0.07493432  1
  Te  Te142  1  0.56539442  0.94609059  0.43881133  1
  Te  Te143  1  0.58055669  0.94469038  0.74842620  1
  Te  Te144  1  0.90410452  0.17119868  0.11396803  1
  Te  Te145  1  0.89721778  0.26593371  0.43437323  1
  Te  Te146  1  0.91758000  0.23483710  0.73019913  1
  Te  Te147  1  0.91730423  0.60152559  0.08230146  1
  Te  Te148  1  0.92559543  0.53866536  0.42983243  1
  Te  Te149  1  0.92903314  0.55612843  0.77464476  1
  Te  Te150  1  0.92367003  0.92556011  0.09522396  1
  Te  Te151  1  0.92723050  0.88512780  0.43288770  1
  Te  Te152  1  0.92432204  0.89573778  0.75742328  1
  Te  Te153  1  0.26456169  0.05818812  0.26691812  1
  Te  Te154  1  0.24420506  0.09756926  0.59899151  1
  Te  Te155  1  0.26209065  0.08507976  0.91088076  1
  Te  Te156  1  0.25857932  0.42286888  0.24000227  1
  Te  Te157  1  0.26910359  0.42558258  0.56108320  1
  Te  Te158  1  0.21062062  0.45772732  0.95116131  1
  Te  Te159  1  0.25791659  0.73551311  0.26529707  1
  Te  Te160  1  0.24677638  0.74476120  0.58248252  1
  Te  Te161  1  0.21796086  0.75940866  0.90326132  1
  Te  Te162  1  0.58322639  0.09109444  0.26775374  1
  Te  Te163  1  0.53783736  0.13763433  0.61659096  1
  Te  Te164  1  0.59147720  0.08776594  0.90348979  1
  Te  Te165  1  0.58167927  0.43359396  0.25825691  1
  Te  Te166  1  0.60831700  0.40349813  0.58780470  1
  Te  Te167  1  0.56810843  0.42273780  0.90949133  1
  Te  Te168  1  0.57883853  0.75541464  0.23794865  1
  Te  Te169  1  0.58548630  0.77336516  0.60189164  1
  Te  Te170  1  0.58328883  0.76908861  0.91798523  1
  Te  Te171  1  0.92623381  0.09974054  0.24974736  1
  Te  Te172  1  0.91835553  0.08351136  0.57869272  1
  Te  Te173  1  0.93497698  0.07344795  0.91927798  1
  Te  Te174  1  0.91042443  0.39911183  0.23358485  1
  Te  Te175  1  0.90993278  0.44805063  0.55692021  1
  Te  Te176  1  0.92470333  0.43095013  0.91365519  1
  Te  Te177  1  0.92911061  0.72191088  0.27780586  1
  Te  Te178  1  0.92650857  0.73552528  0.59282823  1
  Te  Te179  1  0.95240081  0.76092548  0.92273762  1
