# generated using pymatgen
data_In2Te3
_symmetry_space_group_name_H-M   'P 1'
_cell_length_a   18.88235579
_cell_length_b   18.88296173
_cell_length_c   18.86205503
_cell_angle_alpha   89.97616611
_cell_angle_beta   90.07541679
_cell_angle_gamma   90.00839303
_symmetry_Int_Tables_number   1
_chemical_formula_structural   In2Te3
_chemical_formula_sum   'In72 Te108'
_cell_volume   6725.34981359
_cell_formula_units_Z   36
loop_
 _symmetry_equiv_pos_site_id
 _symmetry_equiv_pos_as_xyz
  1  'x, y, z'
loop_
 _atom_site_type_symbol
 _atom_site_label
 _atom_site_symmetry_multiplicity
 _atom_site_fract_x
 _atom_site_fract_y
 _atom_site_fract_z
 _atom_site_occupancy
  In  In0  1  0.01734604  0.02271630  0.35128297  1
  In  In1  1  0.66895471  0.51406821  0.49264406  1
  In  In2  1  0.49347577  0.30973978  0.16451844  1
  In  In3  1  -0.01464245  0.83751406  0.81100218  1
  In  In4  1  0.85649673  0.33231067  0.84436155  1
  In  In5  1  0.52858845  0.86828294  0.02660603  1
  In  In6  1  0.68875947  0.49617573  0.82531918  1
  In  In7  1  0.13343092  0.66515379  0.81625986  1
  In  In8  1  0.34799666  0.67565728  0.01565467  1
  In  In9  1  0.17682635  0.00495769  0.50237306  1
  In  In10  1  0.18546886  0.47923367  0.30303827  1
  In  In11  1  0.82799352  0.01534340  0.51747365  1
  In  In12  1  0.50016943  0.69092946  0.87102705  1
  In  In13  1  0.34074834  0.49174071  0.48250220  1
  In  In14  1  0.02854535  0.47211055  0.81266286  1
  In  In15  1  0.34083183  0.01326582  0.32627748  1
  In  In16  1  0.49193733  0.33524042  0.47817170  1
  In  In17  1  0.65740630  -0.01871996  0.33716176  1
  In  In18  1  0.85872223  0.35071243  0.52484727  1
  In  In19  1  0.50493471  0.14978517  0.32804856  1
  In  In20  1  0.18826653  0.84616729  -0.01476383  1
  In  In21  1  0.33900636  0.16638856  0.80503144  1
  In  In22  1  0.49918563  -0.01459208  0.84308411  1
  In  In23  1  -0.00066544  0.33321703  0.32885340  1
  In  In24  1  0.48083314  0.51025389  0.08580071  1
  In  In25  1  0.34173917  0.84132530  0.15163827  1
  In  In26  1  0.68476639  0.51225115  0.17977971  1
  In  In27  1  -0.03484080  0.65146696  0.34135070  1
  In  In28  1  0.02178018  0.16338248  0.16521106  1
  In  In29  1  0.29958647  0.15967636  0.16602766  1
  In  In30  1  0.65397470  0.69380772  0.65086744  1
  In  In31  1  0.81294797  0.67630332  0.81000721  1
  In  In32  1  0.83008853  0.80881984  0.34800646  1
  In  In33  1  0.33067605  0.17621218  0.47902653  1
  In  In34  1  0.29928489  0.50586710  0.84236971  1
  In  In35  1  0.83753286  0.14957546  0.01169856  1
  In  In36  1  0.50273620  0.50836961  0.67050064  1
  In  In37  1  0.16292182  0.47196927  0.02325254  1
  In  In38  1  0.81951500  -0.00724495  0.17055404  1
  In  In39  1  0.30494005  0.31729975  0.65888209  1
  In  In40  1  0.50975487  0.67025306  0.49353211  1
  In  In41  1  0.16505927  0.31528380  0.48791092  1
  In  In42  1  0.16453764  -0.00839669  0.82175125  1
  In  In43  1  0.66201949  0.14550292  0.85627227  1
  In  In44  1  0.32291520  0.70353773  0.67317158  1
  In  In45  1  0.83632851  -0.00400194  0.84511787  1
  In  In46  1  0.82802815  0.18966961  0.34118776  1
  In  In47  1  0.82021399  0.68217695  0.17394049  1
  In  In48  1  0.14944691  0.16425192  0.67376881  1
  In  In49  1  0.82998537  0.33136385  0.18234653  1
  In  In50  1  0.67530542  0.32062933  0.33562252  1
  In  In51  1  0.12672219  0.17522170  -0.02217264  1
  In  In52  1  0.36814168  0.65816032  0.30292737  1
  In  In53  1  0.52137916  0.80802176  0.31200268  1
  In  In54  1  0.15810075  0.63814966  0.51085447  1
  In  In55  1  0.52156046  0.15174015  0.67490627  1
  In  In56  1  0.34033960  0.00902593  0.00939699  1
  In  In57  1  0.16426326  0.67138649  0.15184129  1
  In  In58  1  0.00502073  0.84120112  0.50582068  1
  In  In59  1  0.64302438  0.33732232  0.01462245  1
  In  In60  1  0.82335882  0.66691512  0.50479167  1
  In  In61  1  -0.00434235  0.67016129  0.66962984  1
  In  In62  1  -0.00067452  0.67800888  0.01189886  1
  In  In63  1  0.67986706  0.32104224  0.67765153  1
  In  In64  1  0.86849617  0.17390609  0.66007943  1
  In  In65  1  0.00580814  0.47583780  0.15874898  1
  In  In66  1  0.84600037  0.49969288  -0.03640060  1
  In  In67  1  0.46506298  0.33915725  0.85546295  1
  In  In68  1  0.67725240  -0.00951303  0.66403515  1
  In  In69  1  0.32742804  0.83069567  0.80423484  1
  In  In70  1  0.81083193  0.85251485  0.00740843  1
  In  In71  1  0.15929139  0.85259958  0.34102789  1
  Te  Te72  1  0.07180033  0.06929392  0.06459513  1
  Te  Te73  1  0.12289647  0.10971031  0.40918406  1
  Te  Te74  1  0.06422910  0.07539346  0.75387552  1
  Te  Te75  1  0.10196147  0.37054035  0.11602870  1
  Te  Te76  1  0.09073418  0.42715358  0.40752553  1
  Te  Te77  1  0.13160577  0.39241016  0.74826814  1
  Te  Te78  1  0.08494933  0.78040073  0.08273676  1
  Te  Te79  1  0.07502043  0.73811315  0.41496135  1
  Te  Te80  1  0.09459943  0.77660049  0.72309112  1
  Te  Te81  1  0.41192567  0.07687028  0.11756177  1
  Te  Te82  1  0.43114520  0.07047124  0.43652059  1
  Te  Te83  1  0.41849498  0.05679699  0.73443571  1
  Te  Te84  1  0.40838574  0.38431268  0.06714753  1
  Te  Te85  1  0.43866450  0.43713197  0.38522269  1
  Te  Te86  1  0.39729495  0.42051670  0.73965641  1
  Te  Te87  1  0.45468674  0.74525659  0.10295485  1
  Te  Te88  1  0.41061695  0.75279081  0.41109742  1
  Te  Te89  1  0.45243163  0.75999655  0.74508057  1
  Te  Te90  1  0.73106946  0.05661174  0.06361235  1
  Te  Te91  1  0.74337039  0.08510563  0.41157638  1
  Te  Te92  1  0.75487900  0.10644787  0.74430835  1
  Te  Te93  1  0.76394721  0.42048888  0.07034196  1
  Te  Te94  1  0.75859353  0.41286470  0.42266279  1
  Te  Te95  1  0.78251155  0.41572004  0.73740126  1
  Te  Te96  1  0.72803083  0.76522933  0.09487650  1
  Te  Te97  1  0.72740342  0.71616292  0.40165781  1
  Te  Te98  1  0.73232584  0.77864487  0.74362188  1
  Te  Te99  1  0.09985813  0.25879280  0.24999077  1
  Te  Te100  1  0.07723156  0.26864015  0.59712726  1
  Te  Te101  1  0.03090019  0.25299341  0.89536256  1
  Te  Te102  1  0.07579594  0.58805629  0.24441156  1
  Te  Te103  1  0.06705256  0.55711064  0.59828372  1
  Te  Te104  1  0.08644836  0.57872820  0.93506607  1
  Te  Te105  1  0.07290942  0.92887691  0.25240751  1
  Te  Te106  1  0.07303757  0.94267882  0.58812389  1
  Te  Te107  1  0.07216227  0.91242136  0.91380515  1
  Te  Te108  1  0.40124726  0.23806066  0.26146450  1
  Te  Te109  1  0.42657649  0.25305497  0.59145205  1
  Te  Te110  1  0.41648586  0.21676353  0.92246280  1
  Te  Te111  1  0.42679486  0.54866602  0.22304324  1
  Te  Te112  1  0.40676510  0.59102181  0.58534076  1
  Te  Te113  1  0.41691388  0.57473596  0.92176052  1
  Te  Te114  1  0.42906071  0.91652917  0.24886147  1
  Te  Te115  1  0.35679287  0.84564379  0.62487551  1
  Te  Te116  1  0.40138442  0.89262245  0.92932841  1
  Te  Te117  1  0.73104234  0.22620540  0.22806669  1
  Te  Te118  1  0.75894113  0.24383623  0.57575836  1
  Te  Te119  1  0.74771011  0.25805496  0.92143285  1
  Te  Te120  1  0.75645422  0.59738811  0.27916111  1
  Te  Te121  1  0.74546167  0.58090770  0.60536539  1
  Te  Te122  1  0.74140243  0.60134807  0.92375518  1
  Te  Te123  1  0.74178588  0.88853923  0.25146625  1
  Te  Te124  1  0.74779503  0.90357316  0.56651730  1
  Te  Te125  1  0.72476289  0.92821455  0.91309189  1
  Te  Te126  1  0.22314138  0.24308348  0.06914096  1
  Te  Te127  1  0.28081610  0.28931706  0.39942577  1
  Te  Te128  1  0.22462024  0.26904013  0.78006190  1
  Te  Te129  1  0.26547752  0.57124395  0.09625664  1
  Te  Te130  1  0.25407651  0.58987130  0.39426316  1
  Te  Te131  1  0.23423517  0.58753997  0.73299471  1
  Te  Te132  1  0.23631017  0.93695296  0.09767897  1
  Te  Te133  1  0.27017266  0.91539138  0.42180712  1
  Te  Te134  1  0.25470651  0.92890292  0.71793858  1
  Te  Te135  1  0.58624821  0.22406488  0.08656356  1
  Te  Te136  1  0.59008969  0.23282202  0.42568046  1
  Te  Te137  1  0.57470057  0.26152846  0.77030814  1
  Te  Te138  1  0.60255046  0.59483383  0.08615686  1
  Te  Te139  1  0.56222806  0.56399347  0.40364362  1
  Te  Te140  1  0.58766652  0.59427662  0.76198747  1
  Te  Te141  1  0.60563888  0.96314630  0.10914391  1
  Te  Te142  1  0.57459291  0.89258438  0.42305570  1
  Te  Te143  1  0.59283334  0.91047973  0.75749836  1
  Te  Te144  1  0.91904139  0.25186088  0.09028912  1
  Te  Te145  1  0.93139349  0.24843869  0.43509700  1
  Te  Te146  1  0.94960907  0.26540099  0.74819101  1
  Te  Te147  1  0.90915285  0.57916336  0.08642142  1
  Te  Te148  1  0.91894984  0.56378456  0.45230043  1
  Te  Te149  1  0.92492783  0.57977441  0.77097164  1
  Te  Te150  1  0.91387222  0.93162486  0.07565280  1
  Te  Te151  1  0.91289974  0.92055482  0.40969634  1
  Te  Te152  1  0.89666945  0.92318789  0.73286425  1
  Te  Te153  1  0.22342073  0.08705812  0.27310478  1
  Te  Te154  1  0.26058347  0.10046865  0.58960866  1
  Te  Te155  1  0.25295059  0.08236549  0.90772241  1
  Te  Te156  1  0.27845852  0.44604686  0.19517984  1
  Te  Te157  1  0.24097597  0.42394965  0.57347886  1
  Te  Te158  1  0.25715364  0.40059245  0.93504019  1
  Te  Te159  1  0.25198646  0.75567643  0.24576303  1
  Te  Te160  1  0.23125173  0.75638512  0.56352959  1
  Te  Te161  1  0.24761514  0.72732856  0.90890955  1
  Te  Te162  1  0.58178064  0.06151397  0.23368655  1
  Te  Te163  1  0.58785344  0.06894239  0.57522118  1
  Te  Te164  1  0.54448603  0.09703888  0.93133966  1
  Te  Te165  1  0.59586131  0.40290243  0.23730281  1
  Te  Te166  1  0.58654706  0.41133990  0.58710804  1
  Te  Te167  1  0.58082191  0.42660355  0.90824876  1
  Te  Te168  1  0.57327222  0.72334623  0.20227996  1
  Te  Te169  1  0.57930581  0.78435231  0.55911801  1
  Te  Te170  1  0.60043585  0.77738852  0.93401845  1
  Te  Te171  1  0.91010415  0.09382393  0.25501401  1
  Te  Te172  1  0.94645777  0.08178459  0.57417213  1
  Te  Te173  1  0.92392036  0.10168532  0.90216403  1
  Te  Te174  1  0.90408622  0.43451948  0.26507851  1
  Te  Te175  1  0.94482460  0.45620964  0.57988684  1
  Te  Te176  1  0.96056325  0.40153259  0.93766396  1
  Te  Te177  1  0.93106393  0.76186743  0.24215841  1
  Te  Te178  1  0.90441453  0.76258284  0.59081065  1
  Te  Te179  1  0.90804289  0.75041139  0.91438005  1
