# generated using pymatgen
data_In2Te3
_symmetry_space_group_name_H-M   'P 1'
_cell_length_a   18.94677410
_cell_length_b   18.93601900
_cell_length_c   18.92966522
_cell_angle_alpha   90.01054427
_cell_angle_beta   89.99600604
_cell_angle_gamma   89.85255776
_symmetry_Int_Tables_number   1
_chemical_formula_structural   In2Te3
_chemical_formula_sum   'In72 Te108'
_cell_volume   6791.49592813
_cell_formula_units_Z   36
loop_
 _symmetry_equiv_pos_site_id
 _symmetry_equiv_pos_as_xyz
  1  'x, y, z'
loop_
 _atom_site_type_symbol
 _atom_site_label
 _atom_site_symmetry_multiplicity
 _atom_site_fract_x
 _atom_site_fract_y
 _atom_site_fract_z
 _atom_site_occupancy
  In  In0  1  0.09865965  0.34962128  0.82146375  1
  In  In1  1  0.18540688  0.00941380  0.82363358  1
  In  In2  1  0.01355433  0.49903726  0.18137931  1
  In  In3  1  0.52210859  0.50815295  0.03231206  1
  In  In4  1  0.68746101  0.16879453  0.83254548  1
  In  In5  1  0.35746806  0.83881882  0.17625183  1
  In  In6  1  0.50249107  0.35125349  0.80787701  1
  In  In7  1  0.01493049  0.64817441  0.65532965  1
  In  In8  1  0.17085172  0.66110917  0.82242808  1
  In  In9  1  0.82383200  0.30904059  0.16805513  1
  In  In10  1  0.84639842  0.50272340  0.34633014  1
  In  In11  1  0.83429699  0.85572242  0.67513817  1
  In  In12  1  0.27305950  0.29922984  -0.03487186  1
  In  In13  1  0.33356852  0.32530990  0.34235981  1
  In  In14  1  0.48714027  0.86308931  0.34233884  1
  In  In15  1  0.51351971  0.68823331  0.17659568  1
  In  In16  1  0.57562399  0.87449202  -0.02680323  1
  In  In17  1  0.66178625  0.81527654  0.49872378  1
  In  In18  1  0.49969644  0.17620753  -0.00636218  1
  In  In19  1  0.36766042  0.01385744  -0.00881207  1
  In  In20  1  0.67139524  0.65671353  0.33074393  1
  In  In21  1  -0.00079387  0.16740581  0.17094804  1
  In  In22  1  0.85120522  0.30001939  0.44930390  1
  In  In23  1  -0.01883634  0.83498784  0.82467049  1
  In  In24  1  0.85860237  0.47207299  -0.00089937  1
  In  In25  1  0.82688373  0.14804908  0.67427175  1
  In  In26  1  0.85967497  0.49073937  0.63527535  1
  In  In27  1  0.15944575  0.82597213  0.33844235  1
  In  In28  1  0.33858394  0.17562104  0.77532477  1
  In  In29  1  0.32716996  0.82449200  0.50509525  1
  In  In30  1  0.16170858  0.18059067  0.64719061  1
  In  In31  1  0.31492293  0.66734508  0.33290285  1
  In  In32  1  0.17917517  0.31442957  0.16203031  1
  In  In33  1  0.65459330  0.30625625  0.00204247  1
  In  In34  1  0.32373862  0.85193931  0.84613539  1
  In  In35  1  0.84970525  0.34722223  0.82573132  1
  In  In36  1  0.64784530  0.28854350  0.33339607  1
  In  In37  1  0.37733023  0.49787833  0.81100896  1
  In  In38  1  -0.01500336  0.86077353  0.16893591  1
  In  In39  1  0.32835381  0.49222926  0.16683631  1
  In  In40  1  0.15123289  0.50504838  0.37849466  1
  In  In41  1  0.65512117  0.51826657  0.16689980  1
  In  In42  1  0.64051979  0.02045845  0.30988859  1
  In  In43  1  -0.01206168  0.01756942  -0.00483801  1
  In  In44  1  0.67936113  0.49984069  0.50538459  1
  In  In45  1  0.33746010  0.66586877  0.64873972  1
  In  In46  1  0.17433852  -0.00559258  0.17344861  1
  In  In47  1  0.69246829  0.88317360  0.11754477  1
  In  In48  1  -0.01029606  0.67461978  0.34639405  1
  In  In49  1  0.82395452  0.05187426  0.14676033  1
  In  In50  1  0.00540486  0.16689456  0.84737221  1
  In  In51  1  -0.01182476  0.67343486  -0.01222177  1
  In  In52  1  0.16306833  0.82774784  0.00229562  1
  In  In53  1  0.44949155  0.17111682  0.52024021  1
  In  In54  1  0.84214998  0.67628963  0.81307223  1
  In  In55  1  0.52078135  0.71212140  0.83859240  1
  In  In56  1  0.00515547  0.83136292  0.51505564  1
  In  In57  1  0.34212157  0.00081979  0.66754313  1
  In  In58  1  0.14830868  0.15753445  0.33700011  1
  In  In59  1  0.49496617  0.50816558  0.66946551  1
  In  In60  1  0.14527406  0.00008683  0.49771457  1
  In  In61  1  0.53225025  0.85486005  0.68458780  1
  In  In62  1  0.16189684  0.49038263  0.00146401  1
  In  In63  1  0.67338556  0.32012044  0.66308091  1
  In  In64  1  0.34901434  0.63383075  0.02231096  1
  In  In65  1  0.64085620  0.14933144  0.50369464  1
  In  In66  1  0.66688176  0.53352672  0.83644069  1
  In  In67  1  0.50975001  0.30849204  0.14784655  1
  In  In68  1  0.48693028  0.47560031  0.35355347  1
  In  In69  1  0.13627994  0.32719387  0.49169300  1
  In  In70  1  0.81699904  0.82780528  0.34058612  1
  In  In71  1  0.84107254  0.00993832  0.49561541  1
  Te  Te72  1  0.09249618  0.08423833  0.08083510  1
  Te  Te73  1  0.04990621  0.10189535  0.43739006  1
  Te  Te74  1  0.08466746  0.08684013  0.74463532  1
  Te  Te75  1  0.07687845  0.39855304  0.08566366  1
  Te  Te76  1  0.04480407  0.41027627  0.40879798  1
  Te  Te77  1  0.07629211  0.43288013  0.70098218  1
  Te  Te78  1  0.06658885  0.75519685  0.09126921  1
  Te  Te79  1  0.09625784  0.73431993  0.43999563  1
  Te  Te80  1  0.08217447  0.75475390  0.74406021  1
  Te  Te81  1  0.44885894  0.08019146  0.09458148  1
  Te  Te82  1  0.43636505  0.07726028  0.40619610  1
  Te  Te83  1  0.42511419  0.05656188  0.77644670  1
  Te  Te84  1  0.41608989  0.40920949  0.07512230  1
  Te  Te85  1  0.39203137  0.41320307  0.44552160  1
  Te  Te86  1  0.39639568  0.38912408  0.70286291  1
  Te  Te87  1  0.42826256  0.75460815  0.06923731  1
  Te  Te88  1  0.41843374  0.74534567  0.41071402  1
  Te  Te89  1  0.40483350  0.76109965  0.75051731  1
  Te  Te90  1  0.70491389  0.08341033  0.06638042  1
  Te  Te91  1  0.73897431  0.08361386  0.40921994  1
  Te  Te92  1  0.71623170  0.06454863  0.72882375  1
  Te  Te93  1  0.73680385  0.41575538  0.08099055  1
  Te  Te94  1  0.73854622  0.40403830  0.39966715  1
  Te  Te95  1  0.74009092  0.42328680  0.75232292  1
  Te  Te96  1  0.71641512  0.74065556  0.11114281  1
  Te  Te97  1  0.76300439  0.72130632  0.43391356  1
  Te  Te98  1  0.74224835  0.76279971  0.74719013  1
  Te  Te99  1  0.07452283  0.26548259  0.25904343  1
  Te  Te100  1  0.04817756  0.24241065  0.57640807  1
  Te  Te101  1  0.10465684  0.24703717  0.92745180  1
  Te  Te102  1  0.09221318  0.59499260  0.26686963  1
  Te  Te103  1  0.09312680  0.54068513  0.58664384  1
  Te  Te104  1  0.07774041  0.57903197  0.90915365  1
  Te  Te105  1  0.07443042  0.93148040  0.26873307  1
  Te  Te106  1  0.07314651  0.92691270  0.60250012  1
  Te  Te107  1  0.08493243  0.92066562  0.91233151  1
  Te  Te108  1  0.42599545  0.24706419  0.25510270  1
  Te  Te109  1  0.38547878  0.23284682  0.63982653  1
  Te  Te110  1  0.41623882  0.26540892  0.90333537  1
  Te  Te111  1  0.42763681  0.57832187  0.24445125  1
  Te  Te112  1  0.41075032  0.56885193  0.56457114  1
  Te  Te113  1  0.44915733  0.59132195  0.91298342  1
  Te  Te114  1  0.39154804  0.94765836  0.26836822  1
  Te  Te115  1  0.42688567  0.90829042  0.58245254  1
  Te  Te116  1  0.44621000  0.92295255  0.89819855  1
  Te  Te117  1  0.75407802  0.21745736  0.26112902  1
  Te  Te118  1  0.75754504  0.24201039  0.56408653  1
  Te  Te119  1  0.77373547  0.25591655  0.92295078  1
  Te  Te120  1  0.76987685  0.58434269  0.24157248  1
  Te  Te121  1  0.74946707  0.58120998  0.60436072  1
  Te  Te122  1  0.78155359  0.57981846  0.92116903  1
  Te  Te123  1  0.75720432  0.93560148  0.25058439  1
  Te  Te124  1  0.74354985  0.92100596  0.57224991  1
  Te  Te125  1  0.70452490  0.91171234  0.90626945  1
  Te  Te126  1  0.27492995  0.22895892  0.09194083  1
  Te  Te127  1  0.24391700  0.23757603  0.42591439  1
  Te  Te128  1  0.21509671  0.26771967  0.75909366  1
  Te  Te129  1  0.22714484  0.58657516  0.09907822  1
  Te  Te130  1  0.26585983  0.57667972  0.43641562  1
  Te  Te131  1  0.25966095  0.57052784  0.74228416  1
  Te  Te132  1  0.26668188  0.91703896  0.06792092  1
  Te  Te133  1  0.24815990  0.92031726  0.41596086  1
  Te  Te134  1  0.24095391  0.90283905  0.73150343  1
  Te  Te135  1  0.62315478  0.20865879  0.11604662  1
  Te  Te136  1  0.55836291  0.26776255  0.45120252  1
  Te  Te137  1  0.57824474  0.23612665  0.74480188  1
  Te  Te138  1  0.61389233  0.63081190  0.06596453  1
  Te  Te139  1  0.57787468  0.57832108  0.42043110  1
  Te  Te140  1  0.58207767  0.61081561  0.73835219  1
  Te  Te141  1  0.55542595  0.93607765  0.10734796  1
  Te  Te142  1  0.59301339  0.93053149  0.42517963  1
  Te  Te143  1  0.62846513  0.92916419  0.76958900  1
  Te  Te144  1  0.90660678  0.23177472  0.07471782  1
  Te  Te145  1  0.92882481  0.18947081  0.38916813  1
  Te  Te146  1  0.92295323  0.24557114  0.74276027  1
  Te  Te147  1  0.92216720  0.57874623  0.08796234  1
  Te  Te148  1  0.92480383  0.58230873  0.43990319  1
  Te  Te149  1  0.92686582  0.56760528  0.75009785  1
  Te  Te150  1  0.89151706  0.93081739  0.07296840  1
  Te  Te151  1  0.92215017  0.90893974  0.41372394  1
  Te  Te152  1  0.89678697  0.94606234  0.77597010  1
  Te  Te153  1  0.24905778  0.09420853  0.24947680  1
  Te  Te154  1  0.25183944  0.07984145  0.57416020  1
  Te  Te155  1  0.27169726  0.09474361  0.90852833  1
  Te  Te156  1  0.23636590  0.42180052  0.26310394  1
  Te  Te157  1  0.19329526  0.41914420  0.59694601  1
  Te  Te158  1  0.27171335  0.43879417  0.91041341  1
  Te  Te159  1  0.24348309  0.75550972  0.23221935  1
  Te  Te160  1  0.23158157  0.73957245  0.57686932  1
  Te  Te161  1  0.26027483  0.73051157  0.92677920  1
  Te  Te162  1  0.53350270  0.12695474  0.30544687  1
  Te  Te163  1  0.54433009  0.07603616  0.58430676  1
  Te  Te164  1  0.60779290  0.09122752  0.93404168  1
  Te  Te165  1  0.58219997  0.40911704  0.24575670  1
  Te  Te166  1  0.58296115  0.41396740  0.58544672  1
  Te  Te167  1  0.59000788  0.42108742  0.91632516  1
  Te  Te168  1  0.59272216  0.77235412  0.27195537  1
  Te  Te169  1  0.56692528  0.74946025  0.58872097  1
  Te  Te170  1  0.64930863  0.75966036  0.89970420  1
  Te  Te171  1  0.91496195  0.08260724  0.26014537  1
  Te  Te172  1  0.92578029  0.06776711  0.60088319  1
  Te  Te173  1  0.89702660  0.07520817  0.89369527  1
  Te  Te174  1  0.91118243  0.40764135  0.24665178  1
  Te  Te175  1  0.91536122  0.37738845  0.55928029  1
  Te  Te176  1  0.95796593  0.40676549  0.90825600  1
  Te  Te177  1  0.90788085  0.75303856  0.24364365  1
  Te  Te178  1  0.91275099  0.74576181  0.59833057  1
  Te  Te179  1  0.89018102  0.77127865  0.92764906  1
