# generated using pymatgen
data_In2Te3
_symmetry_space_group_name_H-M   'P 1'
_cell_length_a   18.76147015
_cell_length_b   18.76322350
_cell_length_c   18.76407870
_cell_angle_alpha   89.99684855
_cell_angle_beta   89.92714600
_cell_angle_gamma   89.99405028
_symmetry_Int_Tables_number   1
_chemical_formula_structural   In2Te3
_chemical_formula_sum   'In72 Te108'
_cell_volume   6605.43175768
_cell_formula_units_Z   36
loop_
 _symmetry_equiv_pos_site_id
 _symmetry_equiv_pos_as_xyz
  1  'x, y, z'
loop_
 _atom_site_type_symbol
 _atom_site_label
 _atom_site_symmetry_multiplicity
 _atom_site_fract_x
 _atom_site_fract_y
 _atom_site_fract_z
 _atom_site_occupancy
  In  In0  1  0.35456611  0.34387992  0.00102945  1
  In  In1  1  0.00633760  0.66220907  0.33629992  1
  In  In2  1  0.82719421  -0.00564955  0.52017346  1
  In  In3  1  0.63683906  0.68175389  0.64891881  1
  In  In4  1  0.34589056  0.33916942  0.34433141  1
  In  In5  1  0.50558093  0.01934502  0.82201358  1
  In  In6  1  0.16496742  0.82159915  0.33326112  1
  In  In7  1  0.01569879  0.65002151  -0.00118806  1
  In  In8  1  0.64754081  0.33911119  0.69227791  1
  In  In9  1  0.34689200  -0.01429212  0.67273980  1
  In  In10  1  0.48405043  0.51299496  0.64257976  1
  In  In11  1  0.63947899  -0.01455262  0.34979606  1
  In  In12  1  0.33688735  0.17154131  0.19450661  1
  In  In13  1  -0.01543334  0.32577153  -0.02225933  1
  In  In14  1  0.65100234  0.17344512  0.49834449  1
  In  In15  1  0.68020832  0.84165937  0.83100216  1
  In  In16  1  0.52111818  0.84579634  0.00494906  1
  In  In17  1  0.67136562  0.49564172  0.17165332  1
  In  In18  1  0.82513568  0.49339308  -0.00545734  1
  In  In19  1  0.50173214  0.50744549  0.34697542  1
  In  In20  1  0.13195396  0.18591423  -0.00451569  1
  In  In21  1  0.66214906  0.50800206  0.49664647  1
  In  In22  1  0.82129241  0.83065286  0.34958454  1
  In  In23  1  -0.00894627  0.19202567  0.15040701  1
  In  In24  1  0.67316101  0.18756748  0.15507014  1
  In  In25  1  0.34851780  0.00583408  0.00019612  1
  In  In26  1  0.00967786  0.00064718  0.34967286  1
  In  In27  1  0.82297847  0.65359723  0.82459895  1
  In  In28  1  0.53404322  0.45688878  -0.02131019  1
  In  In29  1  -0.04680156  0.03069659  -0.02046054  1
  In  In30  1  -0.01294327  0.83397372  0.81605379  1
  In  In31  1  0.17198371  0.65905102  0.16945247  1
  In  In32  1  0.17564641  0.33616574  0.50985284  1
  In  In33  1  0.17370490  -0.00614387  0.17680082  1
  In  In34  1  0.51076159  0.66083274  0.20235356  1
  In  In35  1  0.35040946  0.02220892  0.34740381  1
  In  In36  1  -0.01355209  0.34471917  0.32776544  1
  In  In37  1  0.66766995  -0.00095382  0.66175377  1
  In  In38  1  0.16386160  0.81570752  -0.01629675  1
  In  In39  1  0.81991626  0.84432026  -0.00369213  1
  In  In40  1  0.83021607  0.34101134  0.50249987  1
  In  In41  1  0.18141025  0.51172746  0.34884012  1
  In  In42  1  0.33711602  0.81400417  0.50326549  1
  In  In43  1  0.68700443  0.66215424  0.00549379  1
  In  In44  1  0.52346169  -0.01003999  0.16172552  1
  In  In45  1  0.18449256  0.66097922  0.49789678  1
  In  In46  1  0.82541291  0.66111248  0.16687713  1
  In  In47  1  0.36544992  0.20200219  0.52392775  1
  In  In48  1  0.82385712  0.00833739  0.15091277  1
  In  In49  1  0.82450038  0.18267693  0.32180288  1
  In  In50  1  0.53350556  0.18833564  -0.01416322  1
  In  In51  1  0.16403092  0.33258028  0.16540391  1
  In  In52  1  0.33154611  0.66188604  -0.00675943  1
  In  In53  1  0.83743927  0.67916918  0.50048164  1
  In  In54  1  -0.00747962  0.66476187  0.65778221  1
  In  In55  1  0.32266236  0.17989630  0.80992905  1
  In  In56  1  0.16699094  0.16245621  0.67328780  1
  In  In57  1  0.49238342  0.65604247  0.81099906  1
  In  In58  1  0.83396990  0.49914769  0.31942081  1
  In  In59  1  0.82202470  0.47147314  0.68656143  1
  In  In60  1  -0.00418587  -0.00666521  0.67168443  1
  In  In61  1  -0.00439175  0.33230844  0.67805626  1
  In  In62  1  0.83534480  0.15159107  0.68292074  1
  In  In63  1  0.48091316  0.18155666  0.34937289  1
  In  In64  1  0.33947554  0.81019642  0.80371269  1
  In  In65  1  0.49980078  0.82196722  0.35693888  1
  In  In66  1  0.16506773  0.49898226  -0.00863263  1
  In  In67  1  0.33345264  0.48353542  0.81434159  1
  In  In68  1  0.16139207  -0.00104182  0.82083142  1
  In  In69  1  0.32065278  0.80491513  0.19076949  1
  In  In70  1  0.17558703  0.49458203  0.66304767  1
  In  In71  1  0.14989806  -0.00262429  0.51546382  1
  Te  Te72  1  0.07649957  0.07407257  0.08574369  1
  Te  Te73  1  0.08845782  0.09753684  0.42694396  1
  Te  Te74  1  0.06182037  0.09780906  0.76400787  1
  Te  Te75  1  0.07191240  0.41259862  0.07744442  1
  Te  Te76  1  0.08234214  0.42039188  0.42129588  1
  Te  Te77  1  0.09534810  0.40991286  0.75726362  1
  Te  Te78  1  0.07813577  0.75309201  0.09464511  1
  Te  Te79  1  0.07542268  0.75431991  0.43598033  1
  Te  Te80  1  0.08061419  0.74265352  0.75042968  1
  Te  Te81  1  0.43066101  0.09697529  0.08984915  1
  Te  Te82  1  0.44093482  0.07761526  0.45434466  1
  Te  Te83  1  0.42690643  0.10659531  0.72506151  1
  Te  Te84  1  0.43555824  0.43093154  0.08606933  1
  Te  Te85  1  0.41706894  0.42415194  0.44177149  1
  Te  Te86  1  0.42676638  0.39932610  0.72938426  1
  Te  Te87  1  0.41675618  0.75648298  0.07826767  1
  Te  Te88  1  0.42255764  0.71236418  0.42797592  1
  Te  Te89  1  0.41685107  0.72906477  0.70671354  1
  Te  Te90  1  0.74981291  0.10064903  0.05722401  1
  Te  Te91  1  0.75141401  0.07945026  0.41324028  1
  Te  Te92  1  0.72328410  0.09501592  0.76163593  1
  Te  Te93  1  0.72351609  0.40633762  0.06176677  1
  Te  Te94  1  0.73915906  0.41241722  0.40434125  1
  Te  Te95  1  0.75365719  0.38648595  0.78988025  1
  Te  Te96  1  0.73723268  0.76836403  0.10143184  1
  Te  Te97  1  0.72851377  0.73586756  0.41680105  1
  Te  Te98  1  0.75108135  0.74972263  0.73148021  1
  Te  Te99  1  0.08419882  0.24392274  0.26051813  1
  Te  Te100  1  0.07591855  0.24452251  0.58050434  1
  Te  Te101  1  0.08779526  0.26878332  0.88320439  1
  Te  Te102  1  0.07839801  0.56395462  0.24435841  1
  Te  Te103  1  0.08159456  0.57435349  0.57051226  1
  Te  Te104  1  0.09195314  0.58209902  0.89340176  1
  Te  Te105  1  0.07081669  0.90406590  0.24605790  1
  Te  Te106  1  0.07928027  0.89730189  0.59592419  1
  Te  Te107  1  0.07293085  0.92290906  0.92172091  1
  Te  Te108  1  0.43607070  0.27723592  0.23459004  1
  Te  Te109  1  0.43704750  0.28597635  0.62060986  1
  Te  Te110  1  0.42448137  0.25426914  0.89972560  1
  Te  Te111  1  0.40334598  0.57904643  0.25713473  1
  Te  Te112  1  0.41231066  0.60061895  0.54471823  1
  Te  Te113  1  0.42631090  0.56640605  0.91779155  1
  Te  Te114  1  0.41257401  0.92065555  0.24960385  1
  Te  Te115  1  0.43223391  0.90061113  0.58288734  1
  Te  Te116  1  0.41223352  0.90689869  0.90170468  1
  Te  Te117  1  0.75068487  0.28081376  0.24181627  1
  Te  Te118  1  0.74801205  0.25164671  0.59510470  1
  Te  Te119  1  0.78363151  0.21816136  0.95103321  1
  Te  Te120  1  0.73066930  0.60017211  0.26865563  1
  Te  Te121  1  0.75441972  0.57850517  0.59836511  1
  Te  Te122  1  0.72253575  0.56462703  0.89638823  1
  Te  Te123  1  0.74501045  0.92606582  0.25471664  1
  Te  Te124  1  0.74111786  0.89425960  0.58458473  1
  Te  Te125  1  0.77465630  0.94117817  0.89153825  1
  Te  Te126  1  0.25453326  0.23692239  0.07725131  1
  Te  Te127  1  0.25844912  0.23961489  0.42168690  1
  Te  Te128  1  0.24426052  0.27557895  0.73028096  1
  Te  Te129  1  0.26259865  0.56566194  0.08953036  1
  Te  Te130  1  0.28273790  0.54765870  0.46046876  1
  Te  Te131  1  0.26898542  0.58817287  0.73354244  1
  Te  Te132  1  0.25705507  0.90675523  0.07857594  1
  Te  Te133  1  0.25415473  0.91730024  0.41307627  1
  Te  Te134  1  0.23425446  0.89987041  0.73245572  1
  Te  Te135  1  0.59639032  0.29038038  0.07453520  1
  Te  Te136  1  0.58036612  0.26987872  0.41288658  1
  Te  Te137  1  0.58864191  0.24489500  0.79216129  1
  Te  Te138  1  0.57630135  0.58744871  0.07900620  1
  Te  Te139  1  0.58546772  0.60945605  0.42113148  1
  Te  Te140  1  0.59182398  0.56474864  0.73978172  1
  Te  Te141  1  0.62034079  0.93862500  0.06206398  1
  Te  Te142  1  0.58708381  0.89435211  0.45884886  1
  Te  Te143  1  0.57020178  0.90377703  0.74708003  1
  Te  Te144  1  0.88257912  0.25605554  0.06920001  1
  Te  Te145  1  0.91964540  0.24494010  0.42400321  1
  Te  Te146  1  0.89993479  0.25795853  0.76845898  1
  Te  Te147  1  0.91907613  0.57068202  0.08865697  1
  Te  Te148  1  0.91798955  0.57306007  0.42326209  1
  Te  Te149  1  0.92436068  0.56496250  0.75512538  1
  Te  Te150  1  0.92378449  0.91531257  0.08217866  1
  Te  Te151  1  0.92249334  0.90841691  0.43439846  1
  Te  Te152  1  0.89217079  0.93564653  0.76480892  1
  Te  Te153  1  0.23305711  0.09324205  0.27525323  1
  Te  Te154  1  0.26344261  0.08206624  0.58169619  1
  Te  Te155  1  0.24759812  0.08519493  0.91667326  1
  Te  Te156  1  0.25623324  0.42031129  0.24904571  1
  Te  Te157  1  0.27708431  0.41991960  0.57851633  1
  Te  Te158  1  0.24742554  0.39935220  0.90905461  1
  Te  Te159  1  0.25725628  0.70725673  0.28937260  1
  Te  Te160  1  0.25000162  0.74366340  0.60154676  1
  Te  Te161  1  0.24119556  0.72537433  0.88804635  1
  Te  Te162  1  0.58325465  0.09738589  0.25706830  1
  Te  Te163  1  0.57235700  0.09244909  0.59265716  1
  Te  Te164  1  0.60081973  0.07381209  0.92060770  1
  Te  Te165  1  0.58323464  0.41667850  0.26045800  1
  Te  Te166  1  0.57695954  0.40645900  0.57340802  1
  Te  Te167  1  0.60035934  0.37362808  0.86975762  1
  Te  Te168  1  0.58262375  0.78272778  0.24066684  1
  Te  Te169  1  0.56308759  0.78553058  0.57209271  1
  Te  Te170  1  0.58300977  0.74232071  0.90928345  1
  Te  Te171  1  0.92002104  0.08463863  0.24619508  1
  Te  Te172  1  0.92837467  0.09320196  0.57581315  1
  Te  Te173  1  0.90454337  0.14599683  0.89529809  1
  Te  Te174  1  0.90082554  0.40651940  0.22479007  1
  Te  Te175  1  0.92511150  0.42957214  0.58065166  1
  Te  Te176  1  0.91612378  0.42987179  0.89683982  1
  Te  Te177  1  0.91336540  0.75126344  0.25364973  1
  Te  Te178  1  0.90885247  0.76904829  0.59295784  1
  Te  Te179  1  0.90671034  0.73744205  0.92466758  1
