# generated using pymatgen
data_In2Te3
_symmetry_space_group_name_H-M   'P 1'
_cell_length_a   18.77480604
_cell_length_b   18.77272123
_cell_length_c   18.76773916
_cell_angle_alpha   90.03968196
_cell_angle_beta   89.92011913
_cell_angle_gamma   89.97041529
_symmetry_Int_Tables_number   1
_chemical_formula_structural   In2Te3
_chemical_formula_sum   'In72 Te108'
_cell_volume   6614.75958774
_cell_formula_units_Z   36
loop_
 _symmetry_equiv_pos_site_id
 _symmetry_equiv_pos_as_xyz
  1  'x, y, z'
loop_
 _atom_site_type_symbol
 _atom_site_label
 _atom_site_symmetry_multiplicity
 _atom_site_fract_x
 _atom_site_fract_y
 _atom_site_fract_z
 _atom_site_occupancy
  In  In0  1  0.34028228  0.69093753  0.00204206  1
  In  In1  1  0.32731109  0.33584203  0.01098084  1
  In  In2  1  0.34820086  0.17657003  0.50883583  1
  In  In3  1  0.50993690  0.67843925  0.84220780  1
  In  In4  1  0.67395573  0.51664831  0.83260350  1
  In  In5  1  0.02178120  0.13414520  0.16219632  1
  In  In6  1  0.50913455  0.15371871  0.35258634  1
  In  In7  1  0.51857523  0.51082376  0.33437565  1
  In  In8  1  0.65590121  0.53552252  0.15969056  1
  In  In9  1  0.49940435  0.82045022  -0.02053662  1
  In  In10  1  0.62143409  0.19410615  0.82816990  1
  In  In11  1  0.31189445  0.16867405  0.15854448  1
  In  In12  1  0.16829311  0.81522633  0.32957940  1
  In  In13  1  0.31595681  0.82718245  0.83379806  1
  In  In14  1  0.32705053  0.32373057  0.33468004  1
  In  In15  1  0.46343448  -0.01400631  0.17092809  1
  In  In16  1  0.49934823  -0.01236668  0.50306071  1
  In  In17  1  0.00119973  0.33142900  0.35494337  1
  In  In18  1  0.68180246  0.36006409  -0.00106332  1
  In  In19  1  0.16207634  0.50334868  -0.01354434  1
  In  In20  1  0.16020911  0.64146013  0.49118427  1
  In  In21  1  0.82259456  0.51223111  0.66343641  1
  In  In22  1  0.63158537  0.82229220  0.85180930  1
  In  In23  1  0.68021954  -0.00762496  0.00832596  1
  In  In24  1  0.66109021  0.82506005  0.48817107  1
  In  In25  1  0.85301599  0.01728029  0.83022031  1
  In  In26  1  0.16079217  0.82028692  0.00968858  1
  In  In27  1  0.83500281  0.83118125  0.02158133  1
  In  In28  1  0.84792051  0.16731340  -0.01468112  1
  In  In29  1  0.83550033  0.66768105  0.83795769  1
  In  In30  1  0.16099522  0.16938035  0.67365233  1
  In  In31  1  0.81785387  -0.00305221  0.48785214  1
  In  In32  1  -0.01285004  0.53646015  0.14540415  1
  In  In33  1  0.15870420  0.66718740  0.17459184  1
  In  In34  1  0.34872674  0.67486027  0.34280198  1
  In  In35  1  0.16377479  -0.01156113  0.51115101  1
  In  In36  1  0.33734881  0.49612074  0.19081392  1
  In  In37  1  0.85602232  0.78476435  0.63756291  1
  In  In38  1  0.82157841  0.50624249  0.32913414  1
  In  In39  1  0.66084765  0.15874079  0.50088633  1
  In  In40  1  0.33195533  0.65221482  0.67113236  1
  In  In41  1  0.01595991  -0.00229154  0.66904411  1
  In  In42  1  0.48940948  0.34106516  0.82107840  1
  In  In43  1  0.83717856  0.35590084  0.48401589  1
  In  In44  1  -0.01458530  0.65840286  0.32342154  1
  In  In45  1  0.67011119  0.18372122  0.19579499  1
  In  In46  1  0.30292227  0.48378303  0.52137314  1
  In  In47  1  0.83293760  0.18055656  0.67186159  1
  In  In48  1  0.00977079  0.34135151  -0.02106011  1
  In  In49  1  0.02401213  0.83808810  0.83402677  1
  In  In50  1  0.83470271  0.80927416  0.32578012  1
  In  In51  1  0.35421621  0.83580888  0.49243736  1
  In  In52  1  0.00482063  0.16754372  0.84568094  1
  In  In53  1  0.48531833  0.66550040  0.49105054  1
  In  In54  1  0.65056052  0.01042391  0.65383268  1
  In  In55  1  0.01410446  0.49149532  0.50586744  1
  In  In56  1  -0.00803203  -0.00763878  0.32822202  1
  In  In57  1  0.65647423  0.66571987  0.65873590  1
  In  In58  1  0.17674131  0.17021659  0.32824931  1
  In  In59  1  0.01876203  0.19220375  0.52344131  1
  In  In60  1  0.17034432  0.82953847  0.67705904  1
  In  In61  1  0.49442946  0.16121236  0.01471286  1
  In  In62  1  0.32757815  0.50171732  0.82003068  1
  In  In63  1  0.02451444  0.48934532  0.81610091  1
  In  In64  1  0.84216974  -0.02285395  0.17069154  1
  In  In65  1  0.82762541  0.32643578  0.17773216  1
  In  In66  1  0.49287257  0.35785838  0.17817489  1
  In  In67  1  0.65773161  0.79927970  0.17777950  1
  In  In68  1  0.46359967  0.01248756  0.81674717  1
  In  In69  1  0.50466655  0.34853365  0.52101834  1
  In  In70  1  0.85138475  0.35734094  0.82643863  1
  In  In71  1  0.17338277  -0.01405700  0.15374350  1
  Te  Te72  1  0.12376468  0.09395188  0.06246513  1
  Te  Te73  1  0.07823725  0.08231135  0.42088326  1
  Te  Te74  1  0.09813230  0.06776451  0.77357225  1
  Te  Te75  1  0.07845696  0.42514602  0.08806692  1
  Te  Te76  1  0.10517318  0.41414461  0.41797652  1
  Te  Te77  1  0.10878331  0.39483941  0.73881250  1
  Te  Te78  1  0.06222486  0.74129091  0.09100964  1
  Te  Te79  1  0.07082815  0.74476512  0.42143857  1
  Te  Te80  1  0.07410092  0.73703297  0.73832415  1
  Te  Te81  1  0.38525733  0.06856155  0.06711696  1
  Te  Te82  1  0.39897500  0.06984102  0.41130425  1
  Te  Te83  1  0.40105258  0.12418466  0.74027251  1
  Te  Te84  1  0.42448288  0.43785963  0.07139702  1
  Te  Te85  1  0.41482757  0.42375248  0.40954976  1
  Te  Te86  1  0.39625561  0.40799258  0.72436672  1
  Te  Te87  1  0.42801298  0.76232864  0.09651159  1
  Te  Te88  1  0.46255023  0.78389409  0.37960948  1
  Te  Te89  1  0.41825993  0.75431074  0.74563131  1
  Te  Te90  1  0.75555132  0.09805604  0.08817646  1
  Te  Te91  1  0.73349219  0.07800854  0.39838801  1
  Te  Te92  1  0.73924516  0.09205369  0.75745422  1
  Te  Te93  1  0.76615546  0.43880230  0.09576490  1
  Te  Te94  1  0.73056106  0.44111609  0.42771083  1
  Te  Te95  1  0.73601822  0.40812745  0.74084501  1
  Te  Te96  1  0.77245812  0.72325381  0.10925352  1
  Te  Te97  1  0.74128759  0.72896557  0.40913623  1
  Te  Te98  1  0.73903371  0.75460463  0.75359624  1
  Te  Te99  1  0.07773119  0.24946951  0.24631700  1
  Te  Te100  1  0.10146109  0.29037086  0.60178315  1
  Te  Te101  1  0.10637375  0.24967488  0.91503341  1
  Te  Te102  1  0.08799552  0.56388882  0.26110649  1
  Te  Te103  1  0.08896754  0.57700859  0.60344436  1
  Te  Te104  1  0.06465477  0.58951148  0.91767071  1
  Te  Te105  1  0.07822843  0.90213327  0.24100793  1
  Te  Te106  1  0.06768354  0.88999980  0.57430828  1
  Te  Te107  1  0.11751637  0.92262802  0.90981047  1
  Te  Te108  1  0.42689278  0.23532829  0.24220442  1
  Te  Te109  1  0.38710131  0.29173525  0.59651008  1
  Te  Te110  1  0.41095917  0.24508708  0.91810159  1
  Te  Te111  1  0.44106865  0.60052620  0.23781900  1
  Te  Te112  1  0.41952462  0.56248575  0.58299473  1
  Te  Te113  1  0.41322515  0.58631863  0.91698645  1
  Te  Te114  1  0.41960473  0.88449240  0.26555725  1
  Te  Te115  1  0.40918641  0.92070541  0.59943253  1
  Te  Te116  1  0.39986731  0.92111544  0.92139528  1
  Te  Te117  1  0.75293979  0.26254999  0.28784124  1
  Te  Te118  1  0.75041740  0.25846810  0.57394306  1
  Te  Te119  1  0.75197100  0.25444479  0.90458347  1
  Te  Te120  1  0.74587087  0.61006181  0.25376679  1
  Te  Te121  1  0.73553145  0.58196358  0.56515742  1
  Te  Te122  1  0.76775327  0.57531616  0.93363873  1
  Te  Te123  1  0.73809789  0.90799459  0.25461109  1
  Te  Te124  1  0.75013192  0.90938596  0.59443431  1
  Te  Te125  1  0.75674508  0.91084316  0.90526540  1
  Te  Te126  1  0.22184925  0.24998040  0.07380896  1
  Te  Te127  1  0.23633849  0.25738086  0.43801333  1
  Te  Te128  1  0.26655565  0.22767761  0.76243953  1
  Te  Te129  1  0.25567570  0.58181010  0.08501047  1
  Te  Te130  1  0.25640764  0.56571378  0.39931139  1
  Te  Te131  1  0.22703270  0.58944329  0.75337676  1
  Te  Te132  1  0.26647552  0.89637554  0.08119627  1
  Te  Te133  1  0.25208964  0.91443303  0.40993183  1
  Te  Te134  1  0.25630335  0.92890131  0.74281401  1
  Te  Te135  1  0.59250970  0.26090461  0.07998436  1
  Te  Te136  1  0.58539655  0.26662968  0.41817869  1
  Te  Te137  1  0.57534418  0.27598780  0.70997860  1
  Te  Te138  1  0.56946131  0.59388680  0.05700536  1
  Te  Te139  1  0.59819989  0.58617017  0.43523815  1
  Te  Te140  1  0.56503099  0.57564182  0.74182595  1
  Te  Te141  1  0.58154635  0.90845525  0.08584216  1
  Te  Te142  1  0.60833268  0.94228495  0.41254246  1
  Te  Te143  1  0.56952704  0.92200501  0.74963834  1
  Te  Te144  1  0.92699123  0.25287652  0.08411111  1
  Te  Te145  1  0.90989908  0.23152701  0.42509347  1
  Te  Te146  1  0.93878642  0.26189876  0.74529030  1
  Te  Te147  1  0.87906019  0.61044485  0.07887576  1
  Te  Te148  1  0.90775860  0.58901213  0.43822859  1
  Te  Te149  1  0.92589650  0.58843053  0.74402699  1
  Te  Te150  1  0.93875620  0.92576946  0.07264714  1
  Te  Te151  1  0.91566885  0.89998480  0.42280909  1
  Te  Te152  1  0.91082054  0.90931842  0.73933756  1
  Te  Te153  1  0.25844771  0.06491532  0.25717818  1
  Te  Te154  1  0.25492820  0.08081406  0.58884248  1
  Te  Te155  1  0.30009593  0.10977970  0.85181983  1
  Te  Te156  1  0.24308668  0.39231472  0.23478820  1
  Te  Te157  1  0.21420619  0.42552909  0.62639456  1
  Te  Te158  1  0.24222271  0.40393665  0.90289577  1
  Te  Te159  1  0.27011868  0.75316327  0.23489009  1
  Te  Te160  1  0.25746921  0.74237196  0.56448142  1
  Te  Te161  1  0.22975271  0.72427029  0.90353070  1
  Te  Te162  1  0.57367723  0.07415996  0.23795682  1
  Te  Te163  1  0.54986585  0.10574768  0.59134018  1
  Te  Te164  1  0.58161596  0.07001136  0.91959812  1
  Te  Te165  1  0.60850568  0.41683984  0.25279061  1
  Te  Te166  1  0.59704717  0.40410789  0.62093847  1
  Te  Te167  1  0.57584716  0.42879717  0.91524709  1
  Te  Te168  1  0.55612137  0.73298793  0.26247967  1
  Te  Te169  1  0.56134941  0.76084297  0.58553196  1
  Te  Te170  1  0.61357626  0.70883171  0.96074487  1
  Te  Te171  1  0.90451523  0.09180829  0.25194026  1
  Te  Te172  1  0.91532520  0.08127554  0.58557101  1
  Te  Te173  1  0.94545976  0.05791349  0.94367727  1
  Te  Te174  1  0.92767097  0.42458664  0.25390653  1
  Te  Te175  1  0.91992903  0.41191124  0.59798135  1
  Te  Te176  1  0.91501190  0.44809236  0.92691273  1
  Te  Te177  1  0.93493420  0.75902130  0.22639399  1
  Te  Te178  1  0.93274522  0.69864334  0.54990923  1
  Te  Te179  1  0.92586796  0.75694422  0.92250461  1
