# generated using pymatgen
data_In2Te3
_symmetry_space_group_name_H-M   'P 1'
_cell_length_a   19.05169070
_cell_length_b   19.06790762
_cell_length_c   19.04492568
_cell_angle_alpha   89.92404550
_cell_angle_beta   90.20157913
_cell_angle_gamma   90.08386819
_symmetry_Int_Tables_number   1
_chemical_formula_structural   In2Te3
_chemical_formula_sum   'In72 Te108'
_cell_volume   6918.50584137
_cell_formula_units_Z   36
loop_
 _symmetry_equiv_pos_site_id
 _symmetry_equiv_pos_as_xyz
  1  'x, y, z'
loop_
 _atom_site_type_symbol
 _atom_site_label
 _atom_site_symmetry_multiplicity
 _atom_site_fract_x
 _atom_site_fract_y
 _atom_site_fract_z
 _atom_site_occupancy
  In  In0  1  0.87590928  0.47774976  0.01805014  1
  In  In1  1  0.81775233  0.00991910  0.16194318  1
  In  In2  1  -0.00085118  0.82723160  0.53542570  1
  In  In3  1  0.82619321  0.33107079  0.85352207  1
  In  In4  1  0.50067801  0.48932587  0.33756445  1
  In  In5  1  0.67894146  0.66001156  0.34631021  1
  In  In6  1  0.31798878  0.80765534  0.15418272  1
  In  In7  1  -0.00291407  0.17829364  0.49155361  1
  In  In8  1  0.84044552  0.64442590  0.82677805  1
  In  In9  1  0.50976558  0.30382553  0.81788269  1
  In  In10  1  0.47539258  0.87057196  0.00552000  1
  In  In11  1  0.46905310  0.67726110  0.50500801  1
  In  In12  1  0.01809641  0.65944392  0.70112412  1
  In  In13  1  0.16162890  0.82266854  0.67666151  1
  In  In14  1  0.67871870  0.82827605  0.17137192  1
  In  In15  1  0.32801402  0.00382146  0.00188524  1
  In  In16  1  -0.02127856  0.18702748  0.16900664  1
  In  In17  1  0.01594073  0.66431745  -0.00549672  1
  In  In18  1  0.32166536  0.82834894  0.86622214  1
  In  In19  1  0.00602510  0.32432304  0.67856222  1
  In  In20  1  0.65087195  -0.00602676  0.31529547  1
  In  In21  1  0.67584709  0.30616927  0.66429287  1
  In  In22  1  0.84408999  0.82697910  0.70373092  1
  In  In23  1  0.00383175  -0.00655092  0.67253866  1
  In  In24  1  0.15783168  0.64939245  0.15195274  1
  In  In25  1  0.16279845  0.31108794  0.87459392  1
  In  In26  1  0.15226040  0.19165943  0.31355680  1
  In  In27  1  0.64217395  0.86894652  0.79764300  1
  In  In28  1  0.52534202  -0.00584484  0.52363134  1
  In  In29  1  0.85019608  0.50404015  0.31755881  1
  In  In30  1  0.65225211  0.48407478  0.81822983  1
  In  In31  1  0.64925514  0.82815071  0.48502986  1
  In  In32  1  0.84860998  0.34008424  0.50579689  1
  In  In33  1  0.33931853  0.34431570  0.31172163  1
  In  In34  1  0.84053662  0.67025169  0.18981182  1
  In  In35  1  0.02080842  0.48613039  0.46820080  1
  In  In36  1  0.66146753  0.31841658  0.33291159  1
  In  In37  1  0.67086919  0.48610016  0.51932655  1
  In  In38  1  0.33938418  0.67409713  0.67770616  1
  In  In39  1  0.80400042  0.84114378  -0.02319275  1
  In  In40  1  0.32794650  0.15729774  0.84419443  1
  In  In41  1  0.51348457  0.67957597  0.83053928  1
  In  In42  1  0.48727664  0.47382063  -0.01284494  1
  In  In43  1  0.13908642  0.47505857  0.02455643  1
  In  In44  1  0.34011123  0.18101410  0.47923967  1
  In  In45  1  0.17583036  0.50350712  0.67496049  1
  In  In46  1  -0.01280778  0.00483995  -0.01028228  1
  In  In47  1  0.32680672  0.50250485  0.83152570  1
  In  In48  1  0.50342904  0.31472728  0.16582460  1
  In  In49  1  0.31895003  0.51231036  0.14252266  1
  In  In50  1  0.16292232  0.01506965  0.18100749  1
  In  In51  1  0.50717006  0.16858008  -0.01150641  1
  In  In52  1  -0.00938504  0.18790695  0.84877424  1
  In  In53  1  0.81715443  0.00345360  0.54154365  1
  In  In54  1  0.33856214  0.34995866  0.65290402  1
  In  In55  1  0.17005710  0.17764645  0.65355308  1
  In  In56  1  0.00570410  0.66311230  0.32906053  1
  In  In57  1  0.51337825  0.32263475  0.49098729  1
  In  In58  1  0.35123315  0.01933658  0.65926234  1
  In  In59  1  0.66920416  0.66455828  0.64779670  1
  In  In60  1  0.83109419  0.34214825  0.17095172  1
  In  In61  1  0.48403292  0.02666468  0.16321419  1
  In  In62  1  0.34015718  0.01260725  0.32559429  1
  In  In63  1  0.18087606  0.63340755  0.46691717  1
  In  In64  1  0.65896009  0.01334827  -0.01641354  1
  In  In65  1  0.00973221  -0.01128789  0.35157148  1
  In  In66  1  0.16949210  0.81896561  0.31318912  1
  In  In67  1  0.83136518  0.16490656  0.36518132  1
  In  In68  1  0.32079738  0.82879236  0.47637077  1
  In  In69  1  0.51932721  0.65488159  0.16981900  1
  In  In70  1  0.16108775  -0.00926616  0.83894231  1
  In  In71  1  0.64075382  0.66035164  -0.02270072  1
  Te  Te72  1  0.06419754  0.08721120  0.09262003  1
  Te  Te73  1  0.09629660  0.09405146  0.41578597  1
  Te  Te74  1  0.08692211  0.10456018  0.75669181  1
  Te  Te75  1  0.04194239  0.40980693  0.11259476  1
  Te  Te76  1  0.12396897  0.45784950  0.37018913  1
  Te  Te77  1  0.10401760  0.40195358  0.76127726  1
  Te  Te78  1  0.07195773  0.75249210  0.09697752  1
  Te  Te79  1  0.08672849  0.75824870  0.42728347  1
  Te  Te80  1  0.08529543  0.75981655  0.78248382  1
  Te  Te81  1  0.39519351  0.11409628  0.07928419  1
  Te  Te82  1  0.43288917  0.07524893  0.42687363  1
  Te  Te83  1  0.42409551  0.11051429  0.74535844  1
  Te  Te84  1  0.40327441  0.39928679  0.08716776  1
  Te  Te85  1  0.41041970  0.41562008  0.43231051  1
  Te  Te86  1  0.42514814  0.41783762  0.75646462  1
  Te  Te87  1  0.43467376  0.74589886  0.08011089  1
  Te  Te88  1  0.40564344  0.74550800  0.39370565  1
  Te  Te89  1  0.41863294  0.77274584  0.76002505  1
  Te  Te90  1  0.73729055  0.09656458  0.07697889  1
  Te  Te91  1  0.74152358  0.05870914  0.42188225  1
  Te  Te92  1  0.72443136  0.02833490  0.66255705  1
  Te  Te93  1  0.75487078  0.42049784  0.07377797  1
  Te  Te94  1  0.75303288  0.42189153  0.40725359  1
  Te  Te95  1  0.75616543  0.41065458  0.73963395  1
  Te  Te96  1  0.74131868  0.73097476  0.07461330  1
  Te  Te97  1  0.75773382  0.74382198  0.43431090  1
  Te  Te98  1  0.73027889  0.74095132  0.77058984  1
  Te  Te99  1  0.08676246  0.27911674  0.21312890  1
  Te  Te100  1  0.09167409  0.27099896  0.56452977  1
  Te  Te101  1  0.04831524  0.26533843  0.96772543  1
  Te  Te102  1  0.09863215  0.56707940  0.26421635  1
  Te  Te103  1  0.08668112  0.58694374  0.57543927  1
  Te  Te104  1  0.08303162  0.55914119  0.91990671  1
  Te  Te105  1  0.07207652  0.90924657  0.23999711  1
  Te  Te106  1  0.10330435  0.92706887  0.58211957  1
  Te  Te107  1  0.08105589  0.91038298  0.92902216  1
  Te  Te108  1  0.44170888  0.24649734  0.27928111  1
  Te  Te109  1  0.42489818  0.24477420  0.58733033  1
  Te  Te110  1  0.40696858  0.26098525  0.91949498  1
  Te  Te111  1  0.41732717  0.57380853  0.24473492  1
  Te  Te112  1  0.39947238  0.57335903  0.58689866  1
  Te  Te113  1  0.42411295  0.58937703  0.91155629  1
  Te  Te114  1  0.40145537  0.91722947  0.22630066  1
  Te  Te115  1  0.40739637  0.91014449  0.57230984  1
  Te  Te116  1  0.41682691  0.94987868  0.89382326  1
  Te  Te117  1  0.75783258  0.23486869  0.25347735  1
  Te  Te118  1  0.75084800  0.24128765  0.55379066  1
  Te  Te119  1  0.79409133  0.22204140  0.94833125  1
  Te  Te120  1  0.73858261  0.57144994  0.24021257  1
  Te  Te121  1  0.76365990  0.56771332  0.59583905  1
  Te  Te122  1  0.73958371  0.56739668  0.91135684  1
  Te  Te123  1  0.76596448  0.90880806  0.26329889  1
  Te  Te124  1  0.75487769  0.87218063  0.58989158  1
  Te  Te125  1  0.74580716  0.94200719  0.88084218  1
  Te  Te126  1  0.18994594  0.26977685  0.01505092  1
  Te  Te127  1  0.24306651  0.26985189  0.40638840  1
  Te  Te128  1  0.25682629  0.25869197  0.74769749  1
  Te  Te129  1  0.25856554  0.61273304  0.04443094  1
  Te  Te130  1  0.30339657  0.55673925  0.46089716  1
  Te  Te131  1  0.23894074  0.60748214  0.76844104  1
  Te  Te132  1  0.23935471  0.92003526  0.08992645  1
  Te  Te133  1  0.23793936  0.92699470  0.39635590  1
  Te  Te134  1  0.25667721  0.92221430  0.74458246  1
  Te  Te135  1  0.59476258  0.24148101  0.07956555  1
  Te  Te136  1  0.61934114  0.23185513  0.44458723  1
  Te  Te137  1  0.62834256  0.22425995  0.77815038  1
  Te  Te138  1  0.58184453  0.55896105  0.07251810  1
  Te  Te139  1  0.57664153  0.58070918  0.43456229  1
  Te  Te140  1  0.57343374  0.58217262  0.73373893  1
  Te  Te141  1  0.59049844  0.92541175  0.09653547  1
  Te  Te142  1  0.55706534  0.91070918  0.39920711  1
  Te  Te143  1  0.57937643  0.95686487  0.69667564  1
  Te  Te144  1  0.89212889  0.25273689  0.06202914  1
  Te  Te145  1  0.93157914  0.27602386  0.39673946  1
  Te  Te146  1  0.89617477  0.24551802  0.74435196  1
  Te  Te147  1  0.93095476  0.59132191  0.09948149  1
  Te  Te148  1  0.91575697  0.58633728  0.42465608  1
  Te  Te149  1  0.93854240  0.55424371  0.76659505  1
  Te  Te150  1  0.89303976  0.91271267  0.07538755  1
  Te  Te151  1  0.91946684  0.92221608  0.45002394  1
  Te  Te152  1  0.93097831  0.92017936  0.77383650  1
  Te  Te153  1  0.26045992  0.11213478  0.24239825  1
  Te  Te154  1  0.25430669  0.08977041  0.56609270  1
  Te  Te155  1  0.22451682  0.09072272  0.93277532  1
  Te  Te156  1  0.24266671  0.43152328  0.24053640  1
  Te  Te157  1  0.24044416  0.42279055  0.57138802  1
  Te  Te158  1  0.25302534  0.42135551  0.93386174  1
  Te  Te159  1  0.25738104  0.71380686  0.25531138  1
  Te  Te160  1  0.24423486  0.74123815  0.57783501  1
  Te  Te161  1  0.25431416  0.74046790  0.95589220  1
  Te  Te162  1  0.57696245  0.09962918  0.24775807  1
  Te  Te163  1  0.59839220  0.09200004  0.61019159  1
  Te  Te164  1  0.58735420  0.09781924  0.88574525  1
  Te  Te165  1  0.59092853  0.41694088  0.24370586  1
  Te  Te166  1  0.57683164  0.40412890  0.60202222  1
  Te  Te167  1  0.59016415  0.38891962  0.91723517  1
  Te  Te168  1  0.58833854  0.75070532  0.26361225  1
  Te  Te169  1  0.56480062  0.75752346  0.58975308  1
  Te  Te170  1  0.58054109  0.79060489  0.92105663  1
  Te  Te171  1  0.92015627  0.08047963  0.26784306  1
  Te  Te172  1  0.92579102  0.09780806  0.59608184  1
  Te  Te173  1  0.89632175  0.09202284  0.91119847  1
  Te  Te174  1  0.94152929  0.42690235  0.23077854  1
  Te  Te175  1  0.94064777  0.42611036  0.58620216  1
  Te  Te176  1  0.93081792  0.42815152  0.89262571  1
  Te  Te177  1  0.91791349  0.76315037  0.26904315  1
  Te  Te178  1  0.91577763  0.72923041  0.61295556  1
  Te  Te179  1  0.90381513  0.74427009  0.92035895  1
