# generated using pymatgen
data_In2Te3
_symmetry_space_group_name_H-M   'P 1'
_cell_length_a   19.00929220
_cell_length_b   18.99420976
_cell_length_c   18.95631759
_cell_angle_alpha   90.15161832
_cell_angle_beta   89.84155694
_cell_angle_gamma   90.04596397
_symmetry_Int_Tables_number   1
_chemical_formula_structural   In2Te3
_chemical_formula_sum   'In72 Te108'
_cell_volume   6844.43863495
_cell_formula_units_Z   36
loop_
 _symmetry_equiv_pos_site_id
 _symmetry_equiv_pos_as_xyz
  1  'x, y, z'
loop_
 _atom_site_type_symbol
 _atom_site_label
 _atom_site_symmetry_multiplicity
 _atom_site_fract_x
 _atom_site_fract_y
 _atom_site_fract_z
 _atom_site_occupancy
  In  In0  1  0.34849075  0.35350979  -0.02007999  1
  In  In1  1  0.65362525  0.32676173  0.66564955  1
  In  In2  1  0.44393106  0.30186955  0.77928084  1
  In  In3  1  0.01213044  0.51989842  0.11986026  1
  In  In4  1  0.18942083  0.01796236  0.81460986  1
  In  In5  1  0.33409969  0.16739239  0.52511141  1
  In  In6  1  -0.00382819  0.34126862  0.35163362  1
  In  In7  1  0.52267827  0.50633292  -0.00886496  1
  In  In8  1  0.66559580  0.52215830  0.16708643  1
  In  In9  1  0.46528499  0.33480198  0.54770617  1
  In  In10  1  0.84935924  0.83549223  0.62955541  1
  In  In11  1  0.65865113  0.84460890  0.51428088  1
  In  In12  1  0.03197482  0.01345856  -0.01188168  1
  In  In13  1  0.32791666  0.50367002  0.19170795  1
  In  In14  1  0.34375833  0.83139584  0.83649312  1
  In  In15  1  0.66426130  0.83275365  0.17431411  1
  In  In16  1  0.64960271  0.66856302  0.32481604  1
  In  In17  1  0.81539397  0.66118681  0.49821125  1
  In  In18  1  0.31338688  0.67639319  0.34279561  1
  In  In19  1  0.01610087  0.68158772  0.70148111  1
  In  In20  1  -0.02388520  0.71393599  0.36450468  1
  In  In21  1  0.82139577  0.31770209  0.51693844  1
  In  In22  1  0.66086001  0.01913544  -0.04632237  1
  In  In23  1  0.03691042  0.16075875  0.81197726  1
  In  In24  1  0.49014766  -0.01181818  0.52614400  1
  In  In25  1  0.32520615  0.85042364  0.13687808  1
  In  In26  1  0.31504192  -0.01464422  0.34373181  1
  In  In27  1  -0.03263478  0.16183420  0.19102245  1
  In  In28  1  0.00694369  0.13766797  0.60079811  1
  In  In29  1  0.86038851  0.16720298  -0.01239192  1
  In  In30  1  0.18371734  0.62922084  0.53208785  1
  In  In31  1  0.16689400  -0.00653336  0.17563932  1
  In  In32  1  0.35877052  0.01107509  0.68287282  1
  In  In33  1  0.17828546  0.18094593  -0.00644760  1
  In  In34  1  0.00712898  0.50929591  0.51596167  1
  In  In35  1  0.84426028  0.85907125  0.00266407  1
  In  In36  1  0.35156467  0.66777279  -0.01628925  1
  In  In37  1  0.49079919  -0.00266394  0.15036051  1
  In  In38  1  0.69512165  0.32152868  -0.02506427  1
  In  In39  1  0.17856421  0.67983521  0.12647642  1
  In  In40  1  0.82180985  0.00357748  0.16818466  1
  In  In41  1  0.33002661  0.30628748  0.32189882  1
  In  In42  1  0.79633252  0.15074336  0.32859653  1
  In  In43  1  0.82989320  -0.01679617  0.79145667  1
  In  In44  1  0.81250433  0.48626710  0.32836335  1
  In  In45  1  0.66939161  0.64801361  0.67881192  1
  In  In46  1  0.82397853  0.34609198  0.17591177  1
  In  In47  1  0.66220509  0.49359253  0.82401713  1
  In  In48  1  0.15589312  0.84797468  0.36146220  1
  In  In49  1  0.66524126  0.69570803  -0.00137126  1
  In  In50  1  0.54028511  0.33269057  0.13585762  1
  In  In51  1  0.64876765  -0.00513981  0.34326992  1
  In  In52  1  0.18563861  0.84109773  -0.01472440  1
  In  In53  1  0.87940107  0.31610496  0.82141255  1
  In  In54  1  0.51770729  0.84783822  -0.04594704  1
  In  In55  1  0.48046469  0.50192625  0.34651669  1
  In  In56  1  -0.00739297  0.95100635  0.49951361  1
  In  In57  1  0.31831137  0.47016229  0.63429456  1
  In  In58  1  0.52279020  0.15925801  0.34274097  1
  In  In59  1  0.12770051  0.33665995  0.16134671  1
  In  In60  1  0.35524919  0.16931942  0.13661243  1
  In  In61  1  0.48594245  0.68040398  0.48919169  1
  In  In62  1  0.34321977  0.67421752  0.66459285  1
  In  In63  1  0.85635404  0.49114014  0.66249864  1
  In  In64  1  0.13517750  0.51830004  0.33824868  1
  In  In65  1  0.00508877  0.67937796  -0.01357603  1
  In  In66  1  0.17337429  0.33000457  0.81500135  1
  In  In67  1  0.16319989  0.12777815  0.36132724  1
  In  In68  1  0.00898717  0.48984428  0.85545162  1
  In  In69  1  0.60274989  0.00559482  0.72980814  1
  In  In70  1  0.65588746  0.31390197  0.34549072  1
  In  In71  1  0.82007136  0.69013529  0.84882545  1
  Te  Te72  1  0.08325212  0.10858619  0.09743941  1
  Te  Te73  1  0.06307549  0.08560852  0.46096883  1
  Te  Te74  1  0.08796318  0.06065200  0.71107780  1
  Te  Te75  1  0.10346349  0.42934680  0.05276229  1
  Te  Te76  1  0.09684424  0.41076422  0.43971797  1
  Te  Te77  1  0.06788513  0.40820566  0.74813959  1
  Te  Te78  1  0.08182977  0.78308127  0.07815416  1
  Te  Te79  1  0.10802849  0.72444474  0.43403394  1
  Te  Te80  1  0.13362194  0.77110767  0.69046115  1
  Te  Te81  1  0.44020785  0.09016225  0.04913651  1
  Te  Te82  1  0.41202233  0.08494686  0.41311668  1
  Te  Te83  1  0.44376251  0.04220945  0.80246629  1
  Te  Te84  1  0.42844235  0.42704316  0.09902534  1
  Te  Te85  1  0.40128300  0.39649384  0.42081604  1
  Te  Te86  1  0.37739858  0.43549085  0.76906094  1
  Te  Te87  1  0.42758712  0.77207167  0.06102842  1
  Te  Te88  1  0.38497235  0.76924723  0.42978401  1
  Te  Te89  1  0.43458361  0.76751982  0.73719954  1
  Te  Te90  1  0.75557820  0.08367753  0.05851762  1
  Te  Te91  1  0.70902659  0.09521424  0.43132874  1
  Te  Te92  1  0.73662982  0.07082685  0.72200836  1
  Te  Te93  1  0.74371465  0.42804339  0.07840363  1
  Te  Te94  1  0.73434621  0.41051548  0.43200620  1
  Te  Te95  1  0.76770126  0.40685262  0.75291655  1
  Te  Te96  1  0.76858457  0.76056486  0.08888793  1
  Te  Te97  1  0.73577849  0.75596060  0.41558440  1
  Te  Te98  1  0.75883387  0.75885077  0.72927468  1
  Te  Te99  1  0.08059432  0.23549376  0.27307771  1
  Te  Te100  1  0.12932484  0.23063008  0.61341502  1
  Te  Te101  1  0.07550308  0.25932415  0.91896022  1
  Te  Te102  1  0.08692810  0.60338160  0.22527204  1
  Te  Te103  1  0.08905416  0.56359269  0.62978282  1
  Te  Te104  1  0.09238683  0.60253642  0.89798874  1
  Te  Te105  1  0.07688404  0.93393599  0.27303228  1
  Te  Te106  1  0.06068536  0.88262827  0.61335012  1
  Te  Te107  1  0.09777744  0.91933263  0.89036155  1
  Te  Te108  1  0.44691149  0.25188388  0.24013080  1
  Te  Te109  1  0.40347491  0.23483990  0.64248974  1
  Te  Te110  1  0.39018749  0.23606717  0.90287894  1
  Te  Te111  1  0.41915543  0.60589794  0.25475355  1
  Te  Te112  1  0.41360004  0.57599667  0.57011534  1
  Te  Te113  1  0.43981110  0.58517153  0.90131092  1
  Te  Te114  1  0.40907183  0.91413542  0.24708982  1
  Te  Te115  1  0.43577295  0.89469108  0.62735533  1
  Te  Te116  1  0.40504116  0.94151980  0.91764230  1
  Te  Te117  1  0.72713758  0.24423355  0.23044097  1
  Te  Te118  1  0.74754956  0.23029423  0.60667820  1
  Te  Te119  1  0.77052617  0.22749622  0.88245244  1
  Te  Te120  1  0.76574169  0.60345923  0.24606405  1
  Te  Te121  1  0.74625689  0.55706253  0.58253102  1
  Te  Te122  1  0.73743649  0.58508402  0.92041722  1
  Te  Te123  1  0.75205604  0.91332971  0.26795063  1
  Te  Te124  1  0.76695756  0.93585538  0.55655521  1
  Te  Te125  1  0.74876975  0.90841747  0.89698550  1
  Te  Te126  1  0.25683720  0.27627646  0.09197856  1
  Te  Te127  1  0.24258659  0.23945842  0.42653502  1
  Te  Te128  1  0.23800547  0.23422419  0.71921910  1
  Te  Te129  1  0.26674055  0.57145390  0.07132042  1
  Te  Te130  1  0.25695562  0.55847871  0.41875807  1
  Te  Te131  1  0.26782551  0.56839654  0.73533553  1
  Te  Te132  1  0.25364281  0.95746393  0.05748998  1
  Te  Te133  1  0.23201482  0.93451468  0.45537641  1
  Te  Te134  1  0.25685009  0.90662258  0.73799699  1
  Te  Te135  1  0.59456097  0.23642661  0.04226750  1
  Te  Te136  1  0.56235963  0.25817690  0.45005197  1
  Te  Te137  1  0.58028475  0.24305025  0.76399730  1
  Te  Te138  1  0.57460993  0.61181191  0.08804360  1
  Te  Te139  1  0.58459051  0.57674739  0.42544167  1
  Te  Te140  1  0.56567109  0.56086167  0.73672881  1
  Te  Te141  1  0.60362638  0.92282273  0.06622273  1
  Te  Te142  1  0.55614696  0.90309960  0.41936631  1
  Te  Te143  1  0.58018539  0.88171236  0.81412844  1
  Te  Te144  1  0.92019270  0.26399441  0.08992249  1
  Te  Te145  1  0.89339399  0.24574408  0.40386574  1
  Te  Te146  1  0.93406272  0.21843012  0.71949825  1
  Te  Te147  1  0.90860585  0.60607396  0.06951654  1
  Te  Te148  1  0.91373569  0.56814844  0.41233462  1
  Te  Te149  1  0.90520534  0.59239653  0.76438434  1
  Te  Te150  1  0.93638376  0.94411128  0.08649505  1
  Te  Te151  1  0.92109893  0.85336963  0.40536131  1
  Te  Te152  1  0.93925815  0.90629529  0.72556454  1
  Te  Te153  1  0.26522968  0.09741625  0.24360358  1
  Te  Te154  1  0.26099758  0.04945740  0.57615500  1
  Te  Te155  1  0.26628378  0.11838099  0.89328692  1
  Te  Te156  1  0.22747155  0.41137054  0.25914235  1
  Te  Te157  1  0.21947703  0.35856984  0.62137403  1
  Te  Te158  1  0.25421305  0.42667890  0.89529850  1
  Te  Te159  1  0.24306776  0.76728535  0.23568010  1
  Te  Te160  1  0.25535975  0.75307665  0.57319606  1
  Te  Te161  1  0.24456995  0.73259342  0.89784778  1
  Te  Te162  1  0.58940253  0.07964392  0.23170824  1
  Te  Te163  1  0.56457578  0.08117804  0.60840820  1
  Te  Te164  1  0.57859111  0.10015696  0.85892193  1
  Te  Te165  1  0.58795429  0.42693654  0.25836303  1
  Te  Te166  1  0.56130512  0.42681039  0.60981041  1
  Te  Te167  1  0.57945038  0.39514246  0.90579576  1
  Te  Te168  1  0.56416564  0.76108804  0.25221032  1
  Te  Te169  1  0.58310195  0.74006719  0.59059262  1
  Te  Te170  1  0.58887391  0.73640110  0.87809342  1
  Te  Te171  1  0.90976762  0.05936305  0.28360131  1
  Te  Te172  1  0.89459797  0.04763615  0.55770856  1
  Te  Te173  1  0.92803104  0.06867093  0.89176930  1
  Te  Te174  1  0.93337242  0.42853900  0.24477939  1
  Te  Te175  1  0.93713066  0.39092572  0.58246705  1
  Te  Te176  1  0.90280939  0.41674394  0.92434978  1
  Te  Te177  1  0.91937141  0.79822499  0.26305106  1
  Te  Te178  1  0.92911330  0.71694644  0.57959526  1
  Te  Te179  1  0.92837036  0.78085763  0.90319444  1
