# generated using pymatgen
data_In2Te3
_symmetry_space_group_name_H-M   'P 1'
_cell_length_a   18.77240274
_cell_length_b   18.76692696
_cell_length_c   18.76034880
_cell_angle_alpha   89.94321333
_cell_angle_beta   90.01610175
_cell_angle_gamma   89.94922307
_symmetry_Int_Tables_number   1
_chemical_formula_structural   In2Te3
_chemical_formula_sum   'In72 Te108'
_cell_volume   6609.27061532
_cell_formula_units_Z   36
loop_
 _symmetry_equiv_pos_site_id
 _symmetry_equiv_pos_as_xyz
  1  'x, y, z'
loop_
 _atom_site_type_symbol
 _atom_site_label
 _atom_site_symmetry_multiplicity
 _atom_site_fract_x
 _atom_site_fract_y
 _atom_site_fract_z
 _atom_site_occupancy
  In  In0  1  0.48386878  0.51022498  0.67604900  1
  In  In1  1  0.32758309  0.18275931  0.82747787  1
  In  In2  1  0.15811672  -0.00619744  0.18337819  1
  In  In3  1  0.01359216  0.82219746  0.81836779  1
  In  In4  1  0.68432692  0.54807721  0.19214956  1
  In  In5  1  0.48433523  0.31699958  0.17281628  1
  In  In6  1  0.02440879  0.47412988  0.47177525  1
  In  In7  1  0.66864894  0.34741836  0.00377243  1
  In  In8  1  0.15870768  0.34051480  0.19864227  1
  In  In9  1  0.16954348  0.85610644  0.34258450  1
  In  In10  1  -0.00426761  0.82193068  0.49901636  1
  In  In11  1  0.79741352  -0.03409017  0.84867022  1
  In  In12  1  0.84099645  0.34400659  0.17145786  1
  In  In13  1  0.48991866  0.18295705  0.34131167  1
  In  In14  1  0.82720537  0.16659242  0.65387573  1
  In  In15  1  0.02299370  0.00947353  0.32991054  1
  In  In16  1  0.50731315  0.15482570  0.66241577  1
  In  In17  1  0.16663672  -0.00042383  0.49122426  1
  In  In18  1  -0.00238610  0.15695241  0.83089072  1
  In  In19  1  0.18516987  0.35532258  0.81949328  1
  In  In20  1  0.00770230  0.49489797  0.17622299  1
  In  In21  1  0.00240909  0.68381125  0.31590716  1
  In  In22  1  0.19297192  0.51794911  0.66973541  1
  In  In23  1  0.02830792  0.31868949  0.61345365  1
  In  In24  1  0.32473155  0.65049864  0.35772255  1
  In  In25  1  0.84395266  0.81315325  0.32306684  1
  In  In26  1  0.83106873  0.32477605  0.49669987  1
  In  In27  1  0.85488383  0.16639450  0.34905620  1
  In  In28  1  0.65303992  0.17537244  0.82374563  1
  In  In29  1  0.17044537  0.02274369  0.82703115  1
  In  In30  1  0.30586090  0.17934741  0.46986497  1
  In  In31  1  0.66148674  0.81230193  0.15413352  1
  In  In32  1  0.34639281  -0.00912358  0.66560838  1
  In  In33  1  0.52013277  0.70338491  0.83053300  1
  In  In34  1  0.49383768  0.50074802  0.00219937  1
  In  In35  1  0.84625464  0.65923327  0.50056681  1
  In  In36  1  0.84900005  0.35855951  0.82829804  1
  In  In37  1  0.66611857  0.50608983  0.50051953  1
  In  In38  1  0.33813668  0.65837202  0.00157684  1
  In  In39  1  0.83425948  0.17052289  0.02672243  1
  In  In40  1  0.67527056  0.51078228  0.83649323  1
  In  In41  1  0.79738092  0.69882626  0.83496960  1
  In  In42  1  0.52995704  -0.04566774  0.83435024  1
  In  In43  1  0.48111527  0.34919764  0.48296839  1
  In  In44  1  0.67322944  0.82293435  0.50816461  1
  In  In45  1  0.50128430  -0.02211414  0.53147658  1
  In  In46  1  0.68549010  0.15039029  0.16403605  1
  In  In47  1  0.17474881  0.16993059  -0.00691935  1
  In  In48  1  0.35547505  0.83552319  0.83057842  1
  In  In49  1  -0.00502101  -0.01165134  0.01799283  1
  In  In50  1  0.49183979  0.66810422  0.50183583  1
  In  In51  1  0.01596602  0.50117809  0.84850021  1
  In  In52  1  0.82146774  0.50775688  0.67628364  1
  In  In53  1  -0.01687149  0.00878557  0.66844555  1
  In  In54  1  0.49980655  0.67127733  0.16607152  1
  In  In55  1  0.66721921  -0.00188038  0.36310247  1
  In  In56  1  -0.00366841  0.65010607  0.00435528  1
  In  In57  1  0.83789091  -0.00614001  0.15985077  1
  In  In58  1  -0.01416784  0.66374744  0.65112418  1
  In  In59  1  0.18990743  0.81820947  0.00145241  1
  In  In60  1  0.49280327  -0.00572969  0.15292981  1
  In  In61  1  0.19700823  0.79603285  0.63758731  1
  In  In62  1  0.32791511  -0.00746596  0.33250733  1
  In  In63  1  0.32124495  0.34039399  -0.00771768  1
  In  In64  1  0.64873500  0.34473963  0.34814509  1
  In  In65  1  -0.00729824  0.35094472  0.00403832  1
  In  In66  1  0.34031008  0.82314766  0.15899069  1
  In  In67  1  0.82504719  -0.00431847  0.51897786  1
  In  In68  1  0.33442272  0.35360829  0.65716475  1
  In  In69  1  0.47547868  0.49924599  0.32956147  1
  In  In70  1  0.16148674  0.65966950  0.14955238  1
  In  In71  1  0.47863026  0.14068447  -0.00397996  1
  Te  Te72  1  0.08317474  0.09151016  0.08717906  1
  Te  Te73  1  0.08091622  0.10793779  0.42767209  1
  Te  Te74  1  0.09177567  0.10259719  0.72313178  1
  Te  Te75  1  0.10092489  0.42508006  0.07669461  1
  Te  Te76  1  0.12906211  0.41472503  0.38018664  1
  Te  Te77  1  0.07232406  0.41591949  0.73461277  1
  Te  Te78  1  0.07348714  0.76328676  0.08078281  1
  Te  Te79  1  0.09855979  0.74384276  0.42239097  1
  Te  Te80  1  0.09903769  0.72624244  0.73554456  1
  Te  Te81  1  0.39772134  0.09922965  0.11094483  1
  Te  Te82  1  0.42270772  0.07466754  0.42918804  1
  Te  Te83  1  0.42463285  0.07318844  0.76727983  1
  Te  Te84  1  0.40308456  0.42131721  0.09584099  1
  Te  Te85  1  0.37532438  0.41338065  0.39939520  1
  Te  Te86  1  0.40275866  0.42470952  0.76660071  1
  Te  Te87  1  0.43532855  0.76082089  0.05816881  1
  Te  Te88  1  0.41695845  0.75442429  0.40530146  1
  Te  Te89  1  0.42251889  0.75262707  0.72609287  1
  Te  Te90  1  0.73873527  0.05557805  0.05807098  1
  Te  Te91  1  0.74799833  0.10276608  0.43793387  1
  Te  Te92  1  0.75071037  0.08009260  0.75489198  1
  Te  Te93  1  0.74706681  0.43712792  0.09736388  1
  Te  Te94  1  0.75953043  0.43073401  0.40622691  1
  Te  Te95  1  0.73184891  0.40196994  0.74057222  1
  Te  Te96  1  0.73173032  0.74171672  0.04094221  1
  Te  Te97  1  0.74424497  0.73141578  0.40462392  1
  Te  Te98  1  0.70945171  0.77543287  0.74462214  1
  Te  Te99  1  0.10931992  0.22730815  0.28337878  1
  Te  Te100  1  0.11333261  0.22979010  0.53430337  1
  Te  Te101  1  0.08302957  0.26147551  0.90758034  1
  Te  Te102  1  0.10179707  0.57898207  0.26430774  1
  Te  Te103  1  0.08009041  0.57443048  0.57383339  1
  Te  Te104  1  0.10701020  0.59146250  0.92205215  1
  Te  Te105  1  0.05882640  0.89182652  0.24086157  1
  Te  Te106  1  0.08168314  0.90915849  0.59227614  1
  Te  Te107  1  0.09043784  0.92033080  0.91151341  1
  Te  Te108  1  0.38704322  0.25312208  0.26341634  1
  Te  Te109  1  0.40907347  0.24009482  0.57483266  1
  Te  Te110  1  0.42692497  0.25923022  0.91495293  1
  Te  Te111  1  0.39289483  0.58648885  0.23499750  1
  Te  Te112  1  0.39407607  0.57703096  0.57457675  1
  Te  Te113  1  0.43135023  0.59399294  0.89909213  1
  Te  Te114  1  0.42635605  0.90316445  0.25676402  1
  Te  Te115  1  0.42137603  0.87528837  0.60748947  1
  Te  Te116  1  0.42255242  0.92047165  0.93056159  1
  Te  Te117  1  0.74525487  0.25293022  0.26056155  1
  Te  Te118  1  0.73566359  0.26403273  0.59141739  1
  Te  Te119  1  0.76657321  0.25656591  0.91899985  1
  Te  Te120  1  0.77843012  0.61579863  0.28106348  1
  Te  Te121  1  0.73716955  0.60468888  0.59381110  1
  Te  Te122  1  0.75484169  0.59241182  0.93039302  1
  Te  Te123  1  0.74375796  0.91702572  0.25718747  1
  Te  Te124  1  0.73279881  0.91995385  0.60818383  1
  Te  Te125  1  0.72518983  0.86957004  0.93777917  1
  Te  Te126  1  0.24510384  0.25712411  0.09434411  1
  Te  Te127  1  0.20736181  0.27014765  0.39572026  1
  Te  Te128  1  0.23764404  0.24778918  0.72564716  1
  Te  Te129  1  0.25758986  0.56771586  0.08573155  1
  Te  Te130  1  0.24089742  0.58109462  0.45941144  1
  Te  Te131  1  0.22987690  0.60061609  0.78375493  1
  Te  Te132  1  0.25628604  0.92758926  0.08430918  1
  Te  Te133  1  0.27443793  0.90065218  0.44470889  1
  Te  Te134  1  0.23713549  0.91007435  0.74647486  1
  Te  Te135  1  0.58888710  0.24014847  0.08055994  1
  Te  Te136  1  0.58770951  0.24250149  0.44222183  1
  Te  Te137  1  0.56303606  0.26254544  0.74800173  1
  Te  Te138  1  0.59308690  0.59028457  0.07503427  1
  Te  Te139  1  0.57827544  0.58403303  0.40265394  1
  Te  Te140  1  0.59007667  0.59613388  0.74339460  1
  Te  Te141  1  0.58337336  0.91145389  0.07191409  1
  Te  Te142  1  0.57038052  0.89726163  0.41917722  1
  Te  Te143  1  0.60582757  0.89079271  0.72432047  1
  Te  Te144  1  0.94083214  0.24772673  0.10375498  1
  Te  Te145  1  0.93437814  0.28355187  0.39534661  1
  Te  Te146  1  0.92444539  0.25807357  0.73983688  1
  Te  Te147  1  0.90919423  0.58520806  0.10739648  1
  Te  Te148  1  0.93245509  0.57810298  0.40528729  1
  Te  Te149  1  0.91181181  0.59285232  0.76616029  1
  Te  Te150  1  0.90404330  0.89035318  0.07845586  1
  Te  Te151  1  0.91123787  0.92477709  0.41167818  1
  Te  Te152  1  0.90456402  0.90909726  0.75368799  1
  Te  Te153  1  0.23708215  0.08912241  0.26573576  1
  Te  Te154  1  0.25816263  0.08341804  0.58212800  1
  Te  Te155  1  0.27364187  0.07523367  0.92571488  1
  Te  Te156  1  0.24790381  0.43072644  0.27817139  1
  Te  Te157  1  0.23855261  0.42205460  0.56697397  1
  Te  Te158  1  0.25909788  0.44647381  0.90783489  1
  Te  Te159  1  0.24137326  0.75310648  0.25158010  1
  Te  Te160  1  0.27286373  0.69334740  0.55859373  1
  Te  Te161  1  0.25331837  0.73531440  0.89057720  1
  Te  Te162  1  0.58441133  0.08456068  0.25875646  1
  Te  Te163  1  0.60302762  0.06557043  0.59343185  1
  Te  Te164  1  0.58959294  0.07232952  0.91649215  1
  Te  Te165  1  0.58082294  0.42308495  0.23520205  1
  Te  Te166  1  0.57095798  0.42077035  0.58319937  1
  Te  Te167  1  0.57562962  0.41451330  0.90496116  1
  Te  Te168  1  0.58218079  0.74843003  0.26096618  1
  Te  Te169  1  0.57842019  0.74704549  0.59583453  1
  Te  Te170  1  0.61270134  0.75991195  0.93493727  1
  Te  Te171  1  0.92746314  0.08949137  0.23930412  1
  Te  Te172  1  0.92884288  0.10203668  0.56009004  1
  Te  Te173  1  0.90570410  0.07230838  0.91652510  1
  Te  Te174  1  0.93302872  0.40488838  0.27074878  1
  Te  Te175  1  0.91363393  0.43083163  0.58171093  1
  Te  Te176  1  0.89844601  0.45020296  0.93905486  1
  Te  Te177  1  0.89159041  0.71893148  0.21496548  1
  Te  Te178  1  0.89069700  0.77100626  0.59722132  1
  Te  Te179  1  0.91987857  0.75087065  0.91435967  1
