# generated using pymatgen
data_In2Te3
_symmetry_space_group_name_H-M   'P 1'
_cell_length_a   18.76172112
_cell_length_b   18.76814299
_cell_length_c   18.76564729
_cell_angle_alpha   89.95042348
_cell_angle_beta   89.91447620
_cell_angle_gamma   90.06228128
_symmetry_Int_Tables_number   1
_chemical_formula_structural   In2Te3
_chemical_formula_sum   'In72 Te108'
_cell_volume   6607.79597879
_cell_formula_units_Z   36
loop_
 _symmetry_equiv_pos_site_id
 _symmetry_equiv_pos_as_xyz
  1  'x, y, z'
loop_
 _atom_site_type_symbol
 _atom_site_label
 _atom_site_symmetry_multiplicity
 _atom_site_fract_x
 _atom_site_fract_y
 _atom_site_fract_z
 _atom_site_occupancy
  In  In0  1  0.01249776  0.84786734  0.51518964  1
  In  In1  1  0.31995660  0.17446863  0.15175538  1
  In  In2  1  0.67089849  0.68486888  -0.00683148  1
  In  In3  1  0.32806338  0.15851139  0.82955079  1
  In  In4  1  0.00194889  0.17081524  0.51603289  1
  In  In5  1  -0.01953056  0.64405025  0.33450624  1
  In  In6  1  0.33227942  0.51991129  0.80047239  1
  In  In7  1  -0.03073069  0.17006128  0.15853865  1
  In  In8  1  0.16786480  0.81987881  0.32988626  1
  In  In9  1  0.46509477  0.18363318  0.64906872  1
  In  In10  1  0.19727535  0.35457111  0.53591298  1
  In  In11  1  0.83618370  0.14825276  0.32931904  1
  In  In12  1  0.51812302  0.83530158  -0.01049771  1
  In  In13  1  0.82997932  0.48710380  0.67195109  1
  In  In14  1  0.81336123  0.33916512  0.50457525  1
  In  In15  1  0.16529246  0.51008214  0.34680696  1
  In  In16  1  0.18312558  0.00000164  0.52961734  1
  In  In17  1  0.34854617  0.82975824  0.81950843  1
  In  In18  1  0.83416573  0.00198676  0.52487448  1
  In  In19  1  0.65875292  0.66575762  0.32934507  1
  In  In20  1  0.51288415  0.83184674  0.67476275  1
  In  In21  1  0.66429860  0.33745768  0.34467862  1
  In  In22  1  -0.00977133  0.66491889  -0.03282895  1
  In  In23  1  0.80261913  0.83808508  0.30461733  1
  In  In24  1  0.68999137  0.17474954  0.85091273  1
  In  In25  1  0.50056107  0.50608179  0.65875053  1
  In  In26  1  0.33597258  0.33410019  0.00792603  1
  In  In27  1  0.66185026  0.15791718  0.14862403  1
  In  In28  1  0.65990997  0.00109199  0.68282488  1
  In  In29  1  0.65461590  0.67110355  0.66498196  1
  In  In30  1  0.18432216  0.66005752  0.52052408  1
  In  In31  1  0.51636309  0.49187846  0.00006321  1
  In  In32  1  0.50388968  0.15298466  0.34592358  1
  In  In33  1  0.17584386  0.84554586  0.65030022  1
  In  In34  1  0.67435802  0.17717320  0.50978746  1
  In  In35  1  0.82755165  0.50058479  0.00845521  1
  In  In36  1  0.84205005  0.34401604  0.15642902  1
  In  In37  1  0.33769623  0.64944325  -0.01090354  1
  In  In38  1  0.82904952  0.68013302  0.82392513  1
  In  In39  1  0.00000307  0.31134050  -0.02134993  1
  In  In40  1  0.17918444  0.83813746  -0.00420538  1
  In  In41  1  0.18416327  0.19023982  0.34926413  1
  In  In42  1  0.18093975  0.66911571  0.18776713  1
  In  In43  1  0.14791233  0.49069130  0.00794637  1
  In  In44  1  0.35003787  0.68298163  0.34278700  1
  In  In45  1  -0.03454672  0.00859021  -0.01582318  1
  In  In46  1  0.17285845  0.33414081  0.15413200  1
  In  In47  1  0.51428168  0.35573344  0.82479101  1
  In  In48  1  -0.02024596  0.02036509  0.33390918  1
  In  In49  1  -0.00812862  0.35565324  0.31536662  1
  In  In50  1  0.32471802  0.34544521  0.35744243  1
  In  In51  1  0.82966521  0.65049170  0.48493634  1
  In  In52  1  0.16544536  0.00269367  0.15434870  1
  In  In53  1  0.50400214  0.66689208  0.16739463  1
  In  In54  1  0.02314907  0.66444115  0.65080054  1
  In  In55  1  0.49842427  0.50302304  0.34757349  1
  In  In56  1  0.37443284  -0.02250099  0.31500741  1
  In  In57  1  0.67680053  -0.02134304  -0.00575126  1
  In  In58  1  -0.01404205  0.83796760  0.82569928  1
  In  In59  1  0.51139561  0.31975333  0.16817438  1
  In  In60  1  0.81192331  0.67056218  0.15550335  1
  In  In61  1  0.17014813  0.32286660  0.82853995  1
  In  In62  1  0.33377318  0.02278140  -0.00589203  1
  In  In63  1  -0.01062197  0.31668389  0.69759440  1
  In  In64  1  0.83212731  0.85619507  0.67217085  1
  In  In65  1  0.32998179  0.80329971  0.49630818  1
  In  In66  1  0.01362608  0.48601716  0.84484562  1
  In  In67  1  0.33493817  -0.00152594  0.67470161  1
  In  In68  1  0.50854760  0.15276028  0.00653793  1
  In  In69  1  -0.01073943  0.84729879  0.13425166  1
  In  In70  1  0.66092942  0.33962130  0.66134503  1
  In  In71  1  0.52033687  -0.02473156  0.47434799  1
  Te  Te72  1  0.06802268  0.08602028  0.07428103  1
  Te  Te73  1  0.09000042  0.07749974  0.42446537  1
  Te  Te74  1  0.02123329  0.05713611  0.72635366  1
  Te  Te75  1  0.05197348  0.40408061  0.09028290  1
  Te  Te76  1  0.09962077  0.39095857  0.41713665  1
  Te  Te77  1  0.09829748  0.42308469  0.73748254  1
  Te  Te78  1  0.08916388  0.74316780  0.07968554  1
  Te  Te79  1  0.08089289  0.73649624  0.42400702  1
  Te  Te80  1  0.09099301  0.75759255  0.74935303  1
  Te  Te81  1  0.42653326  0.07485254  0.10837795  1
  Te  Te82  1  0.40742917  0.07151490  0.43258523  1
  Te  Te83  1  0.43582183  0.07749968  0.75671605  1
  Te  Te84  1  0.41899647  0.42227846  0.09827826  1
  Te  Te85  1  0.43089439  0.40559331  0.44391896  1
  Te  Te86  1  0.40074443  0.39896150  0.73697922  1
  Te  Te87  1  0.41765091  0.74848773  0.07130376  1
  Te  Te88  1  0.45298340  0.74476691  0.43314934  1
  Te  Te89  1  0.43447987  0.73063037  0.75163375  1
  Te  Te90  1  0.75517812  0.09178645  0.05575074  1
  Te  Te91  1  0.74202094  0.07247722  0.42192826  1
  Te  Te92  1  0.76004923  0.07553132  0.76331328  1
  Te  Te93  1  0.73407372  0.42093612  0.09195093  1
  Te  Te94  1  0.74352730  0.43680322  0.42012814  1
  Te  Te95  1  0.74281266  0.41067153  0.76238211  1
  Te  Te96  1  0.72763319  0.77547573  0.09690628  1
  Te  Te97  1  0.74343242  0.75904012  0.42233180  1
  Te  Te98  1  0.73185025  0.77230860  0.75340901  1
  Te  Te99  1  0.07814456  0.23861349  0.24478875  1
  Te  Te100  1  0.09433300  0.25451011  0.60110558  1
  Te  Te101  1  0.06929656  0.22206324  0.87955200  1
  Te  Te102  1  0.07511285  0.57023787  0.23879185  1
  Te  Te103  1  0.08544029  0.55979933  0.56836113  1
  Te  Te104  1  0.10739389  0.59373721  0.90071019  1
  Te  Te105  1  0.07795477  0.91644040  0.25037536  1
  Te  Te106  1  0.06001150  0.95202191  0.62293252  1
  Te  Te107  1  0.07677040  0.92084651  0.91928155  1
  Te  Te108  1  0.40632540  0.24871804  0.25812364  1
  Te  Te109  1  0.40822248  0.28098263  0.55506152  1
  Te  Te110  1  0.42567026  0.25028590  0.91741122  1
  Te  Te111  1  0.40898687  0.57792776  0.24755214  1
  Te  Te112  1  0.38913218  0.56749365  0.58092020  1
  Te  Te113  1  0.43602558  0.57601964  0.89878815  1
  Te  Te114  1  0.46758291  0.88925452  0.24457475  1
  Te  Te115  1  0.41302837  0.91389947  0.57532878  1
  Te  Te116  1  0.42007740  0.92778659  0.91151680  1
  Te  Te117  1  0.74878512  0.24755087  0.25080434  1
  Te  Te118  1  0.76890207  0.23856620  0.61048537  1
  Te  Te119  1  0.78770104  0.26374572  0.91849335  1
  Te  Te120  1  0.76384627  0.58068696  0.26310984  1
  Te  Te121  1  0.74109010  0.57307889  0.58211027  1
  Te  Te122  1  0.74665702  0.58183900  0.90594650  1
  Te  Te123  1  0.71109537  0.94522682  0.25995043  1
  Te  Te124  1  0.72396037  0.90822476  0.57632958  1
  Te  Te125  1  0.78471197  0.89674171  0.93114656  1
  Te  Te126  1  0.22524482  0.23548381  0.04904126  1
  Te  Te127  1  0.27438098  0.23697613  0.46297595  1
  Te  Te128  1  0.25696650  0.24724141  0.73305247  1
  Te  Te129  1  0.24970432  0.57307116  0.08889896  1
  Te  Te130  1  0.27541822  0.57735007  0.42766872  1
  Te  Te131  1  0.24461448  0.58749236  0.70150497  1
  Te  Te132  1  0.27193309  0.91556061  0.08912569  1
  Te  Te133  1  0.25268208  0.91446865  0.41509670  1
  Te  Te134  1  0.23740111  0.92455901  0.76609020  1
  Te  Te135  1  0.59993994  0.26484112  0.05661148  1
  Te  Te136  1  0.56962854  0.25906282  0.43490820  1
  Te  Te137  1  0.57840053  0.23567258  0.74851612  1
  Te  Te138  1  0.60258544  0.58264025  0.08844380  1
  Te  Te139  1  0.56971228  0.60247587  0.43256566  1
  Te  Te140  1  0.59341413  0.56983662  0.75448285  1
  Te  Te141  1  0.57926348  0.92266162  0.09339858  1
  Te  Te142  1  0.60089313  0.91107923  0.36744879  1
  Te  Te143  1  0.58637926  0.91163983  0.77576696  1
  Te  Te144  1  0.87841628  0.23239859  0.04945131  1
  Te  Te145  1  0.91731615  0.25019836  0.41146370  1
  Te  Te146  1  0.90476170  0.24145367  0.79692188  1
  Te  Te147  1  0.92623680  0.59158213  0.08277138  1
  Te  Te148  1  0.93178237  0.55328384  0.44020809  1
  Te  Te149  1  0.92761172  0.58576837  0.75410729  1
  Te  Te150  1  0.87639357  0.92413420  0.07356797  1
  Te  Te151  1  0.90789286  0.91121117  0.41545701  1
  Te  Te152  1  0.89823464  0.94921715  0.77067675  1
  Te  Te153  1  0.25159450  0.07824290  0.25803374  1
  Te  Te154  1  0.24089049  0.10144547  0.62102031  1
  Te  Te155  1  0.22948391  0.07997066  0.90728963  1
  Te  Te156  1  0.25128505  0.42308346  0.24777883  1
  Te  Te157  1  0.28005806  0.46260840  0.60786396  1
  Te  Te158  1  0.25766706  0.42695506  0.91414911  1
  Te  Te159  1  0.28075159  0.77297531  0.23870974  1
  Te  Te160  1  0.28009097  0.73421605  0.62507223  1
  Te  Te161  1  0.25164969  0.74130293  0.90229378  1
  Te  Te162  1  0.59116882  0.07576132  0.25334826  1
  Te  Te163  1  0.57119562  0.08475750  0.57862712  1
  Te  Te164  1  0.58865972  0.07230974  0.90747895  1
  Te  Te165  1  0.58769448  0.42633672  0.24693831  1
  Te  Te166  1  0.58300277  0.42121982  0.56691183  1
  Te  Te167  1  0.61138512  0.40863357  0.92142694  1
  Te  Te168  1  0.57219256  0.76989743  0.25509301  1
  Te  Te169  1  0.56718014  0.74340419  0.56624580  1
  Te  Te170  1  0.58053220  0.74376557  0.89097953  1
  Te  Te171  1  0.88625917  0.05471659  0.21924172  1
  Te  Te172  1  0.91346183  0.09561191  0.61343459  1
  Te  Te173  1  0.92997086  0.10943011  0.87840051  1
  Te  Te174  1  0.88805451  0.44337514  0.25855644  1
  Te  Te175  1  0.92580486  0.40400622  0.58682067  1
  Te  Te176  1  0.90020043  0.40927352  0.90741825  1
  Te  Te177  1  0.92479865  0.75968146  0.24758313  1
  Te  Te178  1  0.90741458  0.74889081  0.58934846  1
  Te  Te179  1  0.88515049  0.77391765  0.93560037  1
