# generated using pymatgen
data_In2Te3
_symmetry_space_group_name_H-M   'P 1'
_cell_length_a   18.78283705
_cell_length_b   18.77246437
_cell_length_c   18.78041072
_cell_angle_alpha   90.05117167
_cell_angle_beta   90.03713761
_cell_angle_gamma   89.99177177
_symmetry_Int_Tables_number   1
_chemical_formula_structural   In2Te3
_chemical_formula_sum   'In72 Te108'
_cell_volume   6621.97133710
_cell_formula_units_Z   36
loop_
 _symmetry_equiv_pos_site_id
 _symmetry_equiv_pos_as_xyz
  1  'x, y, z'
loop_
 _atom_site_type_symbol
 _atom_site_label
 _atom_site_symmetry_multiplicity
 _atom_site_fract_x
 _atom_site_fract_y
 _atom_site_fract_z
 _atom_site_occupancy
  In  In0  1  0.15819834  0.81161740  0.65972713  1
  In  In1  1  0.83021507  -0.01462274  0.53605765  1
  In  In2  1  0.33071736  0.51466120  0.80527909  1
  In  In3  1  -0.00228104  0.13906072  0.49907658  1
  In  In4  1  0.48161737  0.51381832  -0.01041500  1
  In  In5  1  0.01577957  -0.02414251  -0.00722369  1
  In  In6  1  0.16571213  -0.01150783  0.16362341  1
  In  In7  1  0.47860483  0.32294077  0.51201629  1
  In  In8  1  0.51046826  0.82097120  0.34156249  1
  In  In9  1  0.33785509  0.18043009  0.16310689  1
  In  In10  1  0.17409225  0.84077319  0.34172463  1
  In  In11  1  0.51857898  0.66573433  0.15624450  1
  In  In12  1  0.66213691  0.16919185  0.15533440  1
  In  In13  1  0.65299607  0.00899572  -0.04843164  1
  In  In14  1  0.49651828  0.17733696  0.67130651  1
  In  In15  1  0.49945279  0.00531462  0.15614156  1
  In  In16  1  0.68507983  0.51191075  0.16446455  1
  In  In17  1  0.83251834  0.67117169  0.52605897  1
  In  In18  1  0.33005143  0.65382281  0.35654563  1
  In  In19  1  0.15042344  0.49886748  -0.00683170  1
  In  In20  1  0.15216829  -0.03922202  0.82863872  1
  In  In21  1  0.33669616  0.00661065  0.67422703  1
  In  In22  1  0.01729474  0.53027343  0.52724010  1
  In  In23  1  -0.01252555  0.37178408  -0.00098266  1
  In  In24  1  0.50576566  0.35274118  0.82020155  1
  In  In25  1  0.14653570  0.18904095  0.34511528  1
  In  In26  1  0.32047058  0.52126970  0.52650791  1
  In  In27  1  0.68786629  0.80946641  0.83115064  1
  In  In28  1  0.67609441  -0.01873252  0.67507874  1
  In  In29  1  0.51595087  0.83252652  -0.02637736  1
  In  In30  1  0.32690924  0.33060559  0.31908435  1
  In  In31  1  0.00391886  0.66162562  0.32269045  1
  In  In32  1  0.16219974  0.67708678  0.82551968  1
  In  In33  1  -0.01302853  0.34530386  0.31205772  1
  In  In34  1  0.14185722  0.34811534  0.83040222  1
  In  In35  1  0.17257333  0.34572291  0.49730521  1
  In  In36  1  0.17769586  0.16650197  0.66478722  1
  In  In37  1  0.00997749  0.00585710  0.32235886  1
  In  In38  1  0.00761076  0.83172468  0.50556812  1
  In  In39  1  -0.00726735  0.34931098  0.68183701  1
  In  In40  1  0.34912264  -0.02498885  0.00692728  1
  In  In41  1  0.48244426  -0.01347625  0.49888620  1
  In  In42  1  0.68193169  0.37354580  0.68777950  1
  In  In43  1  0.50502262  0.80205529  0.69485992  1
  In  In44  1  0.12147049  0.68470641  0.13914901  1
  In  In45  1  0.32162247  -0.00234320  0.35697398  1
  In  In46  1  0.33659137  0.31503402  -0.00668446  1
  In  In47  1  0.53137098  0.52381315  0.68319913  1
  In  In48  1  0.70553609  0.81846486  0.14891115  1
  In  In49  1  -0.00865458  0.17879330  0.83759484  1
  In  In50  1  0.51159942  0.67629019  0.51218321  1
  In  In51  1  0.66240439  0.18729902  0.51057400  1
  In  In52  1  -0.01341170  -0.02409043  0.67606866  1
  In  In53  1  0.19184423  0.15665228  0.01626539  1
  In  In54  1  0.82455617  0.17908854  -0.00308562  1
  In  In55  1  0.67522383  0.33755989  0.00295897  1
  In  In56  1  0.31627954  0.83620049  0.16118473  1
  In  In57  1  0.65403189  0.35465085  0.34970390  1
  In  In58  1  0.82540121  -0.01935142  0.81991070  1
  In  In59  1  0.82591752  0.35651669  0.51016096  1
  In  In60  1  0.83263848  0.35764126  0.15811947  1
  In  In61  1  0.51512212  0.48402353  0.32832890  1
  In  In62  1  0.33071909  0.65963161  -0.02511510  1
  In  In63  1  0.83485731  0.80669126  0.34718441  1
  In  In64  1  0.33592880  0.16069793  0.82274439  1
  In  In65  1  0.64421675  -0.01609944  0.33390236  1
  In  In66  1  0.68406670  0.51560592  0.49523504  1
  In  In67  1  0.84947745  0.64887849  0.13633801  1
  In  In68  1  0.82514916  0.16100169  0.34083540  1
  In  In69  1  0.31847057  0.48502510  0.17038699  1
  In  In70  1  0.86103997  -0.00940060  0.15241549  1
  In  In71  1  -0.03902714  0.52638514  0.84419394  1
  Te  Te72  1  0.07597010  0.08406860  0.08519041  1
  Te  Te73  1  0.10786630  0.06395784  0.42387938  1
  Te  Te74  1  0.08273559  0.08405436  0.75634090  1
  Te  Te75  1  0.07988900  0.42613617  0.10059580  1
  Te  Te76  1  0.06057738  0.42037226  0.42715224  1
  Te  Te77  1  0.07446567  0.45664784  0.75322416  1
  Te  Te78  1  0.05399438  0.78494449  0.05573048  1
  Te  Te79  1  0.09311489  0.73796827  0.42118809  1
  Te  Te80  1  0.05383448  0.74736423  0.74611236  1
  Te  Te81  1  0.42184369  0.09778642  0.06271905  1
  Te  Te82  1  0.42367175  0.08847733  0.41102460  1
  Te  Te83  1  0.44529925  0.06732216  0.76664158  1
  Te  Te84  1  0.41944850  0.41048861  0.08252176  1
  Te  Te85  1  0.40952911  0.43101633  0.42483348  1
  Te  Te86  1  0.41710151  0.42178194  0.71988087  1
  Te  Te87  1  0.41776026  0.75233272  0.07917528  1
  Te  Te88  1  0.40573653  0.75958728  0.43477586  1
  Te  Te89  1  0.40269191  0.71554275  0.75551624  1
  Te  Te90  1  0.74702053  0.06659074  0.07944392  1
  Te  Te91  1  0.74107540  0.07293833  0.43190101  1
  Te  Te92  1  0.74324197  0.08473669  0.75662239  1
  Te  Te93  1  0.77014750  0.44800981  0.05249084  1
  Te  Te94  1  0.77202504  0.43940537  0.39373843  1
  Te  Te95  1  0.77034159  0.44507948  0.78149027  1
  Te  Te96  1  0.75012761  0.72211504  0.04312335  1
  Te  Te97  1  0.73782168  0.74776677  0.43841092  1
  Te  Te98  1  0.78827169  0.71734896  0.76438624  1
  Te  Te99  1  0.07103391  0.25040946  0.23642151  1
  Te  Te100  1  0.07184598  0.25076352  0.58541826  1
  Te  Te101  1  0.09098738  0.24817404  0.93367318  1
  Te  Te102  1  0.08056282  0.57515514  0.22910072  1
  Te  Te103  1  0.11593426  0.61436424  0.60215980  1
  Te  Te104  1  0.06785786  0.60791244  0.92737806  1
  Te  Te105  1  0.07278073  0.89468613  0.23989222  1
  Te  Te106  1  0.09579618  0.93100174  0.58216743  1
  Te  Te107  1  0.05729116  0.86732632  0.89726489  1
  Te  Te108  1  0.43153940  0.26279122  0.24151432  1
  Te  Te109  1  0.38817240  0.23759449  0.59141099  1
  Te  Te110  1  0.43882846  0.24284541  0.90559133  1
  Te  Te111  1  0.42238329  0.58476421  0.24566546  1
  Te  Te112  1  0.42086331  0.60653169  0.61316329  1
  Te  Te113  1  0.43396444  0.61229661  0.86920685  1
  Te  Te114  1  0.41853329  0.91127557  0.24998873  1
  Te  Te115  1  0.41831340  0.89782923  0.60301751  1
  Te  Te116  1  0.41032469  0.90056950  0.89609664  1
  Te  Te117  1  0.74827054  0.26000190  0.25418120  1
  Te  Te118  1  0.75594408  0.25964021  0.60408386  1
  Te  Te119  1  0.73258272  0.24281546  0.90302970  1
  Te  Te120  1  0.76006576  0.60507214  0.24925979  1
  Te  Te121  1  0.74093345  0.58706977  0.61050627  1
  Te  Te122  1  0.76080899  0.58633335  0.85094063  1
  Te  Te123  1  0.76118203  0.92387992  0.25593225  1
  Te  Te124  1  0.75842258  0.87868205  0.60621331  1
  Te  Te125  1  0.75827796  0.90242735  0.93337410  1
  Te  Te126  1  0.23526317  0.27679925  0.10106374  1
  Te  Te127  1  0.26198623  0.24279491  0.42671680  1
  Te  Te128  1  0.24909397  0.26831882  0.75487485  1
  Te  Te129  1  0.24728396  0.59204858  0.08325082  1
  Te  Te130  1  0.23070374  0.56249190  0.41454170  1
  Te  Te131  1  0.23455902  0.59634192  0.71947039  1
  Te  Te132  1  0.22515169  0.89793104  0.05557390  1
  Te  Te133  1  0.26161668  0.89780033  0.44597966  1
  Te  Te134  1  0.25783879  0.89375976  0.74516003  1
  Te  Te135  1  0.57489270  0.25246567  0.07228215  1
  Te  Te136  1  0.56481047  0.24601228  0.40965172  1
  Te  Te137  1  0.60104357  0.25550028  0.74941432  1
  Te  Te138  1  0.60017707  0.58619260  0.05742344  1
  Te  Te139  1  0.58790181  0.59383828  0.40543403  1
  Te  Te140  1  0.62553678  0.59533965  0.77087109  1
  Te  Te141  1  0.59387096  0.90899348  0.08560829  1
  Te  Te142  1  0.59561104  0.89483915  0.44584519  1
  Te  Te143  1  0.58571206  0.90842560  0.77341122  1
  Te  Te144  1  0.92114667  0.25799287  0.08231030  1
  Te  Te145  1  0.91403527  0.24889446  0.42994204  1
  Te  Te146  1  0.89843400  0.26502180  0.76192613  1
  Te  Te147  1  0.93692729  0.56869101  0.04451776  1
  Te  Te148  1  0.91805939  0.58881246  0.42522152  1
  Te  Te149  1  0.90565640  0.61540629  0.73749909  1
  Te  Te150  1  0.92401854  0.88261310  0.07107536  1
  Te  Te151  1  0.91517582  0.92819996  0.41500260  1
  Te  Te152  1  0.91738454  0.87860627  0.76347238  1
  Te  Te153  1  0.24933874  0.08494158  0.24761548  1
  Te  Te154  1  0.25860501  0.08311239  0.57465157  1
  Te  Te155  1  0.24531801  0.06641657  0.90456638  1
  Te  Te156  1  0.22865166  0.43146769  0.27443578  1
  Te  Te157  1  0.24480676  0.41832404  0.60269043  1
  Te  Te158  1  0.26466942  0.42826686  0.91492720  1
  Te  Te159  1  0.24307300  0.73507549  0.24814426  1
  Te  Te160  1  0.23422181  0.71265530  0.58109515  1
  Te  Te161  1  0.25055560  0.76351181  0.90909944  1
  Te  Te162  1  0.57257937  0.09341159  0.25768397  1
  Te  Te163  1  0.58355922  0.07837394  0.58458747  1
  Te  Te164  1  0.54377011  0.09624412  0.91858565  1
  Te  Te165  1  0.58913130  0.40608502  0.22053081  1
  Te  Te166  1  0.58526301  0.41674871  0.57013395  1
  Te  Te167  1  0.58946653  0.43632411  0.91375446  1
  Te  Te168  1  0.60788689  0.74920181  0.24763566  1
  Te  Te169  1  0.60631723  0.74236457  0.60434961  1
  Te  Te170  1  0.59216553  0.72367252  0.90841074  1
  Te  Te171  1  0.92322810  0.10143540  0.24054839  1
  Te  Te172  1  0.90675975  0.09279183  0.61283721  1
  Te  Te173  1  0.91627555  0.07156631  0.92029473  1
  Te  Te174  1  0.91360902  0.45054338  0.23985946  1
  Te  Te175  1  0.90789999  0.44730380  0.59984885  1
  Te  Te176  1  0.89449937  0.39419731  0.88380047  1
  Te  Te177  1  0.91811440  0.75292575  0.23540941  1
  Te  Te178  1  0.94230306  0.74030488  0.60320656  1
  Te  Te179  1  0.89113938  0.69208585  0.97645774  1
