# generated using pymatgen
data_In2Te3
_symmetry_space_group_name_H-M   'P 1'
_cell_length_a   18.79425449
_cell_length_b   18.80103326
_cell_length_c   18.79790275
_cell_angle_alpha   90.17628650
_cell_angle_beta   90.04133069
_cell_angle_gamma   90.02315306
_symmetry_Int_Tables_number   1
_chemical_formula_structural   In2Te3
_chemical_formula_sum   'In72 Te108'
_cell_volume   6642.23161032
_cell_formula_units_Z   36
loop_
 _symmetry_equiv_pos_site_id
 _symmetry_equiv_pos_as_xyz
  1  'x, y, z'
loop_
 _atom_site_type_symbol
 _atom_site_label
 _atom_site_symmetry_multiplicity
 _atom_site_fract_x
 _atom_site_fract_y
 _atom_site_fract_z
 _atom_site_occupancy
  In  In0  1  0.82222688  0.81666983  0.66812864  1
  In  In1  1  0.15604279  -0.02312113  0.83320394  1
  In  In2  1  0.51320242  0.16568116  -0.00573659  1
  In  In3  1  0.49090319  0.50125545  0.33042211  1
  In  In4  1  0.33563657  0.81890221  0.85267531  1
  In  In5  1  0.47577523  0.31338688  0.51660105  1
  In  In6  1  0.34115439  0.51295586  0.16063261  1
  In  In7  1  0.85531883  0.53449638  0.69340794  1
  In  In8  1  0.32883696  0.65829761  0.66794610  1
  In  In9  1  0.16498996  0.14586186  0.01960044  1
  In  In10  1  0.83069825  -0.00521050  0.17668471  1
  In  In11  1  0.83065657  0.34886622  0.49176613  1
  In  In12  1  0.65186674  0.84249193  0.50652259  1
  In  In13  1  0.32933578  0.83817705  0.49777877  1
  In  In14  1  0.49398008  0.83804697  0.35247711  1
  In  In15  1  0.16728824  0.16724100  0.65880905  1
  In  In16  1  0.85619863  0.37004045  0.82211758  1
  In  In17  1  0.16696164  0.31404539  0.16658154  1
  In  In18  1  0.69027629  0.33551083  0.32776274  1
  In  In19  1  0.01587048  0.18558653  0.50127274  1
  In  In20  1  0.49635673  0.52015461  0.68260702  1
  In  In21  1  0.84889882  0.18648916  0.00602995  1
  In  In22  1  0.01002271  0.82298871  0.83790169  1
  In  In23  1  0.17484275  0.50587877  -0.02471354  1
  In  In24  1  0.32824140  -0.00231799  0.35480648  1
  In  In25  1  0.85388938  0.66717680  0.49286733  1
  In  In26  1  0.49389570  0.14272927  0.34379906  1
  In  In27  1  0.17844519  0.47718807  0.65413471  1
  In  In28  1  0.47166079  0.83698219  0.67474106  1
  In  In29  1  0.50461381  0.51858390  -0.00147651  1
  In  In30  1  0.17304185  0.50973042  0.34520268  1
  In  In31  1  0.64376243  0.79481087  0.86431771  1
  In  In32  1  0.16287408  0.66650841  0.49461296  1
  In  In33  1  0.71812768  0.49716528  0.13436825  1
  In  In34  1  0.16417546  0.66936476  0.83005693  1
  In  In35  1  0.65791025  0.18162653  0.17930702  1
  In  In36  1  0.00129149  0.81077222  0.16221325  1
  In  In37  1  0.83195107  0.82822834  0.30835404  1
  In  In38  1  0.00220700  -0.01354646  0.32135415  1
  In  In39  1  0.32181351  0.81354249  0.16611072  1
  In  In40  1  0.33318498  0.32117302  0.35349675  1
  In  In41  1  0.51814558  -0.02277466  0.14535382  1
  In  In42  1  -0.00936108  0.35689274  0.32316710  1
  In  In43  1  0.65174069  -0.01698575  0.01801618  1
  In  In44  1  -0.01364364  0.34970611  -0.00500437  1
  In  In45  1  0.66473116  0.15553104  0.48201052  1
  In  In46  1  0.02160935  0.82181179  0.50413749  1
  In  In47  1  0.66392932  0.65332596  0.31780675  1
  In  In48  1  0.84006935  0.02365790  0.48587527  1
  In  In49  1  0.47423982  -0.02112760  0.81786243  1
  In  In50  1  0.51063783  0.35714346  0.15903083  1
  In  In51  1  0.83120305  0.78411127  0.00999957  1
  In  In52  1  0.16314824  0.66692723  0.16375047  1
  In  In53  1  0.51385669  0.36309611  0.83466561  1
  In  In54  1  0.32272461  0.00733539  0.66622925  1
  In  In55  1  0.32682419  0.17210611  0.82483466  1
  In  In56  1  0.65229635  0.66841767  0.67407212  1
  In  In57  1  0.18292491  0.16856902  0.36026963  1
  In  In58  1  0.68365808  0.34279809  0.68190743  1
  In  In59  1  0.31838083  0.17238117  0.17289658  1
  In  In60  1  0.00176562  -0.01089538  0.64175221  1
  In  In61  1  0.16875939  0.34949363  0.83079030  1
  In  In62  1  -0.01992778  0.19123756  0.82613844  1
  In  In63  1  0.65268980  0.02268493  0.67063898  1
  In  In64  1  0.80282730  -0.00081387  0.82762031  1
  In  In65  1  0.66225892  0.49337133  0.48800880  1
  In  In66  1  0.01676878  0.00056352  0.00430958  1
  In  In67  1  0.33211764  -0.03444976  0.01458926  1
  In  In68  1  0.50227204  0.65410034  0.16181449  1
  In  In69  1  0.00753523  0.50925342  0.50002942  1
  In  In70  1  0.66361877  0.18754755  0.83845320  1
  In  In71  1  -0.02453881  0.51351750  0.14212899  1
  Te  Te72  1  0.06882320  0.08652935  0.11256762  1
  Te  Te73  1  0.08264308  0.07239768  0.42404661  1
  Te  Te74  1  0.07714175  0.08365208  0.75988919  1
  Te  Te75  1  0.09654908  0.42446619  0.08686353  1
  Te  Te76  1  0.09316962  0.40718670  0.42484334  1
  Te  Te77  1  0.07364072  0.42202250  0.74620470  1
  Te  Te78  1  0.06756571  0.72166428  0.06501291  1
  Te  Te79  1  0.07562789  0.73591602  0.39737319  1
  Te  Te80  1  0.09685201  0.76309948  0.73588636  1
  Te  Te81  1  0.41734410  0.08717563  0.08333364  1
  Te  Te82  1  0.38534351  0.10919574  0.43666748  1
  Te  Te83  1  0.42725609  0.09674998  0.73580497  1
  Te  Te84  1  0.40806489  0.41473036  0.06462070  1
  Te  Te85  1  0.40916700  0.42721017  0.43428741  1
  Te  Te86  1  0.40618825  0.43009327  0.75878495  1
  Te  Te87  1  0.41319205  0.73701319  0.07720478  1
  Te  Te88  1  0.41464151  0.73989817  0.42663995  1
  Te  Te89  1  0.42568098  0.72668291  0.76842148  1
  Te  Te90  1  0.74175155  0.09459541  0.07141748  1
  Te  Te91  1  0.75440154  0.08930474  0.38587635  1
  Te  Te92  1  0.75642370  0.11299379  0.73937480  1
  Te  Te93  1  0.73492173  0.38643154  0.03807633  1
  Te  Te94  1  0.77126247  0.44816975  0.39201366  1
  Te  Te95  1  0.74173339  0.45557634  0.76525451  1
  Te  Te96  1  0.74087543  0.71332963  0.10353621  1
  Te  Te97  1  0.74086578  0.74792677  0.42367493  1
  Te  Te98  1  0.75232874  0.73222170  0.77227405  1
  Te  Te99  1  0.08428968  0.24255247  0.27017645  1
  Te  Te100  1  0.07117358  0.26939987  0.61048732  1
  Te  Te101  1  0.08676604  0.24628589  0.92246519  1
  Te  Te102  1  0.07551554  0.57077916  0.24577229  1
  Te  Te103  1  0.08597905  0.58867374  0.60265573  1
  Te  Te104  1  0.06737953  0.57018674  0.89284552  1
  Te  Te105  1  0.09023449  0.89433469  0.24795617  1
  Te  Te106  1  0.11059777  0.92018189  0.57236644  1
  Te  Te107  1  0.10110345  0.88875356  0.94366854  1
  Te  Te108  1  0.42970052  0.25544370  0.24239925  1
  Te  Te109  1  0.36851766  0.26575497  0.60520974  1
  Te  Te110  1  0.42575701  0.25394124  0.90807618  1
  Te  Te111  1  0.39920739  0.60500642  0.26679387  1
  Te  Te112  1  0.41553062  0.58187683  0.57529512  1
  Te  Te113  1  0.42543581  0.61057563  0.91582710  1
  Te  Te114  1  0.41221666  0.92624855  0.24452474  1
  Te  Te115  1  0.42317430  0.93575271  0.57297343  1
  Te  Te116  1  0.44277995  0.89306435  0.93822334  1
  Te  Te117  1  0.77131538  0.26082983  0.23057329  1
  Te  Te118  1  0.74315978  0.25332198  0.57124983  1
  Te  Te119  1  0.76585000  0.27409557  0.91144245  1
  Te  Te120  1  0.77609954  0.59551972  0.23738735  1
  Te  Te121  1  0.74806537  0.58436835  0.58072437  1
  Te  Te122  1  0.79863005  0.57401372  0.93754318  1
  Te  Te123  1  0.73001972  0.90525662  0.23571579  1
  Te  Te124  1  0.75695841  0.93135201  0.58927670  1
  Te  Te125  1  0.74984005  0.89525215  0.92602912  1
  Te  Te126  1  0.26188856  0.25776778  0.05953453  1
  Te  Te127  1  0.23960950  0.27019116  0.46058971  1
  Te  Te128  1  0.26710202  0.27246266  0.72727942  1
  Te  Te129  1  0.26004573  0.59694994  0.06504149  1
  Te  Te130  1  0.26629616  0.57673854  0.43650792  1
  Te  Te131  1  0.25254543  0.56381047  0.75873856  1
  Te  Te132  1  0.23013969  0.91631496  0.10657742  1
  Te  Te133  1  0.23014911  0.90200466  0.40774345  1
  Te  Te134  1  0.25461904  0.89858450  0.74845486  1
  Te  Te135  1  0.59800089  0.26998139  0.06731401  1
  Te  Te136  1  0.57390577  0.27033329  0.39935747  1
  Te  Te137  1  0.57225847  0.25382370  0.73730557  1
  Te  Te138  1  0.62525723  0.60971734  0.07320995  1
  Te  Te139  1  0.57009682  0.59543073  0.42374818  1
  Te  Te140  1  0.59773593  0.57587985  0.77732342  1
  Te  Te141  1  0.58727932  0.86451841  0.07792572  1
  Te  Te142  1  0.57767787  0.93822891  0.42379748  1
  Te  Te143  1  0.59748880  0.89916809  0.75236123  1
  Te  Te144  1  0.94394327  0.25250689  0.09754653  1
  Te  Te145  1  0.91384110  0.25296397  0.40822091  1
  Te  Te146  1  0.90505135  0.26808850  0.72591049  1
  Te  Te147  1  0.86603934  0.59707023  0.06854476  1
  Te  Te148  1  0.93089539  0.58471416  0.39886571  1
  Te  Te149  1  0.94073075  0.60978575  0.78895023  1
  Te  Te150  1  0.90751136  0.91212647  0.07170476  1
  Te  Te151  1  0.90767513  0.89935506  0.42607860  1
  Te  Te152  1  0.91494360  0.92174689  0.75142272  1
  Te  Te153  1  0.23769305  0.07474323  0.25132469  1
  Te  Te154  1  0.24229747  0.07984340  0.56565635  1
  Te  Te155  1  0.26051601  0.06638061  0.91378973  1
  Te  Te156  1  0.26095788  0.41086002  0.24580431  1
  Te  Te157  1  0.26000133  0.38748042  0.56478657  1
  Te  Te158  1  0.27481579  0.42130199  0.90500946  1
  Te  Te159  1  0.24269160  0.73957982  0.26601674  1
  Te  Te160  1  0.24140676  0.75630838  0.59288770  1
  Te  Te161  1  0.24089757  0.74297889  0.93529164  1
  Te  Te162  1  0.58773404  0.06734792  0.25068293  1
  Te  Te163  1  0.56819674  0.09318794  0.57362624  1
  Te  Te164  1  0.58480680  0.06736377  0.89813219  1
  Te  Te165  1  0.60259475  0.44840960  0.23899624  1
  Te  Te166  1  0.58107075  0.41071444  0.58657399  1
  Te  Te167  1  0.60559530  0.42484146  0.93814907  1
  Te  Te168  1  0.57658254  0.75683346  0.25070203  1
  Te  Te169  1  0.56035844  0.74864388  0.58387343  1
  Te  Te170  1  0.55841268  0.68502002  0.92273709  1
  Te  Te171  1  0.90977158  0.08518266  0.26148707  1
  Te  Te172  1  0.91667950  0.10299923  0.59064107  1
  Te  Te173  1  0.91502061  0.07476003  0.91376385  1
  Te  Te174  1  0.90047912  0.40851430  0.21710105  1
  Te  Te175  1  0.91093709  0.43254232  0.59102579  1
  Te  Te176  1  0.90902815  0.46399765  0.93053142  1
  Te  Te177  1  0.90859298  0.72298706  0.23968083  1
  Te  Te178  1  0.93362837  0.73772618  0.60260537  1
  Te  Te179  1  0.91606307  0.72051957  0.89955688  1
