# generated using pymatgen
data_In2Te3
_symmetry_space_group_name_H-M   'P 1'
_cell_length_a   18.78318607
_cell_length_b   18.77737328
_cell_length_c   18.77781531
_cell_angle_alpha   90.06020487
_cell_angle_beta   90.05587634
_cell_angle_gamma   89.94433915
_symmetry_Int_Tables_number   1
_chemical_formula_structural   In2Te3
_chemical_formula_sum   'In72 Te108'
_cell_volume   6622.90480608
_cell_formula_units_Z   36
loop_
 _symmetry_equiv_pos_site_id
 _symmetry_equiv_pos_as_xyz
  1  'x, y, z'
loop_
 _atom_site_type_symbol
 _atom_site_label
 _atom_site_symmetry_multiplicity
 _atom_site_fract_x
 _atom_site_fract_y
 _atom_site_fract_z
 _atom_site_occupancy
  In  In0  1  -0.01940044  0.34213946  0.33224646  1
  In  In1  1  0.84418034  0.00596381  0.84045887  1
  In  In2  1  0.81873520  0.33535299  0.82820503  1
  In  In3  1  0.50767255  0.64274611  0.83630284  1
  In  In4  1  0.00655659  0.67523603  0.31673409  1
  In  In5  1  0.33964989  0.18183339  0.84971913  1
  In  In6  1  -0.01772851  0.82223964  0.50921202  1
  In  In7  1  0.83687728  0.82369883  0.33832219  1
  In  In8  1  0.83163302  0.17160974  -0.01441434  1
  In  In9  1  0.33463650  0.35797785  0.34001173  1
  In  In10  1  -0.01678917  0.33347567  0.66962415  1
  In  In11  1  0.16794555  0.17062525  0.32396302  1
  In  In12  1  0.15411354  0.50785356  0.33669595  1
  In  In13  1  0.16803481  0.51103553  -0.00308857  1
  In  In14  1  0.65431179  0.81821388  0.16455122  1
  In  In15  1  0.83463246  0.51306871  0.66536951  1
  In  In16  1  0.49674014  0.81041273  0.00081738  1
  In  In17  1  0.00119509  -0.00475229  0.66067562  1
  In  In18  1  0.81854339  0.18081926  0.66652107  1
  In  In19  1  0.68125942  0.81722400  0.48367645  1
  In  In20  1  0.34962762  0.16928203  0.50213057  1
  In  In21  1  0.16812997  0.67591238  0.83636091  1
  In  In22  1  0.67218214  0.50238097  0.83164827  1
  In  In23  1  0.32071577  0.51185091  0.16277517  1
  In  In24  1  0.51667651  0.49528321  0.66729474  1
  In  In25  1  0.32121594  -0.02127912  0.02824778  1
  In  In26  1  0.68029481  0.19312962  0.15859157  1
  In  In27  1  0.33327947  0.51108314  0.49459073  1
  In  In28  1  -0.01079187  0.16496421  0.15226771  1
  In  In29  1  0.50167710  0.67129385  0.17300343  1
  In  In30  1  0.16275247  0.15057000  0.01146084  1
  In  In31  1  0.68078783  0.00934201  0.65132247  1
  In  In32  1  0.54953611  0.19750701  0.68439943  1
  In  In33  1  0.46131924  0.00561959  0.16914477  1
  In  In34  1  -0.00756581  0.17214934  0.49291143  1
  In  In35  1  -0.00481774  0.32942022  0.00661873  1
  In  In36  1  0.68314869  0.33513894  0.35110022  1
  In  In37  1  0.68052908  0.66155977  -0.01206480  1
  In  In38  1  0.15035682  0.83234670  0.67689977  1
  In  In39  1  0.51331934  0.15901960  0.33505553  1
  In  In40  1  0.80875978  0.80196628  0.66775775  1
  In  In41  1  0.14856255  0.65418485  0.49597926  1
  In  In42  1  0.66741854  0.16457793  0.50678836  1
  In  In43  1  0.31818452  -0.01729346  0.31289536  1
  In  In44  1  0.51159957  0.49227753  0.33054613  1
  In  In45  1  0.16907412  0.33365813  0.86314191  1
  In  In46  1  0.68120865  0.00364103  0.34547526  1
  In  In47  1  0.34226223  0.65520193  0.66967911  1
  In  In48  1  0.00540056  -0.02031283  0.31592978  1
  In  In49  1  0.17177013  0.15289269  0.66018361  1
  In  In50  1  0.87689828  -0.02587587  0.14782778  1
  In  In51  1  -0.00941522  0.49680014  0.17699975  1
  In  In52  1  0.51692787  0.00216254  0.81298058  1
  In  In53  1  0.66742174  0.49872214  0.50286396  1
  In  In54  1  0.35253251  0.31384558  0.00005603  1
  In  In55  1  0.49231682  0.50491563  -0.01745438  1
  In  In56  1  0.32516459  0.15392866  0.14948113  1
  In  In57  1  0.00083149  0.82813094  0.85925934  1
  In  In58  1  0.51310876  0.82331581  0.33690689  1
  In  In59  1  0.81397223  0.50490510  0.01929723  1
  In  In60  1  0.33225999  0.00651599  0.65557643  1
  In  In61  1  0.17191629  0.51692514  0.65539199  1
  In  In62  1  -0.02008342  0.51079112  0.47944490  1
  In  In63  1  0.33148484  0.83423741  0.47538377  1
  In  In64  1  0.52851557  0.83368181  0.65506641  1
  In  In65  1  0.14103963  -0.02226627  0.83925459  1
  In  In66  1  0.67639983  -0.00510540  -0.01559707  1
  In  In67  1  0.51530494  0.32361184  0.19357488  1
  In  In68  1  0.82994073  0.66312146  0.17030921  1
  In  In69  1  0.34806307  0.36469239  0.67259005  1
  In  In70  1  0.33158313  0.81163526  0.86429765  1
  In  In71  1  -0.00108957  0.52065887  0.82672584  1
  Te  Te72  1  0.07629992  0.06162093  0.09128133  1
  Te  Te73  1  0.08026954  0.07925616  0.40845695  1
  Te  Te74  1  0.07340098  0.08826178  0.75765897  1
  Te  Te75  1  0.08860056  0.41635642  0.08812957  1
  Te  Te76  1  0.08297147  0.41052812  0.42747470  1
  Te  Te77  1  0.08971439  0.41740408  0.75596572  1
  Te  Te78  1  0.09181118  0.75683711  0.13835793  1
  Te  Te79  1  0.08702863  0.76463255  0.41151940  1
  Te  Te80  1  0.05983052  0.73567480  0.74621418  1
  Te  Te81  1  0.42444118  0.09563932  0.05131150  1
  Te  Te82  1  0.41312046  0.06848211  0.40526969  1
  Te  Te83  1  0.41801817  0.09869387  0.74229416  1
  Te  Te84  1  0.42397974  0.41528959  0.10057326  1
  Te  Te85  1  0.43580014  0.41194246  0.43845507  1
  Te  Te86  1  0.42875999  0.43702975  0.77167665  1
  Te  Te87  1  0.40049619  0.74021965  0.08707325  1
  Te  Te88  1  0.42407804  0.73629362  0.41800458  1
  Te  Te89  1  0.42381589  0.75812829  0.75148594  1
  Te  Te90  1  0.76232880  0.07098609  0.08789115  1
  Te  Te91  1  0.76648828  0.09815563  0.41855986  1
  Te  Te92  1  0.74168400  0.09227781  0.76410597  1
  Te  Te93  1  0.73733883  0.42184058  0.11343900  1
  Te  Te94  1  0.77028031  0.44001437  0.40946704  1
  Te  Te95  1  0.73648871  0.41095985  0.72584321  1
  Te  Te96  1  0.76129585  0.76174895  0.07211957  1
  Te  Te97  1  0.76368068  0.71589246  0.40782669  1
  Te  Te98  1  0.72474939  0.76845503  0.78283571  1
  Te  Te99  1  0.07301356  0.25771344  0.24189351  1
  Te  Te100  1  0.08432612  0.25413314  0.58519062  1
  Te  Te101  1  0.07120713  0.23106187  0.91784274  1
  Te  Te102  1  0.10044708  0.59627300  0.22420721  1
  Te  Te103  1  0.05282531  0.58735939  0.59432028  1
  Te  Te104  1  0.06719602  0.60644623  0.93207488  1
  Te  Te105  1  0.08082376  0.88983180  0.22070926  1
  Te  Te106  1  0.09169055  0.91842059  0.56659545  1
  Te  Te107  1  0.08872509  0.90317405  0.95679931  1
  Te  Te108  1  0.39903176  0.23638552  0.25704694  1
  Te  Te109  1  0.42795588  0.25551982  0.60155010  1
  Te  Te110  1  0.44989322  0.27102486  0.89404047  1
  Te  Te111  1  0.41036585  0.58626622  0.26215066  1
  Te  Te112  1  0.43796964  0.59019168  0.57278252  1
  Te  Te113  1  0.40300019  0.61508744  0.93689737  1
  Te  Te114  1  0.40914796  0.88135361  0.24039580  1
  Te  Te115  1  0.42058750  0.91128797  0.57652153  1
  Te  Te116  1  0.42247512  0.92536438  0.91255754  1
  Te  Te117  1  0.76225582  0.23574325  0.27274182  1
  Te  Te118  1  0.73357664  0.27231542  0.58694547  1
  Te  Te119  1  0.72679623  0.25801882  0.91883088  1
  Te  Te120  1  0.74863436  0.54446107  0.20736339  1
  Te  Te121  1  0.74326328  0.59986978  0.58625805  1
  Te  Te122  1  0.78114648  0.59063142  0.89580694  1
  Te  Te123  1  0.75044540  0.91339798  0.24075874  1
  Te  Te124  1  0.76566659  0.91381533  0.56994817  1
  Te  Te125  1  0.76303131  0.90005556  0.90934680  1
  Te  Te126  1  0.23656191  0.26119494  0.08667329  1
  Te  Te127  1  0.25213165  0.25593653  0.42010978  1
  Te  Te128  1  0.24754122  0.25701676  0.74706023  1
  Te  Te129  1  0.24766373  0.60762644  0.07717618  1
  Te  Te130  1  0.25602709  0.60318678  0.39970676  1
  Te  Te131  1  0.25906171  0.57233095  0.76716650  1
  Te  Te132  1  0.24808899  0.88544519  0.11421033  1
  Te  Te133  1  0.22686725  0.90813064  0.40316551  1
  Te  Te134  1  0.25806992  0.91222279  0.75296302  1
  Te  Te135  1  0.57198645  0.25032221  0.07845817  1
  Te  Te136  1  0.57317446  0.26052467  0.42740965  1
  Te  Te137  1  0.60857860  0.26328096  0.80104800  1
  Te  Te138  1  0.58418334  0.58562951  0.07712403  1
  Te  Te139  1  0.58848504  0.58826860  0.41159653  1
  Te  Te140  1  0.60886223  0.60082728  0.73187716  1
  Te  Te141  1  0.56935191  0.91775261  0.08511088  1
  Te  Te142  1  0.58202060  0.92469826  0.42831542  1
  Te  Te143  1  0.62190461  0.90767613  0.75205579  1
  Te  Te144  1  0.88859854  0.26716761  0.09395345  1
  Te  Te145  1  0.89592110  0.25541419  0.41808825  1
  Te  Te146  1  0.91991418  0.23687839  0.76839332  1
  Te  Te147  1  0.92729637  0.59079082  0.07445546  1
  Te  Te148  1  0.90028380  0.60169298  0.39261339  1
  Te  Te149  1  0.89735761  0.60768081  0.76371447  1
  Te  Te150  1  0.92780377  0.89092235  0.03237183  1
  Te  Te151  1  0.90922255  0.92693566  0.42342512  1
  Te  Te152  1  0.91767604  0.90009849  0.74403971  1
  Te  Te153  1  0.22519396  0.06828170  0.22546111  1
  Te  Te154  1  0.24108414  0.07077551  0.55201549  1
  Te  Te155  1  0.25052864  0.07185167  0.90999305  1
  Te  Te156  1  0.23285293  0.41416106  0.24347568  1
  Te  Te157  1  0.24344695  0.41310511  0.57071248  1
  Te  Te158  1  0.27340870  0.42350348  0.92418480  1
  Te  Te159  1  0.20715298  0.78646345  0.22876785  1
  Te  Te160  1  0.24309769  0.74081051  0.59042250  1
  Te  Te161  1  0.21613656  0.76795667  0.94392565  1
  Te  Te162  1  0.58612806  0.07130737  0.23401606  1
  Te  Te163  1  0.56479477  0.08103812  0.58362510  1
  Te  Te164  1  0.58656345  0.08709091  0.91194780  1
  Te  Te165  1  0.61520055  0.42989130  0.23685649  1
  Te  Te166  1  0.59616514  0.39764608  0.58857361  1
  Te  Te167  1  0.59709219  0.41665787  0.92610784  1
  Te  Te168  1  0.60966262  0.72103409  0.27180593  1
  Te  Te169  1  0.60071454  0.73311586  0.57613143  1
  Te  Te170  1  0.59795264  0.75727605  0.89884325  1
  Te  Te171  1  0.90956453  0.08120242  0.25310070  1
  Te  Te172  1  0.90495288  0.08404126  0.58369648  1
  Te  Te173  1  0.93323803  0.07663264  0.93537760  1
  Te  Te174  1  0.88470321  0.43426358  0.26171274  1
  Te  Te175  1  0.90202973  0.41187114  0.56955459  1
  Te  Te176  1  0.91467152  0.42230857  0.91569563  1
  Te  Te177  1  0.92536029  0.77069469  0.22558988  1
  Te  Te178  1  0.89625314  0.72368944  0.57720695  1
  Te  Te179  1  0.90730484  0.76235897  0.95273967  1
