# generated using pymatgen
data_In2Te3
_symmetry_space_group_name_H-M   'P 1'
_cell_length_a   18.76891703
_cell_length_b   18.76587802
_cell_length_c   18.76199666
_cell_angle_alpha   89.96455557
_cell_angle_beta   89.97256897
_cell_angle_gamma   90.08523048
_symmetry_Int_Tables_number   1
_chemical_formula_structural   In2Te3
_chemical_formula_sum   'In72 Te108'
_cell_volume   6608.25121255
_cell_formula_units_Z   36
loop_
 _symmetry_equiv_pos_site_id
 _symmetry_equiv_pos_as_xyz
  1  'x, y, z'
loop_
 _atom_site_type_symbol
 _atom_site_label
 _atom_site_symmetry_multiplicity
 _atom_site_fract_x
 _atom_site_fract_y
 _atom_site_fract_z
 _atom_site_occupancy
  In  In0  1  0.33257047  0.00666301  0.67414371  1
  In  In1  1  0.17363026  0.65202118  0.17837248  1
  In  In2  1  0.85276861  0.49154435  -0.00777690  1
  In  In3  1  0.33311757  0.18709085  0.16463499  1
  In  In4  1  0.00064566  0.67044451  -0.01862079  1
  In  In5  1  0.65774988  0.66214716  0.33323169  1
  In  In6  1  0.01277750  0.15734707  0.82967074  1
  In  In7  1  -0.00227241  0.00172951  0.35212896  1
  In  In8  1  -0.00753017  0.66434961  0.66766830  1
  In  In9  1  -0.01751942  0.83303483  0.15021392  1
  In  In10  1  0.15561511  0.67196655  0.52922287  1
  In  In11  1  0.67005748  0.32417980  -0.00155207  1
  In  In12  1  0.53266837  -0.01245769  0.16233342  1
  In  In13  1  0.33045212  0.33834505  0.32885690  1
  In  In14  1  0.34905366  0.17858604  0.51797531  1
  In  In15  1  0.65951214  -0.00393625  0.67507373  1
  In  In16  1  0.15273065  0.03042652  0.15181320  1
  In  In17  1  0.66284042  0.84937227  0.51151792  1
  In  In18  1  0.83905912  0.33820673  0.83984738  1
  In  In19  1  0.15441075  0.84718816  0.67204005  1
  In  In20  1  0.17555901  0.48189522  0.32335802  1
  In  In21  1  0.81839745  0.67991088  0.14859397  1
  In  In22  1  0.50044608  0.04467646  0.51289122  1
  In  In23  1  0.65129665  0.49189449  0.16832170  1
  In  In24  1  0.81804464  0.15893451  0.33241788  1
  In  In25  1  0.00108271  0.16359775  0.52249155  1
  In  In26  1  0.83205766  0.35899022  0.51067569  1
  In  In27  1  0.34727504  0.65473419  0.33824380  1
  In  In28  1  0.83094965  -0.01181746  0.15429545  1
  In  In29  1  0.49543558  0.49009233  0.65736789  1
  In  In30  1  0.83776069  0.01962978  0.49197014  1
  In  In31  1  0.00690516  0.18252330  0.14535026  1
  In  In32  1  0.13818564  0.46648879  0.02988737  1
  In  In33  1  0.82188243  0.15763616  0.66872136  1
  In  In34  1  0.50584437  0.48855904  0.32780401  1
  In  In35  1  0.66645603  0.67568100  0.00629567  1
  In  In36  1  0.49913842  0.82218299  0.67254943  1
  In  In37  1  0.67702086  0.48776313  0.83427263  1
  In  In38  1  0.84570160  0.69977483  0.82121301  1
  In  In39  1  0.84300270  0.46819018  0.33701152  1
  In  In40  1  -0.00931436  0.51289808  0.52055691  1
  In  In41  1  0.50170075  0.01620030  0.82492508  1
  In  In42  1  0.34384370  0.84443370  0.14001503  1
  In  In43  1  0.34845042  0.02092544  0.35649406  1
  In  In44  1  0.51557120  0.82863000  -0.00870987  1
  In  In45  1  0.51811092  0.82007874  0.32268933  1
  In  In46  1  0.68018965  0.17878961  0.16228525  1
  In  In47  1  0.50551814  0.15266064  -0.01068187  1
  In  In48  1  0.16647741  0.32662450  0.51713201  1
  In  In49  1  0.00084703  0.31794306  0.32004218  1
  In  In50  1  0.33568967  0.82608162  0.81312550  1
  In  In51  1  0.65293006  0.47508654  0.49915054  1
  In  In52  1  0.31736635  0.82389753  0.49664261  1
  In  In53  1  0.34693235  0.66683892  -0.01633412  1
  In  In54  1  0.83935116  0.17060717  -0.00657301  1
  In  In55  1  0.68574485  0.00610932  0.32432680  1
  In  In56  1  0.13532330  0.33700476  0.80602298  1
  In  In57  1  0.02702518  0.68081912  0.33072022  1
  In  In58  1  0.13957651  0.81353778  0.34187942  1
  In  In59  1  0.84302991  0.48848113  0.68480879  1
  In  In60  1  0.14714170  0.00487087  0.52323337  1
  In  In61  1  0.33698847  0.48699563  0.50856851  1
  In  In62  1  0.30424956  0.17063967  0.82547311  1
  In  In63  1  0.52067655  0.31658917  0.81059439  1
  In  In64  1  0.32757335  0.33909921  0.01166995  1
  In  In65  1  0.31398753  0.02485359  -0.01975746  1
  In  In66  1  0.68120702  0.66410853  0.67908011  1
  In  In67  1  0.34614762  0.48995730  0.18070369  1
  In  In68  1  0.34145254  0.50447476  0.84118263  1
  In  In69  1  0.17854479  0.66047615  0.83137759  1
  In  In70  1  0.11532026  0.86543683  -0.03518403  1
  In  In71  1  0.83373424  0.68644657  0.50914762  1
  Te  Te72  1  0.05517039  0.07692452  0.05099511  1
  Te  Te73  1  0.09261461  0.10090185  0.41530136  1
  Te  Te74  1  0.09792081  0.05716572  0.75807400  1
  Te  Te75  1  0.03743474  0.38892990  0.10527239  1
  Te  Te76  1  0.07418548  0.41975479  0.42250106  1
  Te  Te77  1  0.06109538  0.43394499  0.72370758  1
  Te  Te78  1  0.09405752  0.74489026  0.08613071  1
  Te  Te79  1  0.05492144  0.76195870  0.45969842  1
  Te  Te80  1  0.07620287  0.75129199  0.76380626  1
  Te  Te81  1  0.41485757  0.06683694  0.08878540  1
  Te  Te82  1  0.44503948  0.13416575  0.39430828  1
  Te  Te83  1  0.42084940  0.11291538  0.73895803  1
  Te  Te84  1  0.42966997  0.41809026  0.08328571  1
  Te  Te85  1  0.43146709  0.39852100  0.42885375  1
  Te  Te86  1  0.40972191  0.40028383  0.74921752  1
  Te  Te87  1  0.43588953  0.73768149  0.08855841  1
  Te  Te88  1  0.42970349  0.74736109  0.42776757  1
  Te  Te89  1  0.42565948  0.72520591  0.75753444  1
  Te  Te90  1  0.74152813  0.07731881  0.06746162  1
  Te  Te91  1  0.72198116  0.10436233  0.43769767  1
  Te  Te92  1  0.75393024  0.06767225  0.77153582  1
  Te  Te93  1  0.75667525  0.41534335  0.08356067  1
  Te  Te94  1  0.72793355  0.38723735  0.39929206  1
  Te  Te95  1  0.73708942  0.39015497  0.73390485  1
  Te  Te96  1  0.76135312  0.77992802  0.05684114  1
  Te  Te97  1  0.74332636  0.76225611  0.41306574  1
  Te  Te98  1  0.74947702  0.77950307  0.74109396  1
  Te  Te99  1  0.09989938  0.23633694  0.24772430  1
  Te  Te100  1  0.08978103  0.24066205  0.61206297  1
  Te  Te101  1  0.07960301  0.25741697  0.91833104  1
  Te  Te102  1  0.07042942  0.56165758  0.24399256  1
  Te  Te103  1  0.10278229  0.55827579  0.61730261  1
  Te  Te104  1  0.09397946  0.56689282  0.92061725  1
  Te  Te105  1  0.08162239  0.91983639  0.24337597  1
  Te  Te106  1  0.05014847  0.91709326  0.59183414  1
  Te  Te107  1  0.04924444  0.94600762  0.84753184  1
  Te  Te108  1  0.42932062  0.27054366  0.24000312  1
  Te  Te109  1  0.44228289  0.27668534  0.58139041  1
  Te  Te110  1  0.41152230  0.24618422  0.91355362  1
  Te  Te111  1  0.44289930  0.59620900  0.23740767  1
  Te  Te112  1  0.41953253  0.58860389  0.57539661  1
  Te  Te113  1  0.44431391  0.57647864  0.92147665  1
  Te  Te114  1  0.41390261  0.92042986  0.25702525  1
  Te  Te115  1  0.41392909  0.91996713  0.57810316  1
  Te  Te116  1  0.40879748  0.92175837  0.91686716  1
  Te  Te117  1  0.76765146  0.26548346  0.24370290  1
  Te  Te118  1  0.75363125  0.25231075  0.57639781  1
  Te  Te119  1  0.73825838  0.23682286  0.89647537  1
  Te  Te120  1  0.75859112  0.57379962  0.25527428  1
  Te  Te121  1  0.75963812  0.56890664  0.57744319  1
  Te  Te122  1  0.76612119  0.58826948  0.90750860  1
  Te  Te123  1  0.75142491  0.90178345  0.24488598  1
  Te  Te124  1  0.76616241  0.92436630  0.59313742  1
  Te  Te125  1  0.79392501  0.94942899  0.86937868  1
  Te  Te126  1  0.23466323  0.23733795  0.06654554  1
  Te  Te127  1  0.25068026  0.24421486  0.41882519  1
  Te  Te128  1  0.24381853  0.26709021  0.72918371  1
  Te  Te129  1  0.25507415  0.57297177  0.07661983  1
  Te  Te130  1  0.23103990  0.59253656  0.41755970  1
  Te  Te131  1  0.26388023  0.58254492  0.74084607  1
  Te  Te132  1  0.23116418  0.92164753  0.07180554  1
  Te  Te133  1  0.23729458  0.92628161  0.41610638  1
  Te  Te134  1  0.23844073  0.93697276  0.77034081  1
  Te  Te135  1  0.56837254  0.25198829  0.08670833  1
  Te  Te136  1  0.53517126  0.24119092  0.47259791  1
  Te  Te137  1  0.58360006  0.20031759  0.74789333  1
  Te  Te138  1  0.57914772  0.57113729  0.06673153  1
  Te  Te139  1  0.57047804  0.58351077  0.43082043  1
  Te  Te140  1  0.58221438  0.57676821  0.75438283  1
  Te  Te141  1  0.61352050  0.91465135  0.06366475  1
  Te  Te142  1  0.57315751  0.93289761  0.41886150  1
  Te  Te143  1  0.58666660  0.90038627  0.76986268  1
  Te  Te144  1  0.91741425  0.27559678  0.06838040  1
  Te  Te145  1  0.91177340  0.24793318  0.42723701  1
  Te  Te146  1  0.91891461  0.24715153  0.74617136  1
  Te  Te147  1  0.92487623  0.58925815  0.08658133  1
  Te  Te148  1  0.91175361  0.58575202  0.41060777  1
  Te  Te149  1  0.92683480  0.57604414  0.77519798  1
  Te  Te150  1  0.93174688  0.93563131  0.05668554  1
  Te  Te151  1  0.89657366  0.91214339  0.40878946  1
  Te  Te152  1  0.90541600  0.88555932  0.79811468  1
  Te  Te153  1  0.25493556  0.08684424  0.25341063  1
  Te  Te154  1  0.24088170  0.10014208  0.59661613  1
  Te  Te155  1  0.20614098  0.10612121  0.91869156  1
  Te  Te156  1  0.23413979  0.39123375  0.21844930  1
  Te  Te157  1  0.25797750  0.40590467  0.60342229  1
  Te  Te158  1  0.23535872  0.41726985  0.91438304  1
  Te  Te159  1  0.26191090  0.75613435  0.25433665  1
  Te  Te160  1  0.25855618  0.74696645  0.61346669  1
  Te  Te161  1  0.24330788  0.76532333  0.92704389  1
  Te  Te162  1  0.58530689  0.09778090  0.25321945  1
  Te  Te163  1  0.58849839  0.11630992  0.61430386  1
  Te  Te164  1  0.60307685  0.06716679  0.92016421  1
  Te  Te165  1  0.58485548  0.38869082  0.25325505  1
  Te  Te166  1  0.58902888  0.38669603  0.60087977  1
  Te  Te167  1  0.57363902  0.41132804  0.91747707  1
  Te  Te168  1  0.60569243  0.75167255  0.22709368  1
  Te  Te169  1  0.58663536  0.73667611  0.58054952  1
  Te  Te170  1  0.59310961  0.74577593  0.89729588  1
  Te  Te171  1  0.91952192  0.08408504  0.24510571  1
  Te  Te172  1  0.92838008  0.06198575  0.61065303  1
  Te  Te173  1  0.90364384  0.07372430  0.89774083  1
  Te  Te174  1  0.92610888  0.40987751  0.22619531  1
  Te  Te175  1  0.94573945  0.39437744  0.61102199  1
  Te  Te176  1  0.94651471  0.41027247  0.91162872  1
  Te  Te177  1  0.91222275  0.74841017  0.25506610  1
  Te  Te178  1  0.90530658  0.76876446  0.60817239  1
  Te  Te179  1  0.91050400  0.78028790  0.93202318  1
