# generated using pymatgen
data_In2Te3
_symmetry_space_group_name_H-M   'P 1'
_cell_length_a   18.76677933
_cell_length_b   18.75559293
_cell_length_c   18.76682372
_cell_angle_alpha   90.01295793
_cell_angle_beta   89.92497850
_cell_angle_gamma   89.98197748
_symmetry_Int_Tables_number   1
_chemical_formula_structural   In2Te3
_chemical_formula_sum   'In72 Te108'
_cell_volume   6605.57937003
_cell_formula_units_Z   36
loop_
 _symmetry_equiv_pos_site_id
 _symmetry_equiv_pos_as_xyz
  1  'x, y, z'
loop_
 _atom_site_type_symbol
 _atom_site_label
 _atom_site_symmetry_multiplicity
 _atom_site_fract_x
 _atom_site_fract_y
 _atom_site_fract_z
 _atom_site_occupancy
  In  In0  1  0.51814677  0.19643591  0.02082057  1
  In  In1  1  0.85990524  0.65900978  0.49760769  1
  In  In2  1  0.84246506  0.18458951  0.34400052  1
  In  In3  1  0.66143043  0.33317640  0.32227717  1
  In  In4  1  0.33583274  0.81585407  0.49689343  1
  In  In5  1  -0.00513793  0.34060838  0.66939201  1
  In  In6  1  0.50890673  0.35270581  0.84340960  1
  In  In7  1  0.33371909  0.17935095  0.83879323  1
  In  In8  1  0.68234750  0.00529081  0.67665688  1
  In  In9  1  0.68821811  0.65303088  0.32801883  1
  In  In10  1  0.15840718  0.65560663  0.84318174  1
  In  In11  1  0.15910069  0.17654964  -0.01023746  1
  In  In12  1  0.81510865  0.31733229  0.83524188  1
  In  In13  1  0.12501996  0.03146407  0.47879691  1
  In  In14  1  0.68723374  0.20090910  0.50529865  1
  In  In15  1  0.17428403  0.85087083  0.65301407  1
  In  In16  1  0.48569699  0.01978068  0.17160518  1
  In  In17  1  0.47524301  0.65792818  0.49993922  1
  In  In18  1  0.66874734  0.33324789  0.66684101  1
  In  In19  1  0.51693207  -0.00297469  0.49710038  1
  In  In20  1  0.81263439  0.02001386  0.16207441  1
  In  In21  1  0.64698109  0.66586542  -0.00834577  1
  In  In22  1  0.17244122  0.81560191  0.01386826  1
  In  In23  1  0.17396174  -0.00552599  0.80368359  1
  In  In24  1  0.14878958  0.16848086  0.67313783  1
  In  In25  1  0.31373113  -0.00438682  0.30492593  1
  In  In26  1  0.00756843  0.65272167  0.63563676  1
  In  In27  1  0.29883229  0.63395630  0.33892361  1
  In  In28  1  0.16588231  0.81501939  0.35183395  1
  In  In29  1  0.68718708  0.46881470  0.48281074  1
  In  In30  1  0.31358707  0.00333036  0.69372246  1
  In  In31  1  0.02499716  0.82710289  0.17358352  1
  In  In32  1  -0.01016389  0.18078551  0.17319215  1
  In  In33  1  0.48304582  0.81277963  0.67602982  1
  In  In34  1  0.00705144  0.50014307  0.84467171  1
  In  In35  1  0.03140046  0.49174421  0.46183766  1
  In  In36  1  0.50262985  -0.01418274  0.85414721  1
  In  In37  1  0.85085773  0.64371201  0.17710382  1
  In  In38  1  0.17314973  -0.01197223  0.19849354  1
  In  In39  1  -0.00481240  0.01579752  -0.00706559  1
  In  In40  1  0.01249267  0.00772116  0.66295387  1
  In  In41  1  0.86497940  0.35736239  0.16676532  1
  In  In42  1  0.82751863  0.69042088  0.84359398  1
  In  In43  1  0.67229380  0.65732590  0.69776560  1
  In  In44  1  0.68737585  0.01604234  0.00957130  1
  In  In45  1  0.33658687  0.49736027  0.84879132  1
  In  In46  1  0.49186377  0.20608471  0.65762317  1
  In  In47  1  -0.00894162  0.82447802  0.83859653  1
  In  In48  1  0.16858083  0.34987013  0.85577164  1
  In  In49  1  0.47904734  0.33349039  0.49387040  1
  In  In50  1  0.67487857  0.84127189  0.50315205  1
  In  In51  1  0.88044410  -0.00112667  0.47752519  1
  In  In52  1  0.48459942  0.47832406  0.01257981  1
  In  In53  1  0.67829971  0.83691174  0.16538328  1
  In  In54  1  0.65458231  0.00602296  0.31991456  1
  In  In55  1  0.50310814  0.66222914  0.15785707  1
  In  In56  1  0.83590273  0.32086680  0.48553145  1
  In  In57  1  0.32877272  0.66580825  0.66968778  1
  In  In58  1  0.83327154  0.01450492  0.84794131  1
  In  In59  1  0.84740935  0.83215707  -0.01295778  1
  In  In60  1  0.14631545  0.35939935  0.15179734  1
  In  In61  1  0.48275326  0.16172284  0.28960650  1
  In  In62  1  0.33517365  0.82264501  0.16316819  1
  In  In63  1  0.48747157  0.52558875  0.68041637  1
  In  In64  1  0.83216918  0.48594819  0.67705816  1
  In  In65  1  0.31472188  0.17817271  0.47412451  1
  In  In66  1  0.03499203  0.65585518  0.31268293  1
  In  In67  1  0.49159406  0.82017934  -0.00239873  1
  In  In68  1  0.31975467  0.16642713  0.16243280  1
  In  In69  1  0.30314679  0.32415261  0.31910572  1
  In  In70  1  0.50424233  0.49016704  0.31088036  1
  In  In71  1  0.83920771  0.49769434  0.01377090  1
  Te  Te72  1  0.09031944  0.07878357  0.09831410  1
  Te  Te73  1  0.05698592  0.12473750  0.39009474  1
  Te  Te74  1  0.06399697  0.09698180  0.77804223  1
  Te  Te75  1  0.05811851  0.45005759  0.06969409  1
  Te  Te76  1  0.09217049  0.38727723  0.37144521  1
  Te  Te77  1  0.09553659  0.42841774  0.74314473  1
  Te  Te78  1  0.08577680  0.72244900  0.08985734  1
  Te  Te79  1  0.07993648  0.72788169  0.43479270  1
  Te  Te80  1  0.08274203  0.75280653  0.73876537  1
  Te  Te81  1  0.40735679  0.09036026  0.06378183  1
  Te  Te82  1  0.41895824  0.07888874  0.41005351  1
  Te  Te83  1  0.42721038  0.09159329  0.74724076  1
  Te  Te84  1  0.40951735  0.40339065  0.11468056  1
  Te  Te85  1  0.39974932  0.41901143  0.39857864  1
  Te  Te86  1  0.40903412  0.41028782  0.74262006  1
  Te  Te87  1  0.39550945  0.72058502  0.06645347  1
  Te  Te88  1  0.40773920  0.73670070  0.38849904  1
  Te  Te89  1  0.42106555  0.72079208  0.77263786  1
  Te  Te90  1  0.77452351  0.12999974  0.06255164  1
  Te  Te91  1  0.74209836  0.08329509  0.42056570  1
  Te  Te92  1  0.75363765  0.10355415  0.75865720  1
  Te  Te93  1  0.75139739  0.39646818  0.07733739  1
  Te  Te94  1  0.78625939  0.41942215  0.37184248  1
  Te  Te95  1  0.72612177  0.43121194  0.76894950  1
  Te  Te96  1  0.76244418  0.74047083  0.08039660  1
  Te  Te97  1  0.76465698  0.75072933  0.41689327  1
  Te  Te98  1  0.76266127  0.76670403  0.73514961  1
  Te  Te99  1  0.06908169  0.28038019  0.25799370  1
  Te  Te100  1  0.09144945  0.26834412  0.58084012  1
  Te  Te101  1  0.06455972  0.26376037  0.91869052  1
  Te  Te102  1  0.11243143  0.54044101  0.25023469  1
  Te  Te103  1  0.10654310  0.54979874  0.58337052  1
  Te  Te104  1  0.10995189  0.55154732  0.94181838  1
  Te  Te105  1  0.06531845  0.92546338  0.29131230  1
  Te  Te106  1  0.07119470  0.91115138  0.55862946  1
  Te  Te107  1  0.08646658  0.91636440  0.91885268  1
  Te  Te108  1  0.41618881  0.28199718  0.21550578  1
  Te  Te109  1  0.37337579  0.26963341  0.58513186  1
  Te  Te110  1  0.41417698  0.26807305  0.93141062  1
  Te  Te111  1  0.40282784  0.57885341  0.23796862  1
  Te  Te112  1  0.38458104  0.55581061  0.56632390  1
  Te  Te113  1  0.43234021  0.58435743  0.92150215  1
  Te  Te114  1  0.42620074  0.90476901  0.25429141  1
  Te  Te115  1  0.41403658  0.91852891  0.58335245  1
  Te  Te116  1  0.39882730  0.91288933  0.92689426  1
  Te  Te117  1  0.76099700  0.25223075  0.23885777  1
  Te  Te118  1  0.78366704  0.24832287  0.61242130  1
  Te  Te119  1  0.75829557  0.22081201  0.93462257  1
  Te  Te120  1  0.74211148  0.55797426  0.22913809  1
  Te  Te121  1  0.74618090  0.57894716  0.57956415  1
  Te  Te122  1  0.75171433  0.58186421  0.91695865  1
  Te  Te123  1  0.76414880  0.91354658  0.26535338  1
  Te  Te124  1  0.77012329  0.93285995  0.57561757  1
  Te  Te125  1  0.73945774  0.90935306  0.91205113  1
  Te  Te126  1  0.24588064  0.26796326  0.07516279  1
  Te  Te127  1  0.21548680  0.28485779  0.43617412  1
  Te  Te128  1  0.24287204  0.26180363  0.75059715  1
  Te  Te129  1  0.19426858  0.53514236  0.12231470  1
  Te  Te130  1  0.20138901  0.55600074  0.42899827  1
  Te  Te131  1  0.24227706  0.56875042  0.74955057  1
  Te  Te132  1  0.25615801  0.92611974  0.08442352  1
  Te  Te133  1  0.25073462  0.92678190  0.42680911  1
  Te  Te134  1  0.27085808  0.87753979  0.76895536  1
  Te  Te135  1  0.60071329  0.25579812  0.12648231  1
  Te  Te136  1  0.56694243  0.23975885  0.40753683  1
  Te  Te137  1  0.59076588  0.24609913  0.76516608  1
  Te  Te138  1  0.59932846  0.56665653  0.09367553  1
  Te  Te139  1  0.58189839  0.57509218  0.41984288  1
  Te  Te140  1  0.58002247  0.57930678  0.78211600  1
  Te  Te141  1  0.58051101  0.92362061  0.08557028  1
  Te  Te142  1  0.57705494  0.89714501  0.39883107  1
  Te  Te143  1  0.57948308  0.91345505  0.74283176  1
  Te  Te144  1  0.94742533  0.27713064  0.06969044  1
  Te  Te145  1  0.95145125  0.23205773  0.43716762  1
  Te  Te146  1  0.91780969  0.24645150  0.75334642  1
  Te  Te147  1  0.94928458  0.56024465  0.10019072  1
  Te  Te148  1  0.92189418  0.57308720  0.38752016  1
  Te  Te149  1  0.91727990  0.59047967  0.75087988  1
  Te  Te150  1  0.91825702  0.91975529  0.09340397  1
  Te  Te151  1  0.94668760  0.90075051  0.39354333  1
  Te  Te152  1  0.91700317  0.92539219  0.75316074  1
  Te  Te153  1  0.22685876  0.11685601  0.27349625  1
  Te  Te154  1  0.24370313  0.07819520  0.57812952  1
  Te  Te155  1  0.24747502  0.07793897  0.91279286  1
  Te  Te156  1  0.25133034  0.44120917  0.23483799  1
  Te  Te157  1  0.23630386  0.46652960  0.54346560  1
  Te  Te158  1  0.25581941  0.42410349  0.95040340  1
  Te  Te159  1  0.23590131  0.73609240  0.24118159  1
  Te  Te160  1  0.23198203  0.73372406  0.57118342  1
  Te  Te161  1  0.25508357  0.73036455  0.92578128  1
  Te  Te162  1  0.60827753  0.10752995  0.21273159  1
  Te  Te163  1  0.58571890  0.10314238  0.58384677  1
  Te  Te164  1  0.58557511  0.09218056  0.92379245  1
  Te  Te165  1  0.58086751  0.40211878  0.21568553  1
  Te  Te166  1  0.57360746  0.42051004  0.58405137  1
  Te  Te167  1  0.59782607  0.40534264  0.94844498  1
  Te  Te168  1  0.59083004  0.74497217  0.25135966  1
  Te  Te169  1  0.57901268  0.74052384  0.57833875  1
  Te  Te170  1  0.59051161  0.76704330  0.90112044  1
  Te  Te171  1  0.91541181  0.07770252  0.25796678  1
  Te  Te172  1  0.92716183  0.09460269  0.57841486  1
  Te  Te173  1  0.90031678  0.11726173  0.93726827  1
  Te  Te174  1  0.91993223  0.42404062  0.28784170  1
  Te  Te175  1  0.91725765  0.43511512  0.56056036  1
  Te  Te176  1  0.91408850  0.40448523  0.91558467  1
  Te  Te177  1  0.92156488  0.75093026  0.25802103  1
  Te  Te178  1  0.91538028  0.75885933  0.59129421  1
  Te  Te179  1  0.94405666  0.72147112  0.94123536  1
