# generated using pymatgen
data_In2Te3
_symmetry_space_group_name_H-M   'P 1'
_cell_length_a   18.80230387
_cell_length_b   18.78659387
_cell_length_c   18.78994395
_cell_angle_alpha   90.03500033
_cell_angle_beta   90.13852657
_cell_angle_gamma   89.90944401
_symmetry_Int_Tables_number   1
_chemical_formula_structural   In2Te3
_chemical_formula_sum   'In72 Te108'
_cell_volume   6637.16641541
_cell_formula_units_Z   36
loop_
 _symmetry_equiv_pos_site_id
 _symmetry_equiv_pos_as_xyz
  1  'x, y, z'
loop_
 _atom_site_type_symbol
 _atom_site_label
 _atom_site_symmetry_multiplicity
 _atom_site_fract_x
 _atom_site_fract_y
 _atom_site_fract_z
 _atom_site_occupancy
  In  In0  1  0.35421837  0.66621590  -0.01110117  1
  In  In1  1  0.15507304  0.33640146  0.17218747  1
  In  In2  1  0.68711391  0.33430634  0.04065614  1
  In  In3  1  0.67646976  0.82973706  0.86863783  1
  In  In4  1  0.32113904  0.00115477  -0.00015066  1
  In  In5  1  0.82578002  0.66000897  0.22392818  1
  In  In6  1  0.49760819  0.34059186  0.17379058  1
  In  In7  1  0.81247045  -0.02977189  0.20182745  1
  In  In8  1  0.34445306  -0.02692042  0.36955241  1
  In  In9  1  0.01949935  -0.03941049  0.37023438  1
  In  In10  1  0.14644800  0.50914573  0.34386819  1
  In  In11  1  0.49758595  0.51338282  0.67384188  1
  In  In12  1  0.17106694  0.47940875  -0.00776579  1
  In  In13  1  0.34325239  0.14389733  0.17097566  1
  In  In14  1  0.48738722  -0.01504120  0.20296730  1
  In  In15  1  0.32483670  0.31494883  0.31158594  1
  In  In16  1  0.66233792  0.16398465  0.82712794  1
  In  In17  1  0.83304765  0.16251890  0.33226739  1
  In  In18  1  0.83998433  0.82552752  0.64969509  1
  In  In19  1  0.63820791  0.15236746  0.17412930  1
  In  In20  1  -0.00064308  0.50009960  0.50246870  1
  In  In21  1  0.48492140  0.53111372  0.34350804  1
  In  In22  1  0.01109990  0.64894857  0.00221149  1
  In  In23  1  0.85637510  0.31406228  0.82138865  1
  In  In24  1  0.67733250  0.34602254  0.35468160  1
  In  In25  1  0.66268154  0.13382727  0.49514857  1
  In  In26  1  0.16971939  0.15743318  0.32475237  1
  In  In27  1  0.32123066  -0.03179707  0.63265772  1
  In  In28  1  0.33424699  0.72243242  0.37838828  1
  In  In29  1  0.82746543  0.66628624  0.81665212  1
  In  In30  1  0.32197217  0.31652374  -0.02521898  1
  In  In31  1  0.15164563  0.15527252  -0.01087197  1
  In  In32  1  0.48773322  0.31484162  0.50267990  1
  In  In33  1  0.02114706  0.18269881  0.52972121  1
  In  In34  1  0.84976115  0.50700587  0.63588121  1
  In  In35  1  0.48536986  0.84160860  0.65253939  1
  In  In36  1  0.18564335  0.66629001  0.20387972  1
  In  In37  1  0.17259669  0.66564224  0.82233831  1
  In  In38  1  0.67211440  -0.02650913  -0.00436314  1
  In  In39  1  0.84706995  0.35268188  0.17122963  1
  In  In40  1  0.15208913  0.50705376  0.67125572  1
  In  In41  1  0.65020922  0.50783252  0.82892500  1
  In  In42  1  0.35892302  0.53218946  0.17430373  1
  In  In43  1  0.65068200  0.68019465  0.02684941  1
  In  In44  1  0.32722167  0.69358640  0.62828116  1
  In  In45  1  0.83068394  0.48310943  0.00004160  1
  In  In46  1  0.81574038  0.82418834  0.00484281  1
  In  In47  1  0.49074113  0.15488238  0.64345399  1
  In  In48  1  0.66368966  0.53294258  0.47234482  1
  In  In49  1  0.64304628  0.84236157  0.47832581  1
  In  In50  1  0.49428370  0.00474409  0.82610302  1
  In  In51  1  0.47823740  0.35219884  0.83179917  1
  In  In52  1  -0.01444221  0.83161078  0.19654213  1
  In  In53  1  0.00154143  0.15868532  0.15867504  1
  In  In54  1  0.85094606  0.16544435  0.65661216  1
  In  In55  1  0.01813421  0.83029882  0.81913245  1
  In  In56  1  0.82063779  0.66970410  0.50524464  1
  In  In57  1  0.83104617  0.34386038  0.50568501  1
  In  In58  1  0.01121101  0.51835739  0.17888282  1
  In  In59  1  0.50806327  0.51433229  0.00645730  1
  In  In60  1  0.17914739  -0.00880485  0.80299300  1
  In  In61  1  0.31540375  0.49644086  0.51823374  1
  In  In62  1  0.84464150  0.14138765  -0.00720559  1
  In  In63  1  0.66656559  0.35998364  0.66802701  1
  In  In64  1  0.17547174  0.83695731  0.01999284  1
  In  In65  1  -0.00844013  0.02328236  0.00072441  1
  In  In66  1  0.01950798  -0.01524248  0.63427678  1
  In  In67  1  -0.00139952  0.68023729  0.64410386  1
  In  In68  1  0.49845937  0.84502489  0.01315393  1
  In  In69  1  0.17130059  0.31899922  0.81614511  1
  In  In70  1  0.66399178  0.00368705  0.65144830  1
  In  In71  1  0.31751673  0.14617793  0.50968121  1
  Te  Te72  1  0.10391699  0.06210421  0.09930743  1
  Te  Te73  1  0.08773747  0.08446956  0.43052800  1
  Te  Te74  1  0.07990622  0.07702372  0.73528432  1
  Te  Te75  1  0.06327722  0.41358525  0.07769759  1
  Te  Te76  1  0.07414318  0.40401932  0.41588774  1
  Te  Te77  1  0.07457476  0.41645305  0.75815420  1
  Te  Te78  1  0.07998275  0.74434975  0.09904348  1
  Te  Te79  1  0.12071893  0.79723377  0.43022256  1
  Te  Te80  1  0.10648764  0.75827284  0.71934410  1
  Te  Te81  1  0.43625251  0.06604230  0.08025210  1
  Te  Te82  1  0.41550349  0.09630458  0.41158215  1
  Te  Te83  1  0.39891835  0.07163723  0.73045845  1
  Te  Te84  1  0.39857325  0.41318748  0.08142813  1
  Te  Te85  1  0.40624410  0.41170397  0.40853367  1
  Te  Te86  1  0.40225915  0.41167264  0.72092292  1
  Te  Te87  1  0.41620624  0.75094107  0.09206403  1
  Te  Te88  1  0.45628651  0.76990003  0.45808798  1
  Te  Te89  1  0.39637509  0.76420875  0.74203781  1
  Te  Te90  1  0.74821422  0.07841780  0.09600147  1
  Te  Te91  1  0.76205145  0.06217269  0.41331631  1
  Te  Te92  1  0.75858852  0.07958479  0.74562280  1
  Te  Te93  1  0.73462653  0.45910647  0.12278737  1
  Te  Te94  1  0.77695499  0.44939227  0.40886593  1
  Te  Te95  1  0.76632659  0.43194987  0.75895737  1
  Te  Te96  1  0.75029510  0.75283707  0.12044744  1
  Te  Te97  1  0.72492899  0.73465304  0.40774310  1
  Te  Te98  1  0.73703356  0.75933079  0.74085070  1
  Te  Te99  1  0.06592667  0.25177202  0.26193865  1
  Te  Te100  1  0.13634968  0.25156847  0.60829648  1
  Te  Te101  1  0.08188631  0.26555290  0.92414872  1
  Te  Te102  1  0.06243728  0.62200849  0.28130068  1
  Te  Te103  1  0.09756178  0.60224546  0.56044278  1
  Te  Te104  1  0.08314088  0.56767791  0.89803099  1
  Te  Te105  1  0.09525605  0.91203706  0.25364491  1
  Te  Te106  1  0.11021647  0.89240319  0.55710879  1
  Te  Te107  1  0.08788739  0.92129971  0.92175944  1
  Te  Te108  1  0.43749175  0.22707511  0.25831294  1
  Te  Te109  1  0.38555151  0.25885334  0.59812320  1
  Te  Te110  1  0.41648322  0.23543999  0.89650618  1
  Te  Te111  1  0.41612188  0.64087532  0.26087600  1
  Te  Te112  1  0.42537427  0.59240219  0.56433859  1
  Te  Te113  1  0.42004137  0.56774534  0.90137018  1
  Te  Te114  1  0.40892773  0.87848193  0.27167296  1
  Te  Te115  1  0.41452811  0.89924011  0.52758508  1
  Te  Te116  1  0.40802985  0.91189564  0.90909680  1
  Te  Te117  1  0.74225243  0.25428611  0.24354780  1
  Te  Te118  1  0.73474236  0.24722202  0.58224367  1
  Te  Te119  1  0.74752912  0.25180023  0.92016933  1
  Te  Te120  1  0.72627100  0.55533614  0.24360573  1
  Te  Te121  1  0.72881842  0.59030521  0.60023829  1
  Te  Te122  1  0.74624187  0.59673363  0.92654203  1
  Te  Te123  1  0.72712947  0.88282788  0.29622514  1
  Te  Te124  1  0.75146335  0.91513440  0.56334133  1
  Te  Te125  1  0.78466339  0.93337534  0.90157072  1
  Te  Te126  1  0.24962206  0.24154881  0.09607441  1
  Te  Te127  1  0.24113339  0.25309957  0.41959734  1
  Te  Te128  1  0.23332520  0.22404309  0.71906511  1
  Te  Te129  1  0.23868395  0.58505811  0.08170500  1
  Te  Te130  1  0.25909075  0.58756944  0.40912201  1
  Te  Te131  1  0.26705261  0.59066127  0.73016027  1
  Te  Te132  1  0.27606994  0.90525766  0.10211195  1
  Te  Te133  1  0.22368246  0.91575218  0.44377409  1
  Te  Te134  1  0.26473986  0.88514335  0.74312600  1
  Te  Te135  1  0.56684094  0.24526744  0.07483982  1
  Te  Te136  1  0.58505111  0.23864990  0.41249731  1
  Te  Te137  1  0.57781951  0.25161202  0.73359355  1
  Te  Te138  1  0.57009296  0.59256574  0.11452525  1
  Te  Te139  1  0.58273140  0.63285020  0.39569086  1
  Te  Te140  1  0.57733151  0.60920105  0.75209018  1
  Te  Te141  1  0.59959372  0.90773354  0.11390292  1
  Te  Te142  1  0.58142215  0.91612758  0.35945548  1
  Te  Te143  1  0.59596763  0.91381607  0.75659925  1
  Te  Te144  1  0.91325922  0.25174580  0.07593175  1
  Te  Te145  1  0.91845389  0.24742729  0.42623884  1
  Te  Te146  1  0.95126223  0.24075066  0.73476738  1
  Te  Te147  1  0.90098004  0.59717111  0.09326453  1
  Te  Te148  1  0.91463111  0.59131676  0.42083470  1
  Te  Te149  1  0.93167030  0.58485412  0.74141393  1
  Te  Te150  1  0.91473766  0.91548479  0.08374411  1
  Te  Te151  1  0.90269699  0.88007424  0.41055869  1
  Te  Te152  1  0.92264511  0.91690846  0.73914917  1
  Te  Te153  1  0.25971605  0.05522161  0.25988692  1
  Te  Te154  1  0.22179417  0.07856019  0.60272210  1
  Te  Te155  1  0.25287124  0.09083201  0.89662496  1
  Te  Te156  1  0.24976590  0.43601116  0.24234868  1
  Te  Te157  1  0.20640715  0.40859477  0.56966768  1
  Te  Te158  1  0.26696284  0.42776670  0.88803152  1
  Te  Te159  1  0.24976537  0.78275239  0.26808389  1
  Te  Te160  1  0.24184951  0.77372293  0.53095137  1
  Te  Te161  1  0.25285483  0.75556500  0.91579287  1
  Te  Te162  1  0.59108369  0.06285794  0.28304458  1
  Te  Te163  1  0.55254536  0.04579208  0.55490665  1
  Te  Te164  1  0.58387744  0.07901324  0.92595789  1
  Te  Te165  1  0.57607346  0.42711496  0.27141163  1
  Te  Te166  1  0.58399631  0.42441468  0.55598327  1
  Te  Te167  1  0.59725704  0.40409761  0.92798028  1
  Te  Te168  1  0.61707515  0.80217746  0.23341665  1
  Te  Te169  1  0.57705731  0.75040619  0.57773632  1
  Te  Te170  1  0.56339828  0.74139548  0.91662033  1
  Te  Te171  1  0.92581574  0.06532333  0.25392114  1
  Te  Te172  1  0.91548972  0.06894449  0.55883767  1
  Te  Te173  1  0.93772293  0.10002611  0.88646632  1
  Te  Te174  1  0.93528338  0.42378482  0.26408807  1
  Te  Te175  1  0.94030613  0.39156884  0.60077103  1
  Te  Te176  1  0.92329976  0.41497642  0.90912914  1
  Te  Te177  1  0.90297638  0.76735435  0.30511373  1
  Te  Te178  1  0.93671587  0.77444495  0.54208000  1
  Te  Te179  1  0.92309491  0.75012630  0.91386410  1
