# generated using pymatgen
data_In2Te3
_symmetry_space_group_name_H-M   'P 1'
_cell_length_a   18.95626623
_cell_length_b   18.93551549
_cell_length_c   18.95120413
_cell_angle_alpha   89.90115755
_cell_angle_beta   89.82493941
_cell_angle_gamma   90.02185150
_symmetry_Int_Tables_number   1
_chemical_formula_structural   In2Te3
_chemical_formula_sum   'In72 Te108'
_cell_volume   6802.42928636
_cell_formula_units_Z   36
loop_
 _symmetry_equiv_pos_site_id
 _symmetry_equiv_pos_as_xyz
  1  'x, y, z'
loop_
 _atom_site_type_symbol
 _atom_site_label
 _atom_site_symmetry_multiplicity
 _atom_site_fract_x
 _atom_site_fract_y
 _atom_site_fract_z
 _atom_site_occupancy
  In  In0  1  -0.00066501  0.32437170  0.65206501  1
  In  In1  1  0.83969838  0.31219506  0.50901688  1
  In  In2  1  0.64380140  0.49333228  0.85490185  1
  In  In3  1  0.31525199  0.51595667  0.50242304  1
  In  In4  1  0.64378979  0.83553335  0.17026304  1
  In  In5  1  0.78424353  0.49873402  0.00292568  1
  In  In6  1  0.03098827  -0.00385705  0.03619951  1
  In  In7  1  0.51190513  0.31813416  0.49828254  1
  In  In8  1  -0.00786676  0.32162788  0.02785956  1
  In  In9  1  0.86342453  0.68282190  0.79935020  1
  In  In10  1  0.17407985  0.86943225  0.02234277  1
  In  In11  1  0.65795160  0.30097072  0.33992407  1
  In  In12  1  0.83887686  0.18577359  0.00355128  1
  In  In13  1  0.15744451  -0.02108382  0.81001525  1
  In  In14  1  0.61531670  0.00016656  0.02161254  1
  In  In15  1  0.33529215  0.50713969  0.83980673  1
  In  In16  1  0.67293552  0.33009936  0.67636077  1
  In  In17  1  0.01949678  0.82586106  0.72487328  1
  In  In18  1  0.18747287  0.50572489  0.67840126  1
  In  In19  1  0.48434606  -0.01823146  0.18677599  1
  In  In20  1  0.86833096  0.15316253  0.36036365  1
  In  In21  1  0.00635409  0.49272986  0.17403368  1
  In  In22  1  0.31371589  0.16346175  0.47391248  1
  In  In23  1  0.85473031  0.14792013  0.65931890  1
  In  In24  1  0.67975214  -0.03537665  0.36248407  1
  In  In25  1  0.15051225  -0.02579776  0.49278518  1
  In  In26  1  0.52603722  0.84034031  0.36000707  1
  In  In27  1  -0.00095362  0.67431118  0.33976809  1
  In  In28  1  0.90639855  0.48635262  0.35685472  1
  In  In29  1  0.48932655  0.52025076  0.32340204  1
  In  In30  1  0.67898098  0.50414544  0.49990353  1
  In  In31  1  0.17856839  0.15015743  0.31210986  1
  In  In32  1  0.48458040  0.67282813  0.81276033  1
  In  In33  1  0.66046892  0.49860372  0.15711534  1
  In  In34  1  -0.01400006  0.50111954  0.82554958  1
  In  In35  1  0.32292330  0.68260637  0.63196827  1
  In  In36  1  0.19051910  0.71177222  0.17507640  1
  In  In37  1  0.32998730  0.82741379  0.81229311  1
  In  In38  1  0.82623429  0.33417961  0.83281805  1
  In  In39  1  0.33869659  0.68862758  0.34725064  1
  In  In40  1  0.85641235  0.02281884  0.17390408  1
  In  In41  1  0.50060290  0.00368727  0.81588241  1
  In  In42  1  0.64088941  0.65538562  -0.00609894  1
  In  In43  1  0.80783069  0.82744438  -0.00497175  1
  In  In44  1  0.18962940  0.52009817  -0.02807411  1
  In  In45  1  0.35463095  -0.02057559  0.63136502  1
  In  In46  1  0.20116553  0.12535895  0.04086104  1
  In  In47  1  0.87230176  -0.01330838  0.50249065  1
  In  In48  1  0.33024317  0.35489200  0.67040410  1
  In  In49  1  0.63854941  0.35085349  0.01276354  1
  In  In50  1  0.14197740  0.48246139  0.33578358  1
  In  In51  1  0.33180020  0.71907039  0.00528530  1
  In  In52  1  0.31158131  0.35298583  0.33476581  1
  In  In53  1  0.67924417  0.83964306  0.51199225  1
  In  In54  1  0.18501140  0.19765509  0.66394809  1
  In  In55  1  0.66361874  0.68801535  0.34850915  1
  In  In56  1  0.01729875  0.14730680  0.86413157  1
  In  In57  1  0.17556968  0.32382036  0.15707343  1
  In  In58  1  0.66656346  0.15766554  0.80488990  1
  In  In59  1  0.50410920  0.15850691  0.66706854  1
  In  In60  1  0.13638505  0.69039057  0.51278331  1
  In  In61  1  0.83659109  0.65964361  0.19972638  1
  In  In62  1  0.84020988  -0.04048738  0.82655439  1
  In  In63  1  0.49746618  0.15563651  0.33206411  1
  In  In64  1  0.00408177  0.64836434  -0.00147643  1
  In  In65  1  0.84477605  0.82754719  0.33709842  1
  In  In66  1  0.66258063  0.16865386  0.17159881  1
  In  In67  1  0.46686772  0.34203465  0.16814762  1
  In  In68  1  0.65368035  0.83346714  0.80148570  1
  In  In69  1  0.18870464  0.34639555  0.85714079  1
  In  In70  1  0.67886634  0.67637572  0.66220533  1
  In  In71  1  0.35221678  0.00689202  0.00581818  1
  Te  Te72  1  0.07227894  0.11570651  0.11410455  1
  Te  Te73  1  0.08415805  0.06538548  0.39420084  1
  Te  Te74  1  0.09437451  0.10065695  0.74325898  1
  Te  Te75  1  0.09143103  0.43765873  0.06110218  1
  Te  Te76  1  0.03015127  0.42493178  0.41379705  1
  Te  Te77  1  0.08995559  0.40285310  0.75708859  1
  Te  Te78  1  0.08294399  0.75118449  0.07355111  1
  Te  Te79  1  0.07883368  0.78059425  0.40618638  1
  Te  Te80  1  0.09532519  0.70596851  0.66521076  1
  Te  Te81  1  0.43225722  0.09614041  0.10351768  1
  Te  Te82  1  0.41920518  0.07380227  0.42619199  1
  Te  Te83  1  0.39392468  0.07906387  0.73940728  1
  Te  Te84  1  0.42665970  0.43306238  0.06302618  1
  Te  Te85  1  0.41951446  0.41538230  0.42353134  1
  Te  Te86  1  0.42330761  0.44022109  0.74313926  1
  Te  Te87  1  0.40127843  0.79696515  0.10590693  1
  Te  Te88  1  0.43600815  0.75001791  0.44331230  1
  Te  Te89  1  0.42683568  0.76850442  0.71232370  1
  Te  Te90  1  0.74076039  0.07823575  0.07620637  1
  Te  Te91  1  0.76185186  0.06820321  0.43191525  1
  Te  Te92  1  0.75839558  0.05947043  0.74004332  1
  Te  Te93  1  0.75365975  0.38759759  0.10344932  1
  Te  Te94  1  0.74701769  0.39721902  0.41558693  1
  Te  Te95  1  0.74702582  0.43592383  0.75646874  1
  Te  Te96  1  0.73803000  0.73356195  0.09475619  1
  Te  Te97  1  0.77220597  0.74186839  0.43775374  1
  Te  Te98  1  0.77715702  0.78326787  0.72700783  1
  Te  Te99  1  0.09315234  0.25932380  0.25817812  1
  Te  Te100  1  0.07659586  0.23093133  0.56889026  1
  Te  Te101  1  0.09621105  0.25371595  0.93798603  1
  Te  Te102  1  0.09113433  0.60057057  0.23647560  1
  Te  Te103  1  0.08906548  0.56279856  0.58243025  1
  Te  Te104  1  0.08947188  0.59607303  0.88409294  1
  Te  Te105  1  0.11751832  0.94020523  0.15049231  1
  Te  Te106  1  0.06292544  0.90849658  0.59884801  1
  Te  Te107  1  0.06843598  0.91515927  0.91413467  1
  Te  Te108  1  0.39665482  0.24732206  0.26508463  1
  Te  Te109  1  0.40317088  0.24716656  0.57918248  1
  Te  Te110  1  0.37693238  0.15457926  0.97075948  1
  Te  Te111  1  0.38728293  0.59044321  0.24816277  1
  Te  Te112  1  0.41287143  0.57191498  0.59456384  1
  Te  Te113  1  0.40753011  0.61100655  0.92616858  1
  Te  Te114  1  0.41634827  0.92171731  0.30183607  1
  Te  Te115  1  0.37802834  0.87748604  0.52647142  1
  Te  Te116  1  0.41626973  0.91134919  0.90184596  1
  Te  Te117  1  0.76491151  0.22356575  0.26617067  1
  Te  Te118  1  0.74285308  0.22682605  0.59170984  1
  Te  Te119  1  0.72678713  0.25678710  0.91838086  1
  Te  Te120  1  0.73227549  0.57563123  0.26814370  1
  Te  Te121  1  0.76590178  0.58900386  0.58151528  1
  Te  Te122  1  0.75267456  0.60508167  0.89730195  1
  Te  Te123  1  0.75719260  0.91338397  0.23573300  1
  Te  Te124  1  0.77957921  0.91247752  0.59108107  1
  Te  Te125  1  0.71556178  0.92097286  0.91761980  1
  Te  Te126  1  0.27854832  0.24034024  0.09186931  1
  Te  Te127  1  0.21839755  0.26480663  0.41374943  1
  Te  Te128  1  0.27504475  0.25526470  0.77303805  1
  Te  Te129  1  0.25171323  0.60795728  0.07657087  1
  Te  Te130  1  0.22447601  0.58881904  0.40717306  1
  Te  Te131  1  0.26234692  0.60992688  0.75566956  1
  Te  Te132  1  0.27273262  0.93362144  0.12088556  1
  Te  Te133  1  0.23677083  0.95669061  0.36542902  1
  Te  Te134  1  0.24494235  0.90346210  0.71365991  1
  Te  Te135  1  0.56211167  0.24532653  0.09062256  1
  Te  Te136  1  0.59510922  0.20621142  0.44020413  1
  Te  Te137  1  0.56499921  0.26326086  0.76056030  1
  Te  Te138  1  0.56017326  0.58332679  0.09253965  1
  Te  Te139  1  0.57541256  0.58979424  0.42574752  1
  Te  Te140  1  0.58769769  0.58445679  0.74725182  1
  Te  Te141  1  0.53188354  0.87723414  0.07359521  1
  Te  Te142  1  0.57122440  0.94535701  0.46642106  1
  Te  Te143  1  0.57872157  0.92837762  0.71157886  1
  Te  Te144  1  0.92555467  0.22287072  0.11568812  1
  Te  Te145  1  0.94363831  0.26962593  0.41139399  1
  Te  Te146  1  0.92363871  0.23764859  0.77033635  1
  Te  Te147  1  0.89592524  0.57912347  0.08310133  1
  Te  Te148  1  0.91885952  0.60486748  0.44111064  1
  Te  Te149  1  0.92203371  0.57699077  0.71801950  1
  Te  Te150  1  0.90173988  0.91761524  0.07409751  1
  Te  Te151  1  0.95086373  0.88866591  0.41977987  1
  Te  Te152  1  0.94743452  0.95642212  0.72441188  1
  Te  Te153  1  0.26842517  0.04773074  0.25100520  1
  Te  Te154  1  0.23896871  0.07553815  0.57618736  1
  Te  Te155  1  0.23890654  0.06278716  0.90768391  1
  Te  Te156  1  0.24599282  0.43730562  0.22880755  1
  Te  Te157  1  0.23147623  0.40745193  0.56863761  1
  Te  Te158  1  0.29245005  0.40412200  0.95139288  1
  Te  Te159  1  0.24564502  0.78820663  0.28820422  1
  Te  Te160  1  0.25829468  0.77983907  0.53667806  1
  Te  Te161  1  0.22839689  0.77342700  0.91002599  1
  Te  Te162  1  0.60119093  0.05969309  0.26043931  1
  Te  Te163  1  0.57952388  0.04758193  0.61039255  1
  Te  Te164  1  0.57372760  0.09725332  0.91032130  1
  Te  Te165  1  0.57905156  0.40462231  0.26088650  1
  Te  Te166  1  0.58627747  0.41559857  0.58602406  1
  Te  Te167  1  0.53704498  0.43166105  0.93999067  1
  Te  Te168  1  0.56082969  0.73779833  0.24942851  1
  Te  Te169  1  0.58381459  0.74852189  0.57744618  1
  Te  Te170  1  0.57197953  0.75706604  0.90535103  1
  Te  Te171  1  0.94700999  0.05084000  0.28531682  1
  Te  Te172  1  0.94932027  0.10355663  0.55566552  1
  Te  Te173  1  0.89430971  0.07526624  0.91604724  1
  Te  Te174  1  0.89969326  0.41155160  0.23084364  1
  Te  Te175  1  0.89486286  0.41189194  0.60247893  1
  Te  Te176  1  0.90845015  0.41504971  0.93240311  1
  Te  Te177  1  0.93481982  0.76813785  0.22962032  1
  Te  Te178  1  0.97307836  0.76799993  0.59551157  1
  Te  Te179  1  0.91884372  0.75178897  0.92155406  1
