# generated using pymatgen
data_In2Te3
_symmetry_space_group_name_H-M   'P 1'
_cell_length_a   19.03571045
_cell_length_b   19.05211952
_cell_length_c   19.03587477
_cell_angle_alpha   90.28465333
_cell_angle_beta   89.92923239
_cell_angle_gamma   90.11356858
_symmetry_Int_Tables_number   1
_chemical_formula_structural   In2Te3
_chemical_formula_sum   'In72 Te108'
_cell_volume   6903.64876194
_cell_formula_units_Z   36
loop_
 _symmetry_equiv_pos_site_id
 _symmetry_equiv_pos_as_xyz
  1  'x, y, z'
loop_
 _atom_site_type_symbol
 _atom_site_label
 _atom_site_symmetry_multiplicity
 _atom_site_fract_x
 _atom_site_fract_y
 _atom_site_fract_z
 _atom_site_occupancy
  In  In0  1  0.05574549  0.66277328  0.79049484  1
  In  In1  1  0.63860056  0.20079613  0.51087727  1
  In  In2  1  0.33959635  0.32894380  -0.00210340  1
  In  In3  1  0.80432976  0.17462043  0.68008425  1
  In  In4  1  0.52547425  0.01074761  0.48461325  1
  In  In5  1  0.83979520  0.34848208  0.86330621  1
  In  In6  1  0.63819394  0.84067166  0.77862811  1
  In  In7  1  0.84397995  0.19235191  0.34951278  1
  In  In8  1  0.68891402  0.18077353  0.17829803  1
  In  In9  1  0.83081594  0.82965270  0.34679284  1
  In  In10  1  0.47346747  0.16489323  0.00279916  1
  In  In11  1  -0.01025470  0.52131473  0.17762850  1
  In  In12  1  0.32629940  0.46074699  0.18839392  1
  In  In13  1  0.82114889  -0.00804577  0.48671406  1
  In  In14  1  0.52410348  0.51366850  0.32776984  1
  In  In15  1  0.64450517  0.33173355  0.68371760  1
  In  In16  1  0.32605093  0.00402060  0.29866129  1
  In  In17  1  0.15925243  0.00370360  0.16356593  1
  In  In18  1  0.51580553  0.80746878  0.00645016  1
  In  In19  1  0.85369276  0.49086920  0.64472678  1
  In  In20  1  0.55276304  0.78521725  0.31023107  1
  In  In21  1  0.19265350  0.65385761  0.17718350  1
  In  In22  1  0.01976142  -0.00973481  -0.02074222  1
  In  In23  1  0.37357090  0.85003165  0.82034090  1
  In  In24  1  0.34417666  0.47841443  0.50777605  1
  In  In25  1  0.33157007  0.32010922  0.33937404  1
  In  In26  1  0.15208963  0.48834176  0.67774740  1
  In  In27  1  -0.03039650  0.18207405  0.17773838  1
  In  In28  1  0.83707447  0.83941985  0.66809241  1
  In  In29  1  0.00457813  0.18362712  0.50738827  1
  In  In30  1  0.65542329  0.00142993  -0.00442859  1
  In  In31  1  0.31656323  -0.01135790  -0.02574424  1
  In  In32  1  -0.01644922  0.34685321  0.01209118  1
  In  In33  1  0.80303927  0.18091893  0.00123735  1
  In  In34  1  0.49377310  0.49689021  0.66378712  1
  In  In35  1  0.33599569  0.84406483  0.48434161  1
  In  In36  1  0.14525435  0.79164304  -0.04138247  1
  In  In37  1  0.18109213  0.32196040  0.82292117  1
  In  In38  1  0.13765539  0.32813281  0.16200643  1
  In  In39  1  0.00751539  0.66693732  0.34952521  1
  In  In40  1  0.33346671  0.49753125  0.82905257  1
  In  In41  1  0.15206303  0.83361987  0.30271744  1
  In  In42  1  -0.00466347  0.83779873  0.13627008  1
  In  In43  1  0.17432387  0.64888417  0.51903296  1
  In  In44  1  0.18546194  0.15786418  -0.00416740  1
  In  In45  1  0.18607506  0.15447889  0.66787935  1
  In  In46  1  0.67293998  0.64428226  0.01045321  1
  In  In47  1  0.84764852  0.65791003  0.83155147  1
  In  In48  1  0.13709863  0.01264390  0.50586754  1
  In  In49  1  0.80687976  0.01521434  0.83293814  1
  In  In50  1  0.83057415  0.66805848  0.15360710  1
  In  In51  1  0.84594236  0.67069882  0.51791425  1
  In  In52  1  0.66188410  0.36331992  0.01372448  1
  In  In53  1  0.37471272  0.17972088  0.53886818  1
  In  In54  1  0.47545928  0.66692945  0.82126271  1
  In  In55  1  0.36216550  -0.00010169  0.67618955  1
  In  In56  1  -0.02246173  0.64618499  -0.00071922  1
  In  In57  1  -0.01063060  -0.01460154  0.64162588  1
  In  In58  1  0.69731471  -0.00423480  0.31963578  1
  In  In59  1  0.33529868  0.65050207  -0.00095725  1
  In  In60  1  0.33966452  0.65481563  0.35904385  1
  In  In61  1  0.50797519  0.17319954  0.33522359  1
  In  In62  1  0.83092077  0.49779425  0.30819486  1
  In  In63  1  0.00981436  0.16747702  0.82977378  1
  In  In64  1  0.68119246  0.51785663  0.49034533  1
  In  In65  1  0.66847785  0.83056559  0.53013387  1
  In  In66  1  0.50866025  0.34110325  0.18715671  1
  In  In67  1  0.65100929  0.48789953  0.84021144  1
  In  In68  1  0.15807268  0.33160221  0.51072457  1
  In  In69  1  0.50424484  -0.00228901  0.13735667  1
  In  In70  1  0.34966971  0.84385091  0.13734458  1
  In  In71  1  0.33520453  0.65404175  0.66483273  1
  Te  Te72  1  0.06798989  0.10197508  0.08309606  1
  Te  Te73  1  0.07083990  0.09706124  0.41044429  1
  Te  Te74  1  0.07748377  0.07279267  0.73510367  1
  Te  Te75  1  0.07876366  0.44155117  0.08290927  1
  Te  Te76  1  0.06003775  0.43799938  0.48270538  1
  Te  Te77  1  0.07252854  0.40813716  0.77255682  1
  Te  Te78  1  0.09040126  0.72599598  0.09140193  1
  Te  Te79  1  0.11017414  0.75073567  0.42112017  1
  Te  Te80  1  0.05033572  0.77144543  0.69594590  1
  Te  Te81  1  0.38470911  0.07142540  0.08309783  1
  Te  Te82  1  0.41327712  0.08078013  0.40958065  1
  Te  Te83  1  0.45442569  0.07593341  0.76138414  1
  Te  Te84  1  0.42829321  0.41741730  0.08473777  1
  Te  Te85  1  0.43089002  0.41313874  0.40345587  1
  Te  Te86  1  0.40990513  0.40519844  0.74238415  1
  Te  Te87  1  0.42916184  0.72162970  0.09572816  1
  Te  Te88  1  0.43660658  0.75636220  0.41214059  1
  Te  Te89  1  0.43267460  0.76084935  0.71052059  1
  Te  Te90  1  0.75180379  0.07300504  0.09269479  1
  Te  Te91  1  0.73020100  0.09789601  0.42726230  1
  Te  Te92  1  0.71223984  0.09995989  0.76361215  1
  Te  Te93  1  0.78322346  0.41512205  0.07432290  1
  Te  Te94  1  0.75792169  0.42295673  0.41049369  1
  Te  Te95  1  0.75905500  0.42025425  0.74746059  1
  Te  Te96  1  0.76488786  0.74943143  0.05265960  1
  Te  Te97  1  0.74356907  0.74288375  0.43382190  1
  Te  Te98  1  0.75588238  0.74293803  0.74907147  1
  Te  Te99  1  0.04547673  0.27531404  0.26508711  1
  Te  Te100  1  0.08379708  0.25199440  0.61657545  1
  Te  Te101  1  0.08060618  0.25477290  0.93414761  1
  Te  Te102  1  0.10013524  0.57827939  0.26843999  1
  Te  Te103  1  0.06829935  0.56865787  0.58363634  1
  Te  Te104  1  0.09810907  0.61203553  0.92097014  1
  Te  Te105  1  0.05381668  0.92956705  0.24322233  1
  Te  Te106  1  0.10130067  0.90050270  0.59339933  1
  Te  Te107  1  0.09212744  0.90455019  0.88634089  1
  Te  Te108  1  0.41003911  0.23771225  0.23992565  1
  Te  Te109  1  0.43775921  0.29040405  0.61410824  1
  Te  Te110  1  0.39556744  0.23506326  0.90021446  1
  Te  Te111  1  0.40709934  0.57433843  0.25146346  1
  Te  Te112  1  0.42797319  0.59140351  0.56472490  1
  Te  Te113  1  0.43376643  0.56408670  0.92301099  1
  Te  Te114  1  0.43433840  0.91024917  0.24453020  1
  Te  Te115  1  0.43667118  0.92050357  0.56729569  1
  Te  Te116  1  0.44864082  0.92176804  0.93239667  1
  Te  Te117  1  0.74711018  0.27301913  0.27440152  1
  Te  Te118  1  0.74713110  0.27613748  0.58512603  1
  Te  Te119  1  0.72265995  0.26443705  0.90756252  1
  Te  Te120  1  0.75257961  0.61960472  0.27118061  1
  Te  Te121  1  0.75005310  0.59386168  0.60416101  1
  Te  Te122  1  0.75769398  0.56570523  0.91252020  1
  Te  Te123  1  0.75981263  0.89331074  0.23774539  1
  Te  Te124  1  0.74206804  0.93964596  0.60382419  1
  Te  Te125  1  0.71977597  0.90896493  0.89447642  1
  Te  Te126  1  0.25026969  0.25219457  0.09446080  1
  Te  Te127  1  0.26551309  0.24230467  0.44952111  1
  Te  Te128  1  0.27512469  0.23073801  0.75726873  1
  Te  Te129  1  0.25877902  0.55399479  0.08709622  1
  Te  Te130  1  0.24606036  0.55625483  0.42258181  1
  Te  Te131  1  0.23742716  0.59124908  0.75820590  1
  Te  Te132  1  0.22733436  0.90355400  0.07216947  1
  Te  Te133  1  0.24055075  0.92255962  0.39584842  1
  Te  Te134  1  0.26731981  0.91201660  0.74351660  1
  Te  Te135  1  0.58285960  0.24395781  0.09107887  1
  Te  Te136  1  0.57946585  0.27948267  0.40389742  1
  Te  Te137  1  0.53989496  0.22455855  0.70143826  1
  Te  Te138  1  0.60999260  0.56892541  0.11925473  1
  Te  Te139  1  0.58417220  0.60585922  0.42459674  1
  Te  Te140  1  0.58185369  0.58487355  0.74859577  1
  Te  Te141  1  0.60315392  0.89229946  0.09546331  1
  Te  Te142  1  0.60291259  0.90781067  0.40395000  1
  Te  Te143  1  0.53213242  0.94817813  0.78761496  1
  Te  Te144  1  0.87632926  0.27706831  0.09488419  1
  Te  Te145  1  0.91235090  0.28226144  0.44745806  1
  Te  Te146  1  0.90603062  0.25298729  0.76247451  1
  Te  Te147  1  0.87542454  0.54175008  0.07851076  1
  Te  Te148  1  0.90941219  0.57797439  0.41868326  1
  Te  Te149  1  0.93773825  0.58384589  0.73669367  1
  Te  Te150  1  0.91376244  0.92295065  0.05249073  1
  Te  Te151  1  0.92415510  0.90828208  0.42712273  1
  Te  Te152  1  0.91160174  0.93228329  0.76168517  1
  Te  Te153  1  0.22361160  0.09708374  0.25544747  1
  Te  Te154  1  0.26453099  0.06707066  0.56861633  1
  Te  Te155  1  0.23986573  0.07638405  0.88809762  1
  Te  Te156  1  0.22032850  0.39779266  0.27504730  1
  Te  Te157  1  0.25473003  0.40480261  0.60354643  1
  Te  Te158  1  0.24443212  0.41831233  0.92190878  1
  Te  Te159  1  0.27461064  0.76026297  0.24938551  1
  Te  Te160  1  0.25967859  0.75583307  0.58320290  1
  Te  Te161  1  0.28341097  0.75878628  0.90956496  1
  Te  Te162  1  0.58338795  0.07470450  0.24305638  1
  Te  Te163  1  0.57656468  0.09601850  0.59522510  1
  Te  Te164  1  0.57712779  0.09913657  0.92101442  1
  Te  Te165  1  0.60926938  0.44220396  0.22795645  1
  Te  Te166  1  0.59144027  0.42345662  0.57674408  1
  Te  Te167  1  0.56835304  0.38615230  0.90323638  1
  Te  Te168  1  0.61914862  0.68706595  0.22095795  1
  Te  Te169  1  0.59019933  0.78482582  0.64438619  1
  Te  Te170  1  0.58788936  0.73315293  0.89816816  1
  Te  Te171  1  0.89740759  0.08806554  0.26186835  1
  Te  Te172  1  0.89751244  0.09238397  0.58313671  1
  Te  Te173  1  0.90640213  0.10165114  0.92209984  1
  Te  Te174  1  0.94559562  0.41264212  0.26659062  1
  Te  Te175  1  0.94029840  0.39735536  0.57005672  1
  Te  Te176  1  0.95469366  0.43463197  0.89684179  1
  Te  Te177  1  0.93175168  0.74557397  0.24590146  1
  Te  Te178  1  0.93935615  0.76490354  0.58596368  1
  Te  Te179  1  0.92474372  0.75179391  0.91504475  1
