# generated using pymatgen
data_In2Te3
_symmetry_space_group_name_H-M   'P 1'
_cell_length_a   18.78521175
_cell_length_b   18.79771702
_cell_length_c   18.80314022
_cell_angle_alpha   90.08162461
_cell_angle_beta   89.92629543
_cell_angle_gamma   90.01600600
_symmetry_Int_Tables_number   1
_chemical_formula_structural   In2Te3
_chemical_formula_sum   'In72 Te108'
_cell_volume   6639.73536259
_cell_formula_units_Z   36
loop_
 _symmetry_equiv_pos_site_id
 _symmetry_equiv_pos_as_xyz
  1  'x, y, z'
loop_
 _atom_site_type_symbol
 _atom_site_label
 _atom_site_symmetry_multiplicity
 _atom_site_fract_x
 _atom_site_fract_y
 _atom_site_fract_z
 _atom_site_occupancy
  In  In0  1  0.15201269  0.49838662  0.30983789  1
  In  In1  1  0.00412564  0.82914015  0.47729190  1
  In  In2  1  0.49628829  0.31543037  0.48884057  1
  In  In3  1  0.83141438  0.68943439  0.83956502  1
  In  In4  1  0.69421908  0.81416643  0.48570697  1
  In  In5  1  0.19151828  0.00642004  0.48189828  1
  In  In6  1  0.46421595  0.16895023  -0.02975666  1
  In  In7  1  0.49303426  0.48683842  -0.00345176  1
  In  In8  1  0.19063170  0.68543921  0.19798857  1
  In  In9  1  0.66501538  0.83805899  0.17025748  1
  In  In10  1  0.84200007  -0.02310816  0.51180790  1
  In  In11  1  0.84883847  0.66706282  0.18542684  1
  In  In12  1  0.66121809  -0.00324977  0.33571042  1
  In  In13  1  0.50930563  0.66848558  0.82010082  1
  In  In14  1  0.01715330  0.15269918  0.50121990  1
  In  In15  1  -0.00064623  0.32424313  0.32712741  1
  In  In16  1  0.83481688  0.84980004  0.66944187  1
  In  In17  1  0.35585293  0.84473064  0.84758955  1
  In  In18  1  0.15914779  0.68077362  0.48622761  1
  In  In19  1  0.00537888  0.17916680  0.83718808  1
  In  In20  1  0.48695162  0.47605130  0.68135801  1
  In  In21  1  0.85713696  0.82341938  0.02065193  1
  In  In22  1  0.50034271  0.86129631  0.66867768  1
  In  In23  1  0.15976813  0.51059630  0.68656080  1
  In  In24  1  0.64743708  0.64723748  -0.01159811  1
  In  In25  1  0.47327277  0.69310009  0.16090235  1
  In  In26  1  0.17954348  0.66780565  0.82737659  1
  In  In27  1  0.32754284  0.16470550  0.14636249  1
  In  In28  1  0.84528712  0.48722542  0.00878763  1
  In  In29  1  0.18919298  0.00335119  0.87522856  1
  In  In30  1  0.35626451  0.15598311  0.52147820  1
  In  In31  1  0.04913964  0.13839287  0.14275935  1
  In  In32  1  0.67621831  0.86952539  0.80866110  1
  In  In33  1  0.64218830  0.29927904  0.69846320  1
  In  In34  1  0.80670019  0.03456353  0.81235211  1
  In  In35  1  0.81394029  0.33423159  0.52768132  1
  In  In36  1  0.47444862  0.83446219  -0.00912796  1
  In  In37  1  0.83106626  0.13791232  0.33323700  1
  In  In38  1  0.63595587  0.33224034  0.34995053  1
  In  In39  1  0.02009422  0.65522019  -0.01353309  1
  In  In40  1  0.00135265  -0.00633074  0.66939921  1
  In  In41  1  0.18181802  0.18765432  0.68551158  1
  In  In42  1  0.18213558  0.33555002  0.84488271  1
  In  In43  1  0.83794832  0.32909147  0.83559113  1
  In  In44  1  0.47180616  0.32683923  0.14191141  1
  In  In45  1  0.19786030  0.84487964  0.67597365  1
  In  In46  1  0.33485532  0.83029676  0.49823378  1
  In  In47  1  0.63915858  0.48922389  0.83318315  1
  In  In48  1  0.49044683  0.84641709  0.33046441  1
  In  In49  1  0.33150769  -0.00330703  0.34124424  1
  In  In50  1  0.65584906  0.01230965  -0.01062715  1
  In  In51  1  0.49390209  0.52440342  0.31065317  1
  In  In52  1  0.30698594  0.34747787  0.32718128  1
  In  In53  1  0.83526101  0.17380950  -0.00578060  1
  In  In54  1  0.14502978  0.33997685  0.48992387  1
  In  In55  1  0.32816560  0.67109911  0.00738935  1
  In  In56  1  0.64372365  0.16820101  0.18066229  1
  In  In57  1  0.83326446  0.50809876  0.64910269  1
  In  In58  1  0.83761193  -0.01469381  0.17953513  1
  In  In59  1  0.31509033  0.32481024  0.71392384  1
  In  In60  1  0.69765234  0.49021970  0.15665643  1
  In  In61  1  0.85828166  0.52637538  0.33494032  1
  In  In62  1  0.48967953  0.68757970  0.49576495  1
  In  In63  1  0.83328918  0.33657266  0.15184682  1
  In  In64  1  0.67328790  0.49616630  0.49606184  1
  In  In65  1  0.31680480  0.50731401  0.50552754  1
  In  In66  1  0.00439388  0.50356472  0.84453535  1
  In  In67  1  0.02386451  0.68796792  0.66042920  1
  In  In68  1  0.15471504  0.34407359  0.11148345  1
  In  In69  1  0.01867763  0.84114023  0.16465406  1
  In  In70  1  0.16024368  0.14958573  0.34090989  1
  In  In71  1  0.51257456  0.16425770  0.34675666  1
  Te  Te72  1  0.11469555  0.06375820  0.02685845  1
  Te  Te73  1  0.06598161  0.04692578  0.40273758  1
  Te  Te74  1  0.09658608  0.07420236  0.75736725  1
  Te  Te75  1  0.04452538  0.42457374  0.06022341  1
  Te  Te76  1  0.05705357  0.43789239  0.41456454  1
  Te  Te77  1  0.07762387  0.40306418  0.75419020  1
  Te  Te78  1  0.10063816  0.74114773  0.08198429  1
  Te  Te79  1  0.07407047  0.74004875  0.37876098  1
  Te  Te80  1  0.09082569  0.77796882  0.76289460  1
  Te  Te81  1  0.41884156  0.07004978  0.07487916  1
  Te  Te82  1  0.43654355  0.06258793  0.43302886  1
  Te  Te83  1  0.45827566  0.07885169  0.72461488  1
  Te  Te84  1  0.37803941  0.41117452  0.06057676  1
  Te  Te85  1  0.41963721  0.42526824  0.41206691  1
  Te  Te86  1  0.42151828  0.40080550  0.79419669  1
  Te  Te87  1  0.37281275  0.78943001  0.09587408  1
  Te  Te88  1  0.39285800  0.73172791  0.38352938  1
  Te  Te89  1  0.41324559  0.75234142  0.73915684  1
  Te  Te90  1  0.74833131  0.08226600  0.09937151  1
  Te  Te91  1  0.74229682  0.07489587  0.43823548  1
  Te  Te92  1  0.71339474  0.08194926  0.70875733  1
  Te  Te93  1  0.73350339  0.38932712  0.04791448  1
  Te  Te94  1  0.76025996  0.40999710  0.39561372  1
  Te  Te95  1  0.74695098  0.41753994  0.74178980  1
  Te  Te96  1  0.74472864  0.73543995  0.08061339  1
  Te  Te97  1  0.78776917  0.72416574  0.41143112  1
  Te  Te98  1  0.73780910  0.74719553  0.73748618  1
  Te  Te99  1  0.10742229  0.25621152  0.24264313  1
  Te  Te100  1  0.07593214  0.25510815  0.59747004  1
  Te  Te101  1  0.09540059  0.25088853  0.93094749  1
  Te  Te102  1  0.07208690  0.61076946  0.25603128  1
  Te  Te103  1  0.08214887  0.57637328  0.57421606  1
  Te  Te104  1  0.12205576  0.56087327  0.92312241  1
  Te  Te105  1  0.12053155  0.93574196  0.21720895  1
  Te  Te106  1  0.09640422  0.91276375  0.57960102  1
  Te  Te107  1  0.09686184  0.91446083  0.94926039  1
  Te  Te108  1  0.41131275  0.24357470  0.26268710  1
  Te  Te109  1  0.41561727  0.26513984  0.60741242  1
  Te  Te110  1  0.39174337  0.28616747  0.90346408  1
  Te  Te111  1  0.39704159  0.57674938  0.21382831  1
  Te  Te112  1  0.42279733  0.57979019  0.58570781  1
  Te  Te113  1  0.41654100  0.58929471  0.91120732  1
  Te  Te114  1  0.40524175  0.92167486  0.23569321  1
  Te  Te115  1  0.40421197  0.93230765  0.57967352  1
  Te  Te116  1  0.40817505  0.95568161  0.93422481  1
  Te  Te117  1  0.75040332  0.24936641  0.25549669  1
  Te  Te118  1  0.74860737  0.23299054  0.61535121  1
  Te  Te119  1  0.74114055  0.23348088  0.89690869  1
  Te  Te120  1  0.73687584  0.59277463  0.26035130  1
  Te  Te121  1  0.74281146  0.59900020  0.57627694  1
  Te  Te122  1  0.76137784  0.56906733  0.90476320  1
  Te  Te123  1  0.75915507  0.89597057  0.27561362  1
  Te  Te124  1  0.72556502  0.92417823  0.59552482  1
  Te  Te125  1  0.75977439  0.91280967  0.93054233  1
  Te  Te126  1  0.23648840  0.23235460  0.04557943  1
  Te  Te127  1  0.25079751  0.23723408  0.43060173  1
  Te  Te128  1  0.28834013  0.19592419  0.79454359  1
  Te  Te129  1  0.23590202  0.59128821  0.09035206  1
  Te  Te130  1  0.24539589  0.58417052  0.39915953  1
  Te  Te131  1  0.27101033  0.57721270  0.75374887  1
  Te  Te132  1  0.18597080  0.93396745  0.08064286  1
  Te  Te133  1  0.23197324  0.88643220  0.39700774  1
  Te  Te134  1  0.27453897  0.94392590  0.76189777  1
  Te  Te135  1  0.57063693  0.23748073  0.06900238  1
  Te  Te136  1  0.61109810  0.22087659  0.45033493  1
  Te  Te137  1  0.53476655  0.21286566  0.75943388  1
  Te  Te138  1  0.57171112  0.57581580  0.09808204  1
  Te  Te139  1  0.58057922  0.59149782  0.41611613  1
  Te  Te140  1  0.59112406  0.58324568  0.72430204  1
  Te  Te141  1  0.57540123  0.91640218  0.07851611  1
  Te  Te142  1  0.58148188  0.91035703  0.43344917  1
  Te  Te143  1  0.55019787  0.94484765  0.78375355  1
  Te  Te144  1  0.93110943  0.23239302  0.09749982  1
  Te  Te145  1  0.91247411  0.23981621  0.42122683  1
  Te  Te146  1  0.91235139  0.24281322  0.74187691  1
  Te  Te147  1  0.93261871  0.58140715  0.08969917  1
  Te  Te148  1  0.89780154  0.62262299  0.43838240  1
  Te  Te149  1  0.92755178  0.59785871  0.75075834  1
  Te  Te150  1  0.93586260  0.94109123  0.07265157  1
  Te  Te151  1  0.92271812  0.92549984  0.39971451  1
  Te  Te152  1  0.91361899  0.92444742  0.77357859  1
  Te  Te153  1  0.24302668  0.07286447  0.23716643  1
  Te  Te154  1  0.25243306  0.07774717  0.60081972  1
  Te  Te155  1  0.26414734  0.11219793  0.94732779  1
  Te  Te156  1  0.24276383  0.42232214  0.21328467  1
  Te  Te157  1  0.24796013  0.40007621  0.58944271  1
  Te  Te158  1  0.27564410  0.40494908  0.93813164  1
  Te  Te159  1  0.28423326  0.77093524  0.27642987  1
  Te  Te160  1  0.25841581  0.73319821  0.59043244  1
  Te  Te161  1  0.24652552  0.76798575  0.92130275  1
  Te  Te162  1  0.55788812  0.05955583  0.24255742  1
  Te  Te163  1  0.57338107  0.10394708  0.63559037  1
  Te  Te164  1  0.59186728  0.11586345  0.90415760  1
  Te  Te165  1  0.57605533  0.40808287  0.23328426  1
  Te  Te166  1  0.59024927  0.40116393  0.58574110  1
  Te  Te167  1  0.57531556  0.38984718  0.91965249  1
  Te  Te168  1  0.58122168  0.74497587  0.25735683  1
  Te  Te169  1  0.58547584  0.76112611  0.58644475  1
  Te  Te170  1  0.59074534  0.76510534  0.90722585  1
  Te  Te171  1  0.93880727  0.08493236  0.23985120  1
  Te  Te172  1  0.91211241  0.08826949  0.59193454  1
  Te  Te173  1  0.91748859  0.07699455  0.91102307  1
  Te  Te174  1  0.92350770  0.42386881  0.23955666  1
  Te  Te175  1  0.92464829  0.41766721  0.57583243  1
  Te  Te176  1  0.94445936  0.39166846  0.94016240  1
  Te  Te177  1  0.92466449  0.77024835  0.25758931  1
  Te  Te178  1  0.91437975  0.75567526  0.57823017  1
  Te  Te179  1  0.94440377  0.76365164  0.90943956  1
