# generated using pymatgen
data_In2Te3
_symmetry_space_group_name_H-M   'P 1'
_cell_length_a   18.80936086
_cell_length_b   18.80255675
_cell_length_c   18.80805646
_cell_angle_alpha   89.91968448
_cell_angle_beta   90.01557415
_cell_angle_gamma   89.93408475
_symmetry_Int_Tables_number   1
_chemical_formula_structural   In2Te3
_chemical_formula_sum   'In72 Te108'
_cell_volume   6651.72270454
_cell_formula_units_Z   36
loop_
 _symmetry_equiv_pos_site_id
 _symmetry_equiv_pos_as_xyz
  1  'x, y, z'
loop_
 _atom_site_type_symbol
 _atom_site_label
 _atom_site_symmetry_multiplicity
 _atom_site_fract_x
 _atom_site_fract_y
 _atom_site_fract_z
 _atom_site_occupancy
  In  In0  1  0.16160177  -0.00713989  0.16216222  1
  In  In1  1  0.65047081  0.83423756  0.84053866  1
  In  In2  1  0.33860086  -0.00100573  0.00826247  1
  In  In3  1  0.64878923  0.66343335  0.00436593  1
  In  In4  1  0.83339981  0.32573734  0.48149557  1
  In  In5  1  0.82081745  0.63967099  0.85745104  1
  In  In6  1  0.83619943  0.84543997  0.00526633  1
  In  In7  1  0.66923988  0.83767225  0.49812153  1
  In  In8  1  0.17596408  0.16985338  0.01013545  1
  In  In9  1  -0.00685655  0.50700422  0.51107503  1
  In  In10  1  0.16819876  0.50073743  0.02348048  1
  In  In11  1  0.48802730  0.31925856  0.84424004  1
  In  In12  1  -0.02384277  0.30115224  0.65760966  1
  In  In13  1  0.15591526  0.13395230  0.32567170  1
  In  In14  1  0.01893995  0.67349492  0.01587415  1
  In  In15  1  0.36890214  0.35181725  0.01652216  1
  In  In16  1  0.33877378  0.51809544  0.47769937  1
  In  In17  1  0.83869439  0.83549688  0.66110726  1
  In  In18  1  0.62210389  0.84568376  0.15796516  1
  In  In19  1  0.82826276  0.00869079  0.47850595  1
  In  In20  1  0.31862329  0.82406182  0.49081349  1
  In  In21  1  0.50985293  0.68515653  0.48809483  1
  In  In22  1  0.33561354  0.33521821  0.31801788  1
  In  In23  1  0.18178908  0.67790518  0.17499840  1
  In  In24  1  -0.02905872  0.50832470  0.83530158  1
  In  In25  1  0.83977125  0.84182480  0.33218452  1
  In  In26  1  0.65294262  0.32680637  -0.00208224  1
  In  In27  1  0.67585770  0.38664621  0.68898637  1
  In  In28  1  0.49538457  -0.02057033  0.47652730  1
  In  In29  1  0.82004581  0.15270184  0.67450221  1
  In  In30  1  0.67042044  0.14831015  0.48709686  1
  In  In31  1  0.01765929  0.68640756  0.33748317  1
  In  In32  1  0.35629950  0.52475922  0.87194933  1
  In  In33  1  0.52058630  0.00742488  0.83549547  1
  In  In34  1  0.16227802  0.34040526  0.81538499  1
  In  In35  1  0.02610853  -0.03058948  0.63225831  1
  In  In36  1  0.32483347  0.33548421  0.65871488  1
  In  In37  1  0.51370345  0.51544736  0.32566045  1
  In  In38  1  0.33747202  0.15167687  0.52655235  1
  In  In39  1  0.34578291  0.15778573  0.14382871  1
  In  In40  1  -0.02053790  0.14941337  0.83365478  1
  In  In41  1  0.48589187  0.67491665  0.15478818  1
  In  In42  1  0.81120998  0.51062873  0.00712180  1
  In  In43  1  -0.00335249  0.33444682  0.01749317  1
  In  In44  1  0.81877238  0.66957538  0.52081766  1
  In  In45  1  0.01288989  0.84872714  0.83662934  1
  In  In46  1  0.81184822  -0.00049712  0.85728789  1
  In  In47  1  0.83638849  0.01340655  0.16011286  1
  In  In48  1  0.66153648  0.17073628  0.15399787  1
  In  In49  1  0.18530645  0.50928061  0.32625277  1
  In  In50  1  0.01302691  0.17053491  0.48196542  1
  In  In51  1  0.16674939  0.53359988  0.70497297  1
  In  In52  1  0.35014335  0.81732309  0.82524583  1
  In  In53  1  0.49999301  0.16738250  0.66358316  1
  In  In54  1  0.18970103  0.15533506  0.67618306  1
  In  In55  1  -0.00525784  0.67134236  0.67563810  1
  In  In56  1  0.66253551  0.64949928  0.67383292  1
  In  In57  1  0.17409831  0.84776278  0.32978000  1
  In  In58  1  0.83098898  0.48608145  0.32382853  1
  In  In59  1  -0.01387450  0.31504009  0.32478458  1
  In  In60  1  0.33660894  -0.00085681  0.65583702  1
  In  In61  1  0.66292257  0.50236847  0.16258065  1
  In  In62  1  0.84481296  0.65123314  0.17599257  1
  In  In63  1  0.66998863  0.31454059  0.31985203  1
  In  In64  1  0.17270386  -0.01845792  0.85323229  1
  In  In65  1  0.48979248  0.51686176  0.65350407  1
  In  In66  1  0.35010218  0.67410700  0.33288026  1
  In  In67  1  0.66290237  0.16537300  0.85444592  1
  In  In68  1  0.18772178  0.34415822  0.48225208  1
  In  In69  1  0.19075771  0.68489524  0.85049568  1
  In  In70  1  -0.00645932  0.16670625  0.17495139  1
  In  In71  1  0.51013180  0.15226429  0.32295383  1
  Te  Te72  1  0.07299380  0.08179871  0.07305641  1
  Te  Te73  1  0.07396111  0.05283633  0.41767085  1
  Te  Te74  1  0.08666973  0.07231022  0.75343922  1
  Te  Te75  1  0.08343683  0.41441201  0.10651314  1
  Te  Te76  1  0.07251717  0.41749572  0.41251708  1
  Te  Te77  1  0.05748989  0.41621145  0.73391987  1
  Te  Te78  1  0.10215291  0.76938023  0.08760973  1
  Te  Te79  1  0.09624928  0.76795707  0.43375894  1
  Te  Te80  1  0.09690966  0.75674881  0.74972979  1
  Te  Te81  1  0.44624456  0.04823086  0.10603350  1
  Te  Te82  1  0.40331111  0.08100584  0.40869430  1
  Te  Te83  1  0.41141910  0.08689758  0.75589603  1
  Te  Te84  1  0.42933881  0.46150605  0.09069547  1
  Te  Te85  1  0.42512417  0.41489992  0.41237205  1
  Te  Te86  1  0.40458171  0.42237645  0.75565133  1
  Te  Te87  1  0.38434346  0.72373857  0.05579798  1
  Te  Te88  1  0.43924675  0.78000336  0.39363696  1
  Te  Te89  1  0.41671839  0.70916309  0.74867216  1
  Te  Te90  1  0.73503971  0.07351271  0.06794961  1
  Te  Te91  1  0.73564303  0.06946173  0.38054227  1
  Te  Te92  1  0.72306502  0.06573733  0.75182724  1
  Te  Te93  1  0.75385716  0.40256129  0.09623614  1
  Te  Te94  1  0.73164615  0.41787498  0.41651081  1
  Te  Te95  1  0.77243549  0.45447066  0.77267396  1
  Te  Te96  1  0.75701769  0.73646896  0.08183047  1
  Te  Te97  1  0.74750970  0.74375473  0.40801174  1
  Te  Te98  1  0.75973402  0.75069555  0.76014857  1
  Te  Te99  1  0.10251791  0.25283501  0.24866104  1
  Te  Te100  1  0.10653033  0.25465115  0.58528656  1
  Te  Te101  1  0.08237604  0.24820507  0.90735130  1
  Te  Te102  1  0.08031437  0.58329801  0.24403235  1
  Te  Te103  1  0.09212825  0.59630150  0.58320554  1
  Te  Te104  1  0.08714118  0.57836105  0.90523492  1
  Te  Te105  1  0.06925192  0.92102387  0.25326846  1
  Te  Te106  1  0.11983362  0.86964763  0.56970354  1
  Te  Te107  1  0.08255857  0.91385352  0.94833725  1
  Te  Te108  1  0.42961485  0.24882529  0.23462981  1
  Te  Te109  1  0.42741740  0.26660961  0.57098117  1
  Te  Te110  1  0.42724831  0.23296015  0.94893257  1
  Te  Te111  1  0.40105291  0.56767894  0.23681169  1
  Te  Te112  1  0.40316324  0.61615136  0.57301139  1
  Te  Te113  1  0.42684957  0.64529361  0.93051091  1
  Te  Te114  1  0.49421257  0.94360758  0.29191294  1
  Te  Te115  1  0.42247842  0.89686627  0.58357001  1
  Te  Te116  1  0.42864370  0.91341912  0.91677096  1
  Te  Te117  1  0.76363372  0.23753453  0.23790148  1
  Te  Te118  1  0.74421122  0.24768495  0.58168868  1
  Te  Te119  1  0.75847572  0.25000053  0.92652319  1
  Te  Te120  1  0.73572636  0.59054384  0.26280499  1
  Te  Te121  1  0.72994455  0.56431594  0.57292391  1
  Te  Te122  1  0.70459396  0.55395926  0.90360819  1
  Te  Te123  1  0.74611272  0.90199151  0.22606875  1
  Te  Te124  1  0.74889980  0.93330666  0.58643125  1
  Te  Te125  1  0.71649283  0.92081050  0.94791685  1
  Te  Te126  1  0.25595092  0.26969490  0.08906659  1
  Te  Te127  1  0.25685449  0.23072717  0.41020628  1
  Te  Te128  1  0.27194934  0.24367649  0.76898909  1
  Te  Te129  1  0.26462351  0.60127156  0.07397958  1
  Te  Te130  1  0.23691320  0.61610779  0.41934728  1
  Te  Te131  1  0.29199097  0.61254160  0.75167032  1
  Te  Te132  1  0.26502082  0.90719811  0.09729381  1
  Te  Te133  1  0.27011746  0.93363920  0.40455264  1
  Te  Te134  1  0.25206501  0.90878263  0.74621203  1
  Te  Te135  1  0.55695192  0.24852391  0.08099520  1
  Te  Te136  1  0.57533946  0.24868512  0.42169844  1
  Te  Te137  1  0.59269288  0.26084933  0.74283939  1
  Te  Te138  1  0.55401306  0.55447592  0.06798496  1
  Te  Te139  1  0.59440793  0.57844063  0.43158106  1
  Te  Te140  1  0.55664675  0.59406176  0.76204213  1
  Te  Te141  1  0.52611129  0.91723681  0.07237707  1
  Te  Te142  1  0.61147693  0.92915911  0.38876264  1
  Te  Te143  1  0.57131388  0.90637500  0.73975906  1
  Te  Te144  1  0.90396437  0.24099227  0.08317358  1
  Te  Te145  1  0.89436723  0.21609163  0.39657042  1
  Te  Te146  1  0.88546761  0.25374363  0.76984725  1
  Te  Te147  1  0.93252079  0.56813214  0.08342568  1
  Te  Te148  1  0.91320213  0.59108203  0.41051671  1
  Te  Te149  1  0.88467661  0.57729441  0.72701864  1
  Te  Te150  1  0.92855024  0.91486066  0.09395125  1
  Te  Te151  1  0.92726792  0.91232312  0.42845573  1
  Te  Te152  1  0.91487505  0.93237166  0.75281572  1
  Te  Te153  1  0.26742845  0.07152797  0.24240860  1
  Te  Te154  1  0.22441992  0.05747518  0.56561786  1
  Te  Te155  1  0.26097448  0.09064221  0.91207251  1
  Te  Te156  1  0.25304622  0.42109378  0.23120720  1
  Te  Te157  1  0.24321055  0.44280150  0.58543204  1
  Te  Te158  1  0.24906244  0.41772724  0.91378337  1
  Te  Te159  1  0.27994454  0.77441396  0.24218508  1
  Te  Te160  1  0.23057061  0.76749789  0.59382584  1
  Te  Te161  1  0.25556738  0.78430694  0.93832032  1
  Te  Te162  1  0.58125109  0.05456285  0.23103029  1
  Te  Te163  1  0.57530149  0.06878996  0.57688405  1
  Te  Te164  1  0.57818724  0.08744635  0.94652003  1
  Te  Te165  1  0.57515400  0.40442956  0.23989134  1
  Te  Te166  1  0.57629643  0.41801077  0.58599899  1
  Te  Te167  1  0.57119143  0.41925328  0.91364597  1
  Te  Te168  1  0.58187057  0.73579334  0.24867879  1
  Te  Te169  1  0.58599209  0.75957237  0.59817381  1
  Te  Te170  1  0.55721489  0.74744761  0.92090756  1
  Te  Te171  1  0.92898718  0.06785727  0.26399390  1
  Te  Te172  1  0.92986551  0.08971324  0.59003072  1
  Te  Te173  1  0.91002766  0.07353017  0.93796433  1
  Te  Te174  1  0.91530855  0.40704274  0.23404651  1
  Te  Te175  1  0.89901662  0.41391268  0.58701002  1
  Te  Te176  1  0.89901153  0.41176464  0.92463345  1
  Te  Te177  1  0.93104524  0.76057616  0.23609919  1
  Te  Te178  1  0.93195593  0.76078483  0.56742640  1
  Te  Te179  1  0.92047411  0.74290781  0.91133623  1
