# generated using pymatgen
data_In2Te3
_symmetry_space_group_name_H-M   'P 1'
_cell_length_a   18.99728878
_cell_length_b   19.00116948
_cell_length_c   18.98517420
_cell_angle_alpha   89.97162056
_cell_angle_beta   89.93915064
_cell_angle_gamma   89.85501485
_symmetry_Int_Tables_number   1
_chemical_formula_structural   In2Te3
_chemical_formula_sum   'In72 Te108'
_cell_volume   6853.06505652
_cell_formula_units_Z   36
loop_
 _symmetry_equiv_pos_site_id
 _symmetry_equiv_pos_as_xyz
  1  'x, y, z'
loop_
 _atom_site_type_symbol
 _atom_site_label
 _atom_site_symmetry_multiplicity
 _atom_site_fract_x
 _atom_site_fract_y
 _atom_site_fract_z
 _atom_site_occupancy
  In  In0  1  -0.02297433  0.67332414  0.68278849  1
  In  In1  1  0.52992186  0.91141479  0.27798875  1
  In  In2  1  0.14571548  0.80814859  0.33735712  1
  In  In3  1  -0.00974563  0.83353472  0.84536089  1
  In  In4  1  0.84340027  0.49381976  0.65843994  1
  In  In5  1  0.64869498  -0.00864981  0.68057964  1
  In  In6  1  0.34614887  0.32698128  -0.03174433  1
  In  In7  1  0.16018309  0.49859673  0.31048340  1
  In  In8  1  0.83922240  0.49486488  0.00352807  1
  In  In9  1  -0.02355169  0.48889446  0.50303683  1
  In  In10  1  0.36064866  0.68158294  0.34275184  1
  In  In11  1  0.64976730  0.31894486  0.01811079  1
  In  In12  1  0.84004986  0.15442778  0.65616347  1
  In  In13  1  0.00698398  0.33456927  0.32861898  1
  In  In14  1  0.31660826  0.01659790  0.36748854  1
  In  In15  1  0.86295026  0.00038549  0.84696078  1
  In  In16  1  0.32079111  0.49951244  0.85860937  1
  In  In17  1  0.00456448  0.00578608  0.33358898  1
  In  In18  1  0.66512559  0.17941321  0.84011012  1
  In  In19  1  0.14596877  0.64281221  0.48859114  1
  In  In20  1  -0.00653431  0.67580181  -0.00519906  1
  In  In21  1  0.32818951  0.47411932  0.50894139  1
  In  In22  1  0.50874326  0.50155429  0.00428332  1
  In  In23  1  0.00046777  0.65459064  0.32308535  1
  In  In24  1  0.65085451  0.49561821  0.86441359  1
  In  In25  1  0.50866656  0.01467612  0.49481775  1
  In  In26  1  0.67458043  0.83638331  0.50597257  1
  In  In27  1  0.85843203  0.33956542  0.81680277  1
  In  In28  1  0.82655712  0.34447190  0.19210518  1
  In  In29  1  0.03417325  0.29804143  0.66423503  1
  In  In30  1  0.32731841  0.17247999  0.51618071  1
  In  In31  1  0.16889379  0.15551530  -0.01174105  1
  In  In32  1  0.35538982  0.82881231  0.84463449  1
  In  In33  1  0.81881707  0.84317810  0.01411221  1
  In  In34  1  0.82994099  0.32404924  0.46292953  1
  In  In35  1  0.32787242  0.64310621  0.68197686  1
  In  In36  1  0.48515582  0.33974860  0.16678470  1
  In  In37  1  0.51776257  0.66088078  0.15947700  1
  In  In38  1  0.54892173  0.83747689  0.69437879  1
  In  In39  1  0.18409245  0.35276471  0.15073979  1
  In  In40  1  0.33407090  0.80792413  0.52060429  1
  In  In41  1  0.50154183  0.17728013  0.02472001  1
  In  In42  1  0.82317402  0.02267642  0.49186866  1
  In  In43  1  0.54110131  0.69291151  0.84270204  1
  In  In44  1  -0.01201863  0.17195743  0.18206266  1
  In  In45  1  0.34016095  0.81766231  0.16193483  1
  In  In46  1  0.34937264  0.16625037  0.17808423  1
  In  In47  1  0.51777624  0.68651234  0.50871769  1
  In  In48  1  0.15262832  0.85338192  0.66847322  1
  In  In49  1  0.32797515  0.66776589  -0.00431610  1
  In  In50  1  0.15894851  0.50568927  -0.00452870  1
  In  In51  1  0.44909964  0.30866055  0.79618906  1
  In  In52  1  0.02214532  0.31708177  -0.00786470  1
  In  In53  1  0.35124191  -0.01227526  -0.00506093  1
  In  In54  1  -0.00512780  0.00183334  0.65973929  1
  In  In55  1  0.17319891  0.01480643  0.50410311  1
  In  In56  1  0.66893731  0.66673050  0.32122734  1
  In  In57  1  0.51667221  0.48515788  0.65754713  1
  In  In58  1  0.17897007  0.47426864  0.67024477  1
  In  In59  1  0.64750523  0.35171493  0.65617976  1
  In  In60  1  0.66571360  0.34305637  0.33290110  1
  In  In61  1  0.18701400  0.00404395  0.14891953  1
  In  In62  1  0.84136424  0.14911415  -0.00964424  1
  In  In63  1  0.36154216  0.02361737  0.66473208  1
  In  In64  1  0.83016597  0.64595135  0.51700615  1
  In  In65  1  -0.00860221  0.83352639  0.13788363  1
  In  In66  1  0.48200812  0.49371176  0.34228901  1
  In  In67  1  0.81839984  0.68775566  0.16042356  1
  In  In68  1  0.80353298  0.86905106  0.30948072  1
  In  In69  1  0.66931499  0.16765275  0.48321999  1
  In  In70  1  0.15254736  -0.02758110  0.82528165  1
  In  In71  1  0.67074812  0.00184837  0.04353902  1
  Te  Te72  1  0.07815777  0.08762059  0.08710532  1
  Te  Te73  1  0.09997279  0.09678445  0.40332414  1
  Te  Te74  1  0.09354018  0.07492783  0.73840357  1
  Te  Te75  1  0.06853186  0.42486685  0.08844866  1
  Te  Te76  1  0.08720247  0.42616404  0.42131837  1
  Te  Te77  1  0.06701272  0.41583014  0.74342604  1
  Te  Te78  1  0.09188525  0.75290427  0.07231216  1
  Te  Te79  1  0.04873219  0.74522483  0.43623868  1
  Te  Te80  1  0.08357497  0.75279232  0.75704089  1
  Te  Te81  1  0.42963066  0.06640497  0.09965633  1
  Te  Te82  1  0.42678519  0.10845993  0.41021688  1
  Te  Te83  1  0.43304060  0.07628020  0.77952310  1
  Te  Te84  1  0.39953535  0.42273343  0.07297955  1
  Te  Te85  1  0.39951896  0.39164525  0.41052219  1
  Te  Te86  1  0.39490871  0.44000514  0.73626493  1
  Te  Te87  1  0.43502625  0.74866656  0.06678056  1
  Te  Te88  1  0.44391631  0.78272458  0.41830233  1
  Te  Te89  1  0.42816252  0.74467159  0.72936293  1
  Te  Te90  1  0.74549180  0.11742488  0.09460457  1
  Te  Te91  1  0.75825395  0.10216983  0.38563836  1
  Te  Te92  1  0.75258141  0.08294975  0.75857146  1
  Te  Te93  1  0.73875139  0.41596073  0.08905060  1
  Te  Te94  1  0.74336874  0.43393001  0.42221996  1
  Te  Te95  1  0.73981992  0.41699372  0.76060651  1
  Te  Te96  1  0.71361601  0.75769699  0.07883735  1
  Te  Te97  1  0.75971088  0.75404132  0.40923153  1
  Te  Te98  1  0.64952444  0.79484854  0.80223144  1
  Te  Te99  1  0.10004440  0.25687436  0.23619915  1
  Te  Te100  1  0.12215056  0.25324023  0.55442309  1
  Te  Te101  1  0.10588381  0.24796601  0.89290857  1
  Te  Te102  1  0.09565970  0.59969945  0.22828107  1
  Te  Te103  1  0.06804583  0.56912764  0.59529202  1
  Te  Te104  1  0.07352339  0.58621511  0.90958303  1
  Te  Te105  1  0.09852647  0.91658574  0.24342880  1
  Te  Te106  1  0.07106123  0.91562529  0.55956367  1
  Te  Te107  1  0.07059354  0.91774918  0.93238311  1
  Te  Te108  1  0.40753876  0.26551974  0.26776465  1
  Te  Te109  1  0.41313804  0.24758205  0.60776150  1
  Te  Te110  1  0.41009872  0.20475577  0.90594631  1
  Te  Te111  1  0.41361609  0.58455637  0.23985838  1
  Te  Te112  1  0.41663457  0.58924829  0.56868629  1
  Te  Te113  1  0.43620511  0.59007422  0.90168787  1
  Te  Te114  1  0.37927912  0.92624433  0.25905011  1
  Te  Te115  1  0.42751621  0.91648086  0.57645775  1
  Te  Te116  1  0.45139643  0.90112198  0.92870974  1
  Te  Te117  1  0.75953182  0.24284927  0.27463844  1
  Te  Te118  1  0.75040407  0.25516515  0.58849690  1
  Te  Te119  1  0.76086477  0.27092353  0.91678057  1
  Te  Te120  1  0.75452238  0.58281786  0.23897894  1
  Te  Te121  1  0.74104921  0.53722028  0.56119287  1
  Te  Te122  1  0.75219599  0.58207329  0.92256137  1
  Te  Te123  1  0.71471896  0.93271952  0.20876505  1
  Te  Te124  1  0.75652154  0.92935002  0.59275248  1
  Te  Te125  1  0.74641281  0.94251148  0.92174194  1
  Te  Te126  1  0.26599795  0.24055178  0.07321315  1
  Te  Te127  1  0.21264132  0.21671811  0.43384877  1
  Te  Te128  1  0.32427622  0.27693780  0.72245608  1
  Te  Te129  1  0.26422519  0.56596742  0.07789749  1
  Te  Te130  1  0.26369631  0.58589536  0.41487786  1
  Te  Te131  1  0.22537989  0.58084308  0.77168295  1
  Te  Te132  1  0.25209685  0.89581160  0.06601915  1
  Te  Te133  1  0.24125166  0.88903688  0.43029288  1
  Te  Te134  1  0.27607243  0.90880396  0.73401768  1
  Te  Te135  1  0.59182169  0.23654597  0.13102546  1
  Te  Te136  1  0.57848421  0.26954569  0.42864694  1
  Te  Te137  1  0.57576564  0.24530396  0.73791420  1
  Te  Te138  1  0.60799831  0.57762547  0.07813591  1
  Te  Te139  1  0.58005477  0.58646527  0.41517478  1
  Te  Te140  1  0.59171298  0.57685478  0.74981104  1
  Te  Te141  1  0.56875152  0.92151387  0.12416914  1
  Te  Te142  1  0.60825201  0.93578149  0.41565089  1
  Te  Te143  1  0.53710969  0.96504673  0.78139760  1
  Te  Te144  1  0.91171479  0.26091910  0.08264507  1
  Te  Te145  1  0.92985358  0.23583309  0.40580393  1
  Te  Te146  1  0.93045651  0.22308008  0.75536125  1
  Te  Te147  1  0.91512970  0.59142275  0.09360113  1
  Te  Te148  1  0.90165809  0.57333640  0.40272706  1
  Te  Te149  1  0.88772270  0.58728175  0.76021627  1
  Te  Te150  1  0.90343927  0.93941837  0.08831548  1
  Te  Te151  1  0.90347561  0.92162084  0.41131717  1
  Te  Te152  1  0.90839271  0.90593734  0.73881551  1
  Te  Te153  1  0.24355038  0.09291204  0.25719528  1
  Te  Te154  1  0.23599229  0.09254815  0.61693501  1
  Te  Te155  1  0.25077571  0.05838890  0.90631649  1
  Te  Te156  1  0.26247375  0.40573865  0.26216809  1
  Te  Te157  1  0.22901298  0.37913519  0.56727918  1
  Te  Te158  1  0.22709535  0.39203999  0.90537708  1
  Te  Te159  1  0.24915505  0.73523436  0.25341412  1
  Te  Te160  1  0.22768509  0.72825914  0.59367204  1
  Te  Te161  1  0.24930807  0.74897853  0.90384759  1
  Te  Te162  1  0.59852592  0.03567110  0.22916818  1
  Te  Te163  1  0.58583832  0.09746322  0.59364726  1
  Te  Te164  1  0.59574136  0.09315285  0.94106638  1
  Te  Te165  1  0.57821079  0.43077648  0.24311946  1
  Te  Te166  1  0.55721634  0.39516566  0.54734198  1
  Te  Te167  1  0.55854997  0.38251535  0.91371545  1
  Te  Te168  1  0.57156745  0.76185007  0.25770489  1
  Te  Te169  1  0.62305808  0.73383825  0.60431266  1
  Te  Te170  1  0.62022015  0.75723414  0.95197456  1
  Te  Te171  1  0.91428028  0.05131191  0.22541802  1
  Te  Te172  1  0.93819138  0.09922755  0.55660657  1
  Te  Te173  1  0.95167876  0.09459350  0.91248888  1
  Te  Te174  1  0.92616646  0.43031837  0.25274936  1
  Te  Te175  1  0.91714262  0.37822665  0.58856621  1
  Te  Te176  1  0.93814921  0.42128395  0.91349745  1
  Te  Te177  1  0.91524712  0.77115370  0.25467433  1
  Te  Te178  1  0.89461634  0.75199678  0.59180175  1
  Te  Te179  1  0.88584041  0.75033193  0.91505787  1
