# generated using pymatgen
data_In2Te3
_symmetry_space_group_name_H-M   'P 1'
_cell_length_a   18.83461471
_cell_length_b   18.83739194
_cell_length_c   18.84214254
_cell_angle_alpha   90.03738515
_cell_angle_beta   89.98020633
_cell_angle_gamma   89.85501191
_symmetry_Int_Tables_number   1
_chemical_formula_structural   In2Te3
_chemical_formula_sum   'In72 Te108'
_cell_volume   6685.07509575
_cell_formula_units_Z   36
loop_
 _symmetry_equiv_pos_site_id
 _symmetry_equiv_pos_as_xyz
  1  'x, y, z'
loop_
 _atom_site_type_symbol
 _atom_site_label
 _atom_site_symmetry_multiplicity
 _atom_site_fract_x
 _atom_site_fract_y
 _atom_site_fract_z
 _atom_site_occupancy
  In  In0  1  0.00874174  0.00412567  -0.02567480  1
  In  In1  1  0.67864886  0.00757637  0.35181908  1
  In  In2  1  0.49858126  0.30554187  0.15904783  1
  In  In3  1  0.49370642  0.19283364  0.35452309  1
  In  In4  1  0.17587877  0.31940144  0.83450238  1
  In  In5  1  0.15729137  0.18420984  -0.02002858  1
  In  In6  1  0.68512099  0.50713392  0.52275065  1
  In  In7  1  0.16032716  0.34993769  0.17026576  1
  In  In8  1  0.68296538  0.68067075  0.34541018  1
  In  In9  1  0.51527718  0.84098600  0.68441146  1
  In  In10  1  0.31818297  0.02814550  -0.00150712  1
  In  In11  1  0.32170852  0.16568548  0.50750766  1
  In  In12  1  0.00588162  0.84254348  0.15574231  1
  In  In13  1  -0.03189995  0.69416096  0.64622040  1
  In  In14  1  0.31351390  0.51854713  0.49557132  1
  In  In15  1  0.51700600  0.82492524  0.00103271  1
  In  In16  1  0.83636782  0.16464489  -0.00672624  1
  In  In17  1  0.51790606  0.15988720  -0.02792556  1
  In  In18  1  0.36068314  0.16069828  0.17831196  1
  In  In19  1  -0.00677859  0.48555617  0.13820392  1
  In  In20  1  -0.00168795  0.50206816  0.84327913  1
  In  In21  1  0.66966015  0.31122849  0.67075914  1
  In  In22  1  -0.03859370  0.15381623  0.17580455  1
  In  In23  1  0.00005107  0.66976390  0.32718741  1
  In  In24  1  0.83412287  0.66382752  0.16615378  1
  In  In25  1  0.49338476  0.67554434  0.49474741  1
  In  In26  1  0.50321144  0.28529377  0.48785218  1
  In  In27  1  0.86329237  0.71330610  0.86513273  1
  In  In28  1  0.82968912  0.14267783  0.34856057  1
  In  In29  1  0.67198707  0.48683950  0.82527301  1
  In  In30  1  0.63586999  0.32753723  0.34291245  1
  In  In31  1  -0.00839243  0.31401455  0.65527735  1
  In  In32  1  0.32170229  0.15784349  0.82314289  1
  In  In33  1  0.32336983  0.49447177  0.17130606  1
  In  In34  1  0.33147091  -0.01712674  0.33880043  1
  In  In35  1  0.15285640  0.85630348  -0.02558368  1
  In  In36  1  0.68384636  0.15239648  0.15676788  1
  In  In37  1  0.51361924  0.85648469  0.33903636  1
  In  In38  1  0.48742595  0.47731887  0.67613376  1
  In  In39  1  0.70852433  0.84142801  0.51441371  1
  In  In40  1  0.03266773  0.34958123  0.35144853  1
  In  In41  1  0.85832361  0.12984163  0.68399768  1
  In  In42  1  0.66701264  0.68391627  -0.01294732  1
  In  In43  1  0.69845613  0.17486997  0.83543922  1
  In  In44  1  0.32269093  0.02000459  0.65601289  1
  In  In45  1  0.31148411  0.84064574  0.52360514  1
  In  In46  1  0.51572751  0.32447967  0.82553501  1
  In  In47  1  0.82938420  0.32267320  0.14574159  1
  In  In48  1  0.13109588  0.83408572  0.64380751  1
  In  In49  1  0.32683379  0.84809408  0.83279332  1
  In  In50  1  0.30855108  0.69377702  0.67978432  1
  In  In51  1  0.54021851  -0.01264751  0.83454851  1
  In  In52  1  0.69910980  0.68472756  0.68950615  1
  In  In53  1  0.84247298  0.52224095  0.32299308  1
  In  In54  1  0.14592853  0.66364766  0.81561427  1
  In  In55  1  0.49216775  0.63743617  0.87647662  1
  In  In56  1  0.16033686  0.83200634  0.35162738  1
  In  In57  1  0.31908536  0.35242135  0.00826044  1
  In  In58  1  0.15940212  0.51871577  0.65996955  1
  In  In59  1  0.52621529  -0.02727727  0.18702784  1
  In  In60  1  0.17046379  0.65039507  0.15566500  1
  In  In61  1  0.16461337  -0.01200671  0.16514326  1
  In  In62  1  0.83731731  0.50261670  -0.00256893  1
  In  In63  1  0.82695101  0.50234184  0.66147807  1
  In  In64  1  -0.01278565  0.15798309  0.50529618  1
  In  In65  1  0.15387637  0.17405325  0.36760006  1
  In  In66  1  0.67815623  0.82914723  0.18031024  1
  In  In67  1  0.48724593  0.48143775  0.33139993  1
  In  In68  1  0.82371067  0.32512897  0.51533856  1
  In  In69  1  0.30116520  0.65664207  0.34576938  1
  In  In70  1  0.49296584  0.65500257  0.12539007  1
  In  In71  1  0.31918794  0.33676618  0.68563688  1
  Te  Te72  1  0.08378189  0.08954573  0.08514502  1
  Te  Te73  1  0.04758731  0.07842913  0.39504385  1
  Te  Te74  1  0.10886182  0.03082258  0.77882531  1
  Te  Te75  1  0.09561426  0.41591426  0.05404854  1
  Te  Te76  1  0.11200365  0.44179727  0.42943927  1
  Te  Te77  1  0.08331677  0.41555895  0.74509452  1
  Te  Te78  1  0.09125732  0.75198633  0.07002837  1
  Te  Te79  1  0.06805943  0.75019455  0.43756025  1
  Te  Te80  1  0.04991979  0.76556580  0.75423142  1
  Te  Te81  1  0.44138963  0.07311583  0.08138535  1
  Te  Te82  1  0.41739545  0.07411649  0.42084031  1
  Te  Te83  1  0.42460449  0.06583252  0.76053940  1
  Te  Te84  1  0.42944728  0.42112534  0.08626660  1
  Te  Te85  1  0.41842587  0.41792876  0.44772610  1
  Te  Te86  1  0.40000921  0.41855889  0.78553459  1
  Te  Te87  1  0.40631836  0.75979065  0.07244160  1
  Te  Te88  1  0.39855595  0.76476942  0.41512954  1
  Te  Te89  1  0.42479933  0.74118530  0.76495576  1
  Te  Te90  1  0.77758155  0.06427398  0.08674671  1
  Te  Te91  1  0.78590966  0.04316683  0.45034344  1
  Te  Te92  1  0.77146205  0.04902125  0.78049241  1
  Te  Te93  1  0.74691257  0.42927256  0.08811912  1
  Te  Te94  1  0.74439882  0.41771744  0.41231575  1
  Te  Te95  1  0.76858337  0.39366892  0.75120612  1
  Te  Te96  1  0.76440816  0.76269710  0.07289519  1
  Te  Te97  1  0.77989819  0.77264124  0.40425305  1
  Te  Te98  1  0.78626764  0.79129269  0.75595283  1
  Te  Te99  1  0.07727090  0.24249690  0.24209283  1
  Te  Te100  1  0.08765220  0.24891315  0.56471991  1
  Te  Te101  1  0.06056287  0.23865813  0.88291841  1
  Te  Te102  1  0.07417895  0.56800418  0.23911920  1
  Te  Te103  1  0.05605412  0.59221845  0.58469576  1
  Te  Te104  1  0.06945187  0.60261789  0.92567403  1
  Te  Te105  1  0.07187222  0.92462782  0.26649236  1
  Te  Te106  1  0.05544602  0.93191527  0.56039493  1
  Te  Te107  1  0.06321124  0.91225124  0.86057188  1
  Te  Te108  1  0.39733766  0.27784413  0.26936683  1
  Te  Te109  1  0.41397302  0.24630470  0.61119610  1
  Te  Te110  1  0.39997370  0.24550303  0.92280523  1
  Te  Te111  1  0.41487498  0.59630821  0.25999782  1
  Te  Te112  1  0.41357061  0.59224407  0.59490812  1
  Te  Te113  1  0.38666243  0.57785450  0.95364481  1
  Te  Te114  1  0.40394821  0.89783936  0.23534248  1
  Te  Te115  1  0.42320679  0.91897476  0.58955178  1
  Te  Te116  1  0.41894667  0.93008657  0.92265815  1
  Te  Te117  1  0.74788771  0.24912405  0.25858450  1
  Te  Te118  1  0.75990743  0.21397198  0.59583190  1
  Te  Te119  1  0.75268006  0.27109180  0.93121262  1
  Te  Te120  1  0.72927511  0.58079896  0.23891659  1
  Te  Te121  1  0.77409229  0.61789921  0.57212978  1
  Te  Te122  1  0.75626384  0.59749580  0.89304915  1
  Te  Te123  1  0.75997403  0.92189978  0.26163499  1
  Te  Te124  1  0.79625142  0.92975633  0.59994339  1
  Te  Te125  1  0.72514091  0.83563451  0.88983616  1
  Te  Te126  1  0.25742412  0.23600954  0.09004469  1
  Te  Te127  1  0.26369918  0.26035669  0.40988933  1
  Te  Te128  1  0.22496156  0.22324118  0.72541297  1
  Te  Te129  1  0.27136431  0.58436437  0.06177053  1
  Te  Te130  1  0.19660615  0.57385649  0.41508651  1
  Te  Te131  1  0.26018214  0.57552841  0.76100504  1
  Te  Te132  1  0.25808688  0.91060399  0.07408948  1
  Te  Te133  1  0.22779537  0.93750054  0.44057556  1
  Te  Te134  1  0.23796479  0.91168038  0.72680720  1
  Te  Te135  1  0.60307538  0.24656057  0.06565241  1
  Te  Te136  1  0.63889386  0.20622652  0.43801999  1
  Te  Te137  1  0.57981418  0.21288852  0.74636486  1
  Te  Te138  1  0.59582406  0.57579527  0.05911649  1
  Te  Te139  1  0.58350819  0.57570016  0.41978286  1
  Te  Te140  1  0.59184001  0.57628752  0.72939674  1
  Te  Te141  1  0.61164421  0.91937669  0.07374446  1
  Te  Te142  1  0.59148985  0.92489104  0.44711493  1
  Te  Te143  1  0.61347395  0.94712797  0.71205588  1
  Te  Te144  1  0.94124902  0.25783044  0.06852414  1
  Te  Te145  1  0.91462157  0.26527249  0.40506865  1
  Te  Te146  1  0.92352925  0.23960390  0.76268820  1
  Te  Te147  1  0.93069050  0.60445563  0.06506801  1
  Te  Te148  1  0.92006371  0.59057089  0.42540124  1
  Te  Te149  1  0.90808876  0.59253935  0.75481744  1
  Te  Te150  1  0.91645561  0.92221368  0.06318605  1
  Te  Te151  1  0.96624378  0.86846848  0.45238787  1
  Te  Te152  1  0.87717450  0.94826903  0.73363085  1
  Te  Te153  1  0.25077061  0.08440955  0.25342156  1
  Te  Te154  1  0.21766594  0.08640217  0.57595273  1
  Te  Te155  1  0.21331069  0.06154237  0.88759380  1
  Te  Te156  1  0.23871973  0.42480701  0.26959067  1
  Te  Te157  1  0.24009090  0.41337734  0.58165243  1
  Te  Te158  1  0.21233507  0.42540803  0.93394806  1
  Te  Te159  1  0.24003574  0.75424919  0.24522861  1
  Te  Te160  1  0.21950855  0.72707625  0.56501811  1
  Te  Te161  1  0.24045008  0.74945881  0.90673434  1
  Te  Te162  1  0.57379321  0.09906984  0.25597361  1
  Te  Te163  1  0.54206255  0.14812623  0.54154237  1
  Te  Te164  1  0.62843398  0.06636275  0.92923570  1
  Te  Te165  1  0.58306858  0.41614979  0.23247021  1
  Te  Te166  1  0.58713333  0.40194065  0.57979549  1
  Te  Te167  1  0.57740451  0.42081059  0.91672279  1
  Te  Te168  1  0.57196236  0.74471830  0.25108529  1
  Te  Te169  1  0.59633892  0.74607798  0.58230044  1
  Te  Te170  1  0.59098389  0.76418327  0.87169730  1
  Te  Te171  1  0.89629733  0.04779793  0.25471228  1
  Te  Te172  1  0.97974131  0.06278226  0.62352481  1
  Te  Te173  1  0.91346082  0.08352365  0.89332069  1
  Te  Te174  1  0.91762440  0.40996537  0.24821889  1
  Te  Te175  1  0.92300564  0.42508252  0.57125416  1
  Te  Te176  1  0.91222008  0.40672702  0.91526406  1
  Te  Te177  1  0.91158542  0.76590752  0.24837811  1
  Te  Te178  1  0.89314557  0.80390165  0.57529808  1
  Te  Te179  1  0.92542864  0.82226693  0.94139703  1
