# generated using pymatgen
data_In2Te3
_symmetry_space_group_name_H-M   'P 1'
_cell_length_a   18.82509091
_cell_length_b   18.83700526
_cell_length_c   18.82898153
_cell_angle_alpha   89.98055617
_cell_angle_beta   89.98378114
_cell_angle_gamma   89.97783055
_symmetry_Int_Tables_number   1
_chemical_formula_structural   In2Te3
_chemical_formula_sum   'In72 Te108'
_cell_volume   6676.91266761
_cell_formula_units_Z   36
loop_
 _symmetry_equiv_pos_site_id
 _symmetry_equiv_pos_as_xyz
  1  'x, y, z'
loop_
 _atom_site_type_symbol
 _atom_site_label
 _atom_site_symmetry_multiplicity
 _atom_site_fract_x
 _atom_site_fract_y
 _atom_site_fract_z
 _atom_site_occupancy
  In  In0  1  0.82732225  0.17182861  0.64910894  1
  In  In1  1  0.17387452  0.66093932  0.16042053  1
  In  In2  1  -0.01074899  0.67503370  -0.03015524  1
  In  In3  1  0.01433389  0.68557897  0.65566529  1
  In  In4  1  0.32410814  0.84118577  0.50940810  1
  In  In5  1  -0.00589125  -0.01827599  0.63379096  1
  In  In6  1  0.50000713  0.83287615  -0.00305757  1
  In  In7  1  0.14215051  0.15845159  0.02785868  1
  In  In8  1  0.15969011  0.15499419  0.32702104  1
  In  In9  1  0.65589907  0.16091461  0.84704948  1
  In  In10  1  0.66390376  0.01593515  0.33137271  1
  In  In11  1  0.16590842  0.48670375  0.34314712  1
  In  In12  1  0.67411995  0.47317790  0.47743205  1
  In  In13  1  0.67015501  0.84070087  0.82423241  1
  In  In14  1  0.16103272  0.00803193  0.49769643  1
  In  In15  1  0.82235034  0.85465972  0.66206369  1
  In  In16  1  0.82918544  0.30229546  0.21632026  1
  In  In17  1  0.82631826  -0.00012021  0.84801614  1
  In  In18  1  0.34465774  0.51150467  0.82668381  1
  In  In19  1  0.33927792  -0.00501918  0.01600384  1
  In  In20  1  0.35251366  0.32320595  0.64598323  1
  In  In21  1  -0.01751450  0.34309709  0.02187220  1
  In  In22  1  -0.00888339  0.45013620  0.15596784  1
  In  In23  1  0.50459820  0.66028661  0.14470840  1
  In  In24  1  0.15774584  0.16099647  0.64358684  1
  In  In25  1  0.83739905  0.67157769  0.18540678  1
  In  In26  1  0.00833722  0.67008862  0.34147461  1
  In  In27  1  0.66450934  0.44035049  0.19882648  1
  In  In28  1  0.36055799  0.30700630  0.31386334  1
  In  In29  1  0.52028578  0.17556505  0.32672815  1
  In  In30  1  0.00516115  0.51156608  0.83998293  1
  In  In31  1  0.35207473  0.18028271  0.84052038  1
  In  In32  1  0.00157569  0.32060855  0.66440653  1
  In  In33  1  0.36227871  0.32922389  -0.00387626  1
  In  In34  1  0.16190255  0.33936618  0.83374570  1
  In  In35  1  0.84069487  0.66933041  0.86482087  1
  In  In36  1  0.82695830  0.49308552  0.01803136  1
  In  In37  1  -0.01589360  0.84673132  0.17735060  1
  In  In38  1  0.67341965  0.67128946  0.33659016  1
  In  In39  1  -0.01890969  0.49817047  0.49933422  1
  In  In40  1  0.19490254  -0.01394168  0.83922546  1
  In  In41  1  0.31775018  -0.00192714  0.66039841  1
  In  In42  1  0.50485510  0.67950599  0.50618190  1
  In  In43  1  0.15511479  0.85185956  0.33311692  1
  In  In44  1  0.35222167  0.49155394  0.17191363  1
  In  In45  1  0.62401078  0.31445021  0.01646978  1
  In  In46  1  0.18502003  0.83425352  0.00474904  1
  In  In47  1  0.00331749  0.00485423  0.02790143  1
  In  In48  1  0.17833136  0.68698191  0.50948204  1
  In  In49  1  0.68829382  0.85172772  0.18641168  1
  In  In50  1  0.36354492  0.89101488  0.18872081  1
  In  In51  1  0.79466349  0.16955697  0.02352962  1
  In  In52  1  0.83637077  -0.00738034  0.47426398  1
  In  In53  1  0.50129352  0.01888384  0.47590156  1
  In  In54  1  0.35479552  0.15100340  0.18058991  1
  In  In55  1  0.34835798  0.48452646  0.49696874  1
  In  In56  1  0.65701177  0.02483006  0.01905465  1
  In  In57  1  0.82819459  0.48134679  0.67155481  1
  In  In58  1  0.36105152  0.65488727  -0.01195689  1
  In  In59  1  -0.00795848  0.16135148  0.81400324  1
  In  In60  1  0.34952906  0.66921458  0.31298083  1
  In  In61  1  0.64108872  0.67174877  0.65666529  1
  In  In62  1  0.67385769  0.32992558  0.65791426  1
  In  In63  1  0.49580252  0.16339261  0.64824185  1
  In  In64  1  0.67497736  0.66079523  0.01199551  1
  In  In65  1  0.82248405  0.68636708  0.49845903  1
  In  In66  1  0.17013584  0.33459916  0.50364014  1
  In  In67  1  0.16675530  0.66664559  0.81953212  1
  In  In68  1  0.63099149  -0.00164767  0.66371674  1
  In  In69  1  0.47387501  0.67356270  0.80453182  1
  In  In70  1  0.14309662  0.30279705  0.16822494  1
  In  In71  1  0.49315852  0.49093046  0.67066057  1
  Te  Te72  1  0.07345531  0.08192212  0.13829374  1
  Te  Te73  1  0.06333705  0.07101732  0.40525221  1
  Te  Te74  1  0.09193146  0.06839808  0.74587765  1
  Te  Te75  1  0.11067070  0.41512878  0.06881337  1
  Te  Te76  1  0.06427493  0.40094202  0.41372052  1
  Te  Te77  1  0.08263490  0.42742526  0.73742672  1
  Te  Te78  1  0.07621531  0.75456068  0.08912613  1
  Te  Te79  1  0.07557041  0.77086284  0.43479368  1
  Te  Te80  1  0.07348192  0.76608004  0.76253803  1
  Te  Te81  1  0.43654189  0.08912660  0.07387631  1
  Te  Te82  1  0.40897860  0.08472143  0.37484473  1
  Te  Te83  1  0.41624484  0.07870232  0.74780674  1
  Te  Te84  1  0.44756317  0.42527902  0.07591416  1
  Te  Te85  1  0.43167285  0.40784204  0.40060100  1
  Te  Te86  1  0.42148215  0.39264045  0.76183550  1
  Te  Te87  1  0.39651038  0.76296367  0.09760897  1
  Te  Te88  1  0.41583194  0.76171074  0.41176014  1
  Te  Te89  1  0.38639730  0.75705350  0.72350577  1
  Te  Te90  1  0.75149821  0.07211418  0.12439731  1
  Te  Te91  1  0.76897083  0.10159174  0.39625181  1
  Te  Te92  1  0.74647467  0.07506956  0.74142427  1
  Te  Te93  1  0.75961072  0.37951857  0.09224213  1
  Te  Te94  1  0.76948602  0.39555124  0.39513952  1
  Te  Te95  1  0.73146525  0.41858384  0.76185950  1
  Te  Te96  1  0.76433795  0.75934378  0.08550164  1
  Te  Te97  1  0.72572120  0.77288882  0.42984724  1
  Te  Te98  1  0.75869072  0.74080271  0.74448564  1
  Te  Te99  1  0.05187183  0.25049241  0.27327613  1
  Te  Te100  1  0.06257347  0.23614155  0.55244881  1
  Te  Te101  1  0.07048051  0.24832194  0.91643727  1
  Te  Te102  1  0.08109123  0.57140846  0.24436520  1
  Te  Te103  1  0.08700979  0.57953173  0.57310980  1
  Te  Te104  1  0.10300309  0.58102959  0.93240147  1
  Te  Te105  1  0.05028945  0.94101421  0.27446289  1
  Te  Te106  1  0.11121717  0.90525222  0.59179513  1
  Te  Te107  1  0.08694066  0.92275628  0.92714723  1
  Te  Te108  1  0.46109414  0.27018643  0.20251234  1
  Te  Te109  1  0.42865041  0.24751114  0.54678320  1
  Te  Te110  1  0.45708861  0.23955608  0.92531047  1
  Te  Te111  1  0.44923637  0.57042341  0.25875453  1
  Te  Te112  1  0.41187406  0.58917244  0.58761007  1
  Te  Te113  1  0.45854958  0.55811460  0.92450997  1
  Te  Te114  1  0.44732056  0.95412753  0.29291339  1
  Te  Te115  1  0.42739993  0.92983542  0.57727890  1
  Te  Te116  1  0.40476486  0.90986398  0.91504698  1
  Te  Te117  1  0.71647336  0.22381698  0.28171252  1
  Te  Te118  1  0.74565222  0.25006918  0.55582537  1
  Te  Te119  1  0.73795793  0.26514676  0.91935990  1
  Te  Te120  1  0.74298872  0.56964321  0.24598678  1
  Te  Te121  1  0.74169023  0.57842253  0.58243874  1
  Te  Te122  1  0.74110511  0.56402630  0.91341369  1
  Te  Te123  1  0.78082919  0.93726757  0.26887452  1
  Te  Te124  1  0.73276486  0.93024816  0.56726908  1
  Te  Te125  1  0.73760421  0.91621192  0.93656146  1
  Te  Te126  1  0.26237264  0.24549551  0.08712826  1
  Te  Te127  1  0.25141172  0.25136107  0.40587756  1
  Te  Te128  1  0.24203831  0.24501620  0.74185116  1
  Te  Te129  1  0.26517436  0.57388436  0.07647198  1
  Te  Te130  1  0.25535690  0.59155609  0.41052219  1
  Te  Te131  1  0.24696418  0.57415357  0.73676165  1
  Te  Te132  1  0.23544458  0.93340585  0.10880456  1
  Te  Te133  1  0.25971523  0.93325526  0.40679603  1
  Te  Te134  1  0.27480230  0.89178580  0.75705715  1
  Te  Te135  1  0.58469625  0.21574836  0.12061253  1
  Te  Te136  1  0.61858467  0.27151785  0.39003581  1
  Te  Te137  1  0.57954510  0.24555808  0.74626503  1
  Te  Te138  1  0.61374323  0.56051613  0.10810442  1
  Te  Te139  1  0.58151647  0.58039083  0.41849243  1
  Te  Te140  1  0.58400814  0.57584953  0.75874775  1
  Te  Te141  1  0.57789766  0.91321263  0.09807616  1
  Te  Te142  1  0.57031019  0.91422632  0.39296958  1
  Te  Te143  1  0.56003730  0.90306311  0.75021921  1
  Te  Te144  1  0.92262081  0.22548422  0.10026270  1
  Te  Te145  1  0.86338888  0.27811235  0.36583694  1
  Te  Te146  1  0.89377135  0.26107379  0.75551358  1
  Te  Te147  1  0.92556074  0.58812688  0.08630533  1
  Te  Te148  1  0.89732770  0.58709452  0.40895426  1
  Te  Te149  1  0.91642330  0.59147585  0.74282937  1
  Te  Te150  1  0.89510398  0.93069580  0.09473220  1
  Te  Te151  1  0.90641146  0.91148376  0.37145231  1
  Te  Te152  1  0.92126447  0.92342437  0.75582324  1
  Te  Te153  1  0.25033092  0.06841641  0.24529099  1
  Te  Te154  1  0.26848235  0.10209935  0.55983506  1
  Te  Te155  1  0.24595423  0.10348721  0.92274879  1
  Te  Te156  1  0.24943327  0.40321706  0.24668295  1
  Te  Te157  1  0.24917599  0.42484065  0.59667094  1
  Te  Te158  1  0.26274832  0.41651957  0.91658022  1
  Te  Te159  1  0.24768738  0.76277060  0.24696009  1
  Te  Te160  1  0.27086854  0.74425972  0.61364934  1
  Te  Te161  1  0.26481135  0.74406691  0.91189348  1
  Te  Te162  1  0.58455656  0.08686559  0.22136856  1
  Te  Te163  1  0.60168198  0.10227305  0.55531658  1
  Te  Te164  1  0.57043465  0.05682985  0.90436452  1
  Te  Te165  1  0.56781040  0.39109397  0.30178685  1
  Te  Te166  1  0.57189577  0.40747018  0.57097269  1
  Te  Te167  1  0.55532652  0.42339871  0.94615038  1
  Te  Te168  1  0.58456096  0.75049094  0.23914017  1
  Te  Te169  1  0.58064711  0.78166868  0.58179366  1
  Te  Te170  1  0.58435374  0.73658924  0.91351356  1
  Te  Te171  1  0.95126348  0.13523153  0.22142134  1
  Te  Te172  1  0.92139187  0.09023266  0.56004517  1
  Te  Te173  1  0.91155276  0.09748174  0.92936838  1
  Te  Te174  1  0.89807912  0.42803907  0.26955479  1
  Te  Te175  1  0.90049774  0.39125977  0.57199122  1
  Te  Te176  1  0.90811518  0.41844431  0.90994540  1
  Te  Te177  1  0.89833228  0.76422385  0.28824951  1
  Te  Te178  1  0.91977809  0.77562090  0.57368427  1
  Te  Te179  1  0.90813657  0.78700821  0.92105391  1
