# generated using pymatgen
data_In2Te3
_symmetry_space_group_name_H-M   'P 1'
_cell_length_a   18.95146176
_cell_length_b   18.94403402
_cell_length_c   18.92912048
_cell_angle_alpha   90.13211625
_cell_angle_beta   89.98958280
_cell_angle_gamma   90.00928918
_symmetry_Int_Tables_number   1
_chemical_formula_structural   In2Te3
_chemical_formula_sum   'In72 Te108'
_cell_volume   6795.86035960
_cell_formula_units_Z   36
loop_
 _symmetry_equiv_pos_site_id
 _symmetry_equiv_pos_as_xyz
  1  'x, y, z'
loop_
 _atom_site_type_symbol
 _atom_site_label
 _atom_site_symmetry_multiplicity
 _atom_site_fract_x
 _atom_site_fract_y
 _atom_site_fract_z
 _atom_site_occupancy
  In  In0  1  0.33601715  0.16267882  0.50033384  1
  In  In1  1  0.32562874  0.16187440  0.18239900  1
  In  In2  1  0.33932936  0.00109329  0.00734489  1
  In  In3  1  0.15333567  0.34723192  0.16909383  1
  In  In4  1  -0.00578682  0.15242879  0.16186984  1
  In  In5  1  0.66159134  0.17941535  0.83696306  1
  In  In6  1  0.84677053  0.00186643  0.83411224  1
  In  In7  1  -0.00183548  0.02069434  0.66173909  1
  In  In8  1  0.68423237  0.01738236  0.01329809  1
  In  In9  1  0.35988456  0.35142291  0.69831880  1
  In  In10  1  0.01428677  0.65685569  0.34300998  1
  In  In11  1  0.49905606  0.64964894  0.49400731  1
  In  In12  1  0.83570635  0.66352908  0.80217446  1
  In  In13  1  0.17322721  0.49387029  0.65722521  1
  In  In14  1  0.81997473  0.35069635  0.48971574  1
  In  In15  1  0.34988688  0.47889147  0.16118347  1
  In  In16  1  0.49369688  0.02325317  0.19550736  1
  In  In17  1  0.16945111  0.47704479  0.00356782  1
  In  In18  1  0.83256380  0.49448505  0.63996196  1
  In  In19  1  0.34080511  0.49041396  0.49560696  1
  In  In20  1  0.83703264  0.32758201  0.81216566  1
  In  In21  1  0.84648551  0.17070159  0.66312923  1
  In  In22  1  0.66799201  0.15945196  0.52343477  1
  In  In23  1  0.64842701  0.02292883  0.35138562  1
  In  In24  1  0.15831522  0.16778512  0.00150300  1
  In  In25  1  0.82589896  0.01635904  0.16359217  1
  In  In26  1  0.16805413  0.67536626  0.81131963  1
  In  In27  1  0.33870009  0.65741448  -0.00009519  1
  In  In28  1  0.62599800  0.33254237  0.01210329  1
  In  In29  1  0.33080866  0.66259984  0.65814705  1
  In  In30  1  0.64077648  0.66556073  0.01865589  1
  In  In31  1  0.17120752  0.00463807  0.82045902  1
  In  In32  1  0.50035931  0.66103238  0.83546593  1
  In  In33  1  0.65295765  -0.00315701  0.64714285  1
  In  In34  1  0.67363245  0.84471509  0.13446546  1
  In  In35  1  0.62412508  0.46317433  0.19682748  1
  In  In36  1  0.16925736  0.00420070  0.48421091  1
  In  In37  1  0.50337183  0.33602248  0.50395443  1
  In  In38  1  0.70117519  0.66086520  0.65481529  1
  In  In39  1  0.82107017  0.49397242  0.01037445  1
  In  In40  1  -0.01809309  0.81282778  0.51873798  1
  In  In41  1  0.50803221  0.00362418  0.83379467  1
  In  In42  1  0.50106019  0.81925690  -0.01234872  1
  In  In43  1  0.49994088  0.82962209  0.33776876  1
  In  In44  1  0.85113565  0.66841905  0.18902734  1
  In  In45  1  0.49501665  0.17913785  0.35193586  1
  In  In46  1  0.36530842  0.29504537  -0.02612289  1
  In  In47  1  0.18750285  0.82053757  0.65194248  1
  In  In48  1  0.17163335  0.50455645  0.33704418  1
  In  In49  1  0.83930761  0.83722628  0.33177165  1
  In  In50  1  0.15722962  0.68102689  0.18392171  1
  In  In51  1  0.33747383  0.00082335  0.66473677  1
  In  In52  1  0.65008813  0.50604973  0.86033599  1
  In  In53  1  0.67647459  0.83681494  0.49427592  1
  In  In54  1  -0.01961808  0.51236610  0.81501536  1
  In  In55  1  0.16252229  0.32306030  0.84482787  1
  In  In56  1  0.01245154  0.49155422  0.50570225  1
  In  In57  1  0.00111842  0.00744372  -0.00313335  1
  In  In58  1  -0.01670375  0.32846066  0.35206475  1
  In  In59  1  0.82484237  0.50373250  0.32426414  1
  In  In60  1  0.66167708  0.67781315  0.34823535  1
  In  In61  1  0.13462571  0.20437652  0.65273344  1
  In  In62  1  0.18553810  0.16334664  0.34427270  1
  In  In63  1  0.49831260  0.64095807  0.17296993  1
  In  In64  1  0.01796005  0.00355512  0.33797603  1
  In  In65  1  0.82381845  0.30318806  0.19686591  1
  In  In66  1  -0.00679527  0.66568231  -0.00558122  1
  In  In67  1  0.47861605  0.83810229  0.65246410  1
  In  In68  1  0.17327818  0.85040291  -0.00517028  1
  In  In69  1  0.18540523  0.84228847  0.34136476  1
  In  In70  1  0.63446906  0.34408665  0.69150515  1
  In  In71  1  0.85054007  0.84972284  -0.01834080  1
  Te  Te72  1  0.10065264  0.06507401  0.09636674  1
  Te  Te73  1  0.07370426  0.11014941  0.43282805  1
  Te  Te74  1  0.07723465  0.10562148  0.75999528  1
  Te  Te75  1  0.06260272  0.40069471  0.06697923  1
  Te  Te76  1  0.09930480  0.39749859  0.42230274  1
  Te  Te77  1  0.08302051  0.41970532  0.75441406  1
  Te  Te78  1  0.08047413  0.75743567  0.07692168  1
  Te  Te79  1  0.08836424  0.75535770  0.42843591  1
  Te  Te80  1  0.07997196  0.75457360  0.72763349  1
  Te  Te81  1  0.42553397  0.10164698  0.08376533  1
  Te  Te82  1  0.40821862  0.07507460  0.40511110  1
  Te  Te83  1  0.40676227  0.08868397  0.76453574  1
  Te  Te84  1  0.42496867  0.38698235  0.07314846  1
  Te  Te85  1  0.43157616  0.41821965  0.40005404  1
  Te  Te86  1  0.43805026  0.43211970  0.79431753  1
  Te  Te87  1  0.42002573  0.74585378  0.09164947  1
  Te  Te88  1  0.41337844  0.74227279  0.41887104  1
  Te  Te89  1  0.40861838  0.75112380  0.75523629  1
  Te  Te90  1  0.78510388  0.11521028  0.06041065  1
  Te  Te91  1  0.75386443  0.07022139  0.44123132  1
  Te  Te92  1  0.74312088  0.08727308  0.74817128  1
  Te  Te93  1  0.73569948  0.40923538  0.10081665  1
  Te  Te94  1  0.72935297  0.42071708  0.39797339  1
  Te  Te95  1  0.75235764  0.44327957  0.75932935  1
  Te  Te96  1  0.77708570  0.74898085  0.07787506  1
  Te  Te97  1  0.77484497  0.73936366  0.42745649  1
  Te  Te98  1  0.77563771  0.77236323  0.72003947  1
  Te  Te99  1  0.07853415  0.24429749  0.25430482  1
  Te  Te100  1  0.05857557  0.29278965  0.56482840  1
  Te  Te101  1  0.06482928  0.25391204  0.93002758  1
  Te  Te102  1  0.07403431  0.56487542  0.23804933  1
  Te  Te103  1  0.11026838  0.58862060  0.56190582  1
  Te  Te104  1  0.08746601  0.57839471  0.91017336  1
  Te  Te105  1  0.09714496  0.91791942  0.25093504  1
  Te  Te106  1  0.08746237  0.91766227  0.57975635  1
  Te  Te107  1  0.07528418  0.91736302  0.89926916  1
  Te  Te108  1  0.42603998  0.25688639  0.24552299  1
  Te  Te109  1  0.41760669  0.25030723  0.59404213  1
  Te  Te110  1  0.43220853  0.22479834  0.86187821  1
  Te  Te111  1  0.39145809  0.58521659  0.25467846  1
  Te  Te112  1  0.42778903  0.56306061  0.59785662  1
  Te  Te113  1  0.42007259  0.56672482  0.91564852  1
  Te  Te114  1  0.42231892  0.90294242  0.23574991  1
  Te  Te115  1  0.39703760  0.91693603  0.55853274  1
  Te  Te116  1  0.41178164  0.90998567  0.90745789  1
  Te  Te117  1  0.69454993  0.25334678  0.24642762  1
  Te  Te118  1  0.74151732  0.27293424  0.60751364  1
  Te  Te119  1  0.73924060  0.27981862  0.91831347  1
  Te  Te120  1  0.73069678  0.58840122  0.23438681  1
  Te  Te121  1  0.73725337  0.56210413  0.55225762  1
  Te  Te122  1  0.75801070  0.60191400  0.92379201  1
  Te  Te123  1  0.73609962  0.91778123  0.25462647  1
  Te  Te124  1  0.75968132  0.93352927  0.56736736  1
  Te  Te125  1  0.73840264  0.91954914  0.91036780  1
  Te  Te126  1  0.25051841  0.25888965  0.08458340  1
  Te  Te127  1  0.26652909  0.26051999  0.41695133  1
  Te  Te128  1  0.24797841  0.25162785  0.74284811  1
  Te  Te129  1  0.24088416  0.58037101  0.08977905  1
  Te  Te130  1  0.23506643  0.58290734  0.44585671  1
  Te  Te131  1  0.26080874  0.56923919  0.75652214  1
  Te  Te132  1  0.26731693  0.90613870  0.09168386  1
  Te  Te133  1  0.27789603  0.92774742  0.42196813  1
  Te  Te134  1  0.26284175  0.90399499  0.75514247  1
  Te  Te135  1  0.60801345  0.23713622  0.12376485  1
  Te  Te136  1  0.60515630  0.25351422  0.42185971  1
  Te  Te137  1  0.54850360  0.24003707  0.75753536  1
  Te  Te138  1  0.56931112  0.54784438  0.07610393  1
  Te  Te139  1  0.57118195  0.57245906  0.39109844  1
  Te  Te140  1  0.59742503  0.58843604  0.74517644  1
  Te  Te141  1  0.56537737  0.93034915  0.07348554  1
  Te  Te142  1  0.56831240  0.92526910  0.43419568  1
  Te  Te143  1  0.58096713  0.90445629  0.74347964  1
  Te  Te144  1  0.91042126  0.25064485  0.09022607  1
  Te  Te145  1  0.87528253  0.24535752  0.40472028  1
  Te  Te146  1  0.93915721  0.24125033  0.75397547  1
  Te  Te147  1  0.92204118  0.57409087  0.09193134  1
  Te  Te148  1  0.91572171  0.57629685  0.42462263  1
  Te  Te149  1  0.93511623  0.59951607  0.69776460  1
  Te  Te150  1  0.92145930  0.92055972  0.09507980  1
  Te  Te151  1  0.92378611  0.91883511  0.42604204  1
  Te  Te152  1  0.92148686  0.92200588  0.73844043  1
  Te  Te153  1  0.24936413  0.06322493  0.25847263  1
  Te  Te154  1  0.22971037  0.08989206  0.59830073  1
  Te  Te155  1  0.25477883  0.08894920  0.91488415  1
  Te  Te156  1  0.25816431  0.40587124  0.26070873  1
  Te  Te157  1  0.26399958  0.39593939  0.58639312  1
  Te  Te158  1  0.26850263  0.40301663  0.91805411  1
  Te  Te159  1  0.25970455  0.73312791  0.27307703  1
  Te  Te160  1  0.27783720  0.75416099  0.55623103  1
  Te  Te161  1  0.25380558  0.74850769  0.91364524  1
  Te  Te162  1  0.62389836  0.09914530  0.22278760  1
  Te  Te163  1  0.55787724  0.09147576  0.59100094  1
  Te  Te164  1  0.58108599  0.09489492  0.93390952  1
  Te  Te165  1  0.51466394  0.39059522  0.26381362  1
  Te  Te166  1  0.57941286  0.43090253  0.58884369  1
  Te  Te167  1  0.55184293  0.39832798  0.89500719  1
  Te  Te168  1  0.59531131  0.75560548  0.22951453  1
  Te  Te169  1  0.58674927  0.74791562  0.58274221  1
  Te  Te170  1  0.60640393  0.75345441  0.90098552  1
  Te  Te171  1  0.90682511  0.08770824  0.26863426  1
  Te  Te172  1  0.92524803  0.10036743  0.56202640  1
  Te  Te173  1  0.90338395  0.09699644  0.93178691  1
  Te  Te174  1  0.91844825  0.41476518  0.24550819  1
  Te  Te175  1  0.93797303  0.38740037  0.59534882  1
  Te  Te176  1  0.91155384  0.42060957  0.91392493  1
  Te  Te177  1  0.94710513  0.76427343  0.25438871  1
  Te  Te178  1  0.90010261  0.73357738  0.61053871  1
  Te  Te179  1  0.92515508  0.75268697  0.89107974  1
