# generated using pymatgen
data_In2Te3
_symmetry_space_group_name_H-M   'P 1'
_cell_length_a   18.78735505
_cell_length_b   18.79367220
_cell_length_c   18.78880414
_cell_angle_alpha   89.96760029
_cell_angle_beta   89.88238018
_cell_angle_gamma   90.00628024
_symmetry_Int_Tables_number   1
_chemical_formula_structural   In2Te3
_chemical_formula_sum   'In72 Te108'
_cell_volume   6633.99962089
_cell_formula_units_Z   36
loop_
 _symmetry_equiv_pos_site_id
 _symmetry_equiv_pos_as_xyz
  1  'x, y, z'
loop_
 _atom_site_type_symbol
 _atom_site_label
 _atom_site_symmetry_multiplicity
 _atom_site_fract_x
 _atom_site_fract_y
 _atom_site_fract_z
 _atom_site_occupancy
  In  In0  1  -0.00562460  0.67242936  -0.00648065  1
  In  In1  1  0.48633111  0.36259994  0.47350087  1
  In  In2  1  0.65405351  0.50048267  0.82028156  1
  In  In3  1  -0.02374990  0.49390654  0.46752275  1
  In  In4  1  0.19045054  0.81175616  0.65287394  1
  In  In5  1  0.83426387  0.69394831  0.84331722  1
  In  In6  1  0.82025069  0.51621927  0.63456643  1
  In  In7  1  0.00882255  0.32221955  0.00093937  1
  In  In8  1  0.81904564  0.00035358  0.50431178  1
  In  In9  1  -0.03213259  0.00815754  0.65129927  1
  In  In10  1  0.60175047  0.31081137  0.04173811  1
  In  In11  1  0.15919226  0.84180476  -0.00629201  1
  In  In12  1  0.33114590  0.82709735  0.49179543  1
  In  In13  1  0.84388525  0.84028887  0.66153969  1
  In  In14  1  0.14855804  0.32802676  0.47342113  1
  In  In15  1  0.14694984  0.05247553  0.15982095  1
  In  In16  1  0.17538154  0.62593065  0.15391281  1
  In  In17  1  0.35443958  0.16023594  0.86627047  1
  In  In18  1  0.50468671  0.16177380  0.68549868  1
  In  In19  1  0.01086321  0.48770628  0.80705888  1
  In  In20  1  0.49640526  0.30396738  0.84284906  1
  In  In21  1  0.50131996  0.16578986  0.29934699  1
  In  In22  1  0.52025571  0.82822640  0.68206900  1
  In  In23  1  0.33912458  0.64551431  0.01496675  1
  In  In24  1  0.82760252  0.50861130  0.02358226  1
  In  In25  1  0.69528303  0.13810075  0.83368871  1
  In  In26  1  -0.01219158  0.67240812  0.63709285  1
  In  In27  1  0.16512878  0.17263620  0.66124075  1
  In  In28  1  0.32573710  0.50254085  0.84968951  1
  In  In29  1  0.50995232  0.83880162  0.32270021  1
  In  In30  1  0.66454846  0.85023067  0.16314645  1
  In  In31  1  0.49817320  0.68174380  0.50949537  1
  In  In32  1  0.17579607  0.33328387  0.21453151  1
  In  In33  1  0.66643227  0.84291323  0.85165520  1
  In  In34  1  0.17481266  0.47198361  -0.00257718  1
  In  In35  1  0.35223205  -0.00318801  0.01149678  1
  In  In36  1  0.64421340  0.50710078  0.18622284  1
  In  In37  1  0.64531863  0.00754929  0.00927448  1
  In  In38  1  0.51572062  0.50914501  0.66016993  1
  In  In39  1  0.34839778  0.02754939  0.66697693  1
  In  In40  1  0.84712445  0.33127807  0.15564170  1
  In  In41  1  0.49105502  0.66602418  0.18092188  1
  In  In42  1  0.33076703  0.34017150  0.65999004  1
  In  In43  1  0.14776873  0.48173742  0.65693874  1
  In  In44  1  0.67380099  0.16255411  0.50968951  1
  In  In45  1  0.35769240  0.84086304  0.83479162  1
  In  In46  1  0.17830877  0.66432229  0.80983589  1
  In  In47  1  0.64930067  0.50454709  0.49481797  1
  In  In48  1  0.34763253  0.67680672  0.61734962  1
  In  In49  1  0.32687602  0.17668027  0.16604093  1
  In  In50  1  -0.00500169  0.83469033  0.48681458  1
  In  In51  1  -0.01255751  0.16759745  0.85368241  1
  In  In52  1  0.80777675  0.68595846  0.20283469  1
  In  In53  1  0.83956974  0.32478253  0.83021944  1
  In  In54  1  0.17884077  0.01447204  0.84814265  1
  In  In55  1  0.00553951  0.32249133  0.69579569  1
  In  In56  1  0.14210228  -0.00533531  0.46892723  1
  In  In57  1  0.66000669  0.34326812  0.32838303  1
  In  In58  1  0.82817958  0.18255070  0.01199976  1
  In  In59  1  0.51630278  -0.00050084  0.49013875  1
  In  In60  1  0.48120606  0.49575315  0.34078670  1
  In  In61  1  0.00155618  0.87756752  0.81849292  1
  In  In62  1  0.83835217  0.16966349  0.33536421  1
  In  In63  1  0.65543540  0.68204945  0.02065040  1
  In  In64  1  -0.02925483  0.83804977  0.17759997  1
  In  In65  1  0.00169094  0.50664415  0.21437933  1
  In  In66  1  0.34309032  0.83818968  0.18347622  1
  In  In67  1  0.84152296  0.31199202  0.49514123  1
  In  In68  1  0.00253063  0.00191016  0.34919070  1
  In  In69  1  0.16383322  0.82174312  0.33206543  1
  In  In70  1  0.81474570  -0.01122025  0.17553244  1
  In  In71  1  0.33044411  0.18056699  0.47788294  1
  Te  Te72  1  0.06728959  0.12728518  0.06280769  1
  Te  Te73  1  0.09892466  0.11567450  0.38670258  1
  Te  Te74  1  0.07926740  0.07682721  0.74429545  1
  Te  Te75  1  0.07095154  0.42265864  0.09897623  1
  Te  Te76  1  0.09815463  0.44459130  0.39335550  1
  Te  Te77  1  0.12157300  0.38682204  0.77452762  1
  Te  Te78  1  0.08948564  0.74579940  0.09176630  1
  Te  Te79  1  0.07307646  0.73402333  0.41146118  1
  Te  Te80  1  0.06653113  0.75145838  0.75012210  1
  Te  Te81  1  0.43275605  0.09815126  0.08775822  1
  Te  Te82  1  0.42029353  0.08021843  0.40554034  1
  Te  Te83  1  0.43775132  0.06179612  0.78334827  1
  Te  Te84  1  0.49192690  0.40040213  0.08652981  1
  Te  Te85  1  0.36807141  0.39323670  0.38092006  1
  Te  Te86  1  0.42677277  0.41559960  0.75143652  1
  Te  Te87  1  0.42119172  0.75661360  0.07967521  1
  Te  Te88  1  0.41013911  0.74299660  0.39212500  1
  Te  Te89  1  0.41616937  0.73320454  0.74442384  1
  Te  Te90  1  0.73754550  0.09942158  0.10218675  1
  Te  Te91  1  0.73523776  0.07691958  0.39989022  1
  Te  Te92  1  0.78168730  0.07662414  0.73156967  1
  Te  Te93  1  0.72978043  0.41316287  0.08972817  1
  Te  Te94  1  0.75391449  0.41619525  0.42438482  1
  Te  Te95  1  0.75916406  0.42276051  0.74142090  1
  Te  Te96  1  0.76779883  0.76277298  0.07851139  1
  Te  Te97  1  0.78508566  0.69457494  0.42092592  1
  Te  Te98  1  0.74419366  0.75390751  0.74165177  1
  Te  Te99  1  0.08350592  0.23772239  0.28343438  1
  Te  Te100  1  0.06558630  0.24590382  0.57378135  1
  Te  Te101  1  0.09955545  0.24461896  0.91230749  1
  Te  Te102  1  0.11417005  0.57913733  0.28243893  1
  Te  Te103  1  0.07467580  0.57467932  0.56128620  1
  Te  Te104  1  0.09475133  0.58295629  0.91699246  1
  Te  Te105  1  0.08652617  0.92162215  0.24048855  1
  Te  Te106  1  0.08277411  0.91112930  0.59096288  1
  Te  Te107  1  0.06957096  0.95094707  0.93591029  1
  Te  Te108  1  0.40503548  0.27075618  0.25670830  1
  Te  Te109  1  0.42578029  0.24547946  0.57994281  1
  Te  Te110  1  0.40864902  0.26423742  0.95782980  1
  Te  Te111  1  0.39394243  0.57206262  0.24579783  1
  Te  Te112  1  0.41086605  0.54949647  0.55078032  1
  Te  Te113  1  0.42710261  0.58902848  0.91068620  1
  Te  Te114  1  0.43977755  0.93779758  0.23540316  1
  Te  Te115  1  0.41478422  0.91354024  0.58787021  1
  Te  Te116  1  0.44327697  0.91121572  0.93053455  1
  Te  Te117  1  0.74632963  0.25127077  0.24278544  1
  Te  Te118  1  0.75243935  0.25283670  0.59565983  1
  Te  Te119  1  0.73839473  0.27078365  0.92852595  1
  Te  Te120  1  0.75615892  0.56178416  0.26738719  1
  Te  Te121  1  0.72952476  0.61154763  0.56460702  1
  Te  Te122  1  0.74987544  0.58764403  0.91827681  1
  Te  Te123  1  0.75316505  0.89483036  0.27332435  1
  Te  Te124  1  0.73622364  0.90132657  0.57848156  1
  Te  Te125  1  0.74886357  0.92588109  0.94128118  1
  Te  Te126  1  0.23805220  0.27295593  0.09485601  1
  Te  Te127  1  0.23041628  0.23915317  0.38167113  1
  Te  Te128  1  0.27602321  0.22820359  0.74877011  1
  Te  Te129  1  0.28069956  0.52879203  0.09421471  1
  Te  Te130  1  0.30685101  0.61308123  0.45247164  1
  Te  Te131  1  0.25904757  0.57348514  0.71961074  1
  Te  Te132  1  0.24298088  0.92183231  0.09346279  1
  Te  Te133  1  0.25854118  0.92382788  0.39799952  1
  Te  Te134  1  0.24988897  0.91744287  0.75235641  1
  Te  Te135  1  0.55865291  0.18972797  0.13127554  1
  Te  Te136  1  0.57937575  0.24686158  0.41932754  1
  Te  Te137  1  0.60794345  0.24689046  0.75611929  1
  Te  Te138  1  0.56405264  0.57467020  0.07566750  1
  Te  Te139  1  0.57506971  0.59917079  0.40242648  1
  Te  Te140  1  0.59414323  0.60661657  0.73684081  1
  Te  Te141  1  0.55478885  0.92353362  0.09656937  1
  Te  Te142  1  0.60466545  0.91099722  0.41231877  1
  Te  Te143  1  0.59193929  0.93138569  0.75765812  1
  Te  Te144  1  0.95431254  0.22518981  0.10926800  1
  Te  Te145  1  0.93607712  0.27419748  0.38389062  1
  Te  Te146  1  0.89875014  0.21899657  0.73568344  1
  Te  Te147  1  0.92302239  0.59451376  0.10559680  1
  Te  Te148  1  0.88878884  0.59720523  0.38878453  1
  Te  Te149  1  0.91033160  0.59118570  0.75007074  1
  Te  Te150  1  0.91181079  0.92829343  0.07931576  1
  Te  Te151  1  0.89356471  0.90876308  0.40209568  1
  Te  Te152  1  0.87249518  0.95324744  0.76667917  1
  Te  Te153  1  0.25591524  0.07758051  0.25311417  1
  Te  Te154  1  0.24277411  0.07600332  0.56546257  1
  Te  Te155  1  0.24723685  0.09622253  0.95429745  1
  Te  Te156  1  0.26704400  0.43747489  0.26925100  1
  Te  Te157  1  0.24542593  0.41380563  0.55964123  1
  Te  Te158  1  0.28265765  0.38812394  0.93457721  1
  Te  Te159  1  0.25021646  0.73284278  0.24154251  1
  Te  Te160  1  0.22137585  0.71546549  0.53217112  1
  Te  Te161  1  0.25326639  0.74684678  0.91772969  1
  Te  Te162  1  0.60245587  0.08369195  0.22879129  1
  Te  Te163  1  0.59363497  0.06930930  0.60143025  1
  Te  Te164  1  0.58154324  0.11087228  0.92335672  1
  Te  Te165  1  0.54479518  0.39166354  0.23814569  1
  Te  Te166  1  0.58688534  0.39662778  0.58540873  1
  Te  Te167  1  0.57549435  0.41479909  0.91589078  1
  Te  Te168  1  0.60284484  0.73814007  0.25236886  1
  Te  Te169  1  0.59548003  0.78125347  0.56106676  1
  Te  Te170  1  0.57362403  0.74691185  0.91805339  1
  Te  Te171  1  0.92087656  0.07813280  0.24577057  1
  Te  Te172  1  0.93056339  0.09256572  0.53792563  1
  Te  Te173  1  0.89403091  0.08106617  0.92747862  1
  Te  Te174  1  0.90674209  0.40563099  0.26968359  1
  Te  Te175  1  0.93137271  0.41567589  0.59609673  1
  Te  Te176  1  0.91577985  0.42831024  0.92429384  1
  Te  Te177  1  0.93076583  0.73255587  0.27455534  1
  Te  Te178  1  0.88428107  0.73925070  0.54821410  1
  Te  Te179  1  0.92552728  0.78735344  0.92112064  1
