# generated using pymatgen
data_In2Te3
_symmetry_space_group_name_H-M   'P 1'
_cell_length_a   19.00888959
_cell_length_b   19.01171564
_cell_length_c   18.97989098
_cell_angle_alpha   89.95184402
_cell_angle_beta   89.90311733
_cell_angle_gamma   89.91972035
_symmetry_Int_Tables_number   1
_chemical_formula_structural   In2Te3
_chemical_formula_sum   'In72 Te108'
_cell_volume   6859.15429009
_cell_formula_units_Z   36
loop_
 _symmetry_equiv_pos_site_id
 _symmetry_equiv_pos_as_xyz
  1  'x, y, z'
loop_
 _atom_site_type_symbol
 _atom_site_label
 _atom_site_symmetry_multiplicity
 _atom_site_fract_x
 _atom_site_fract_y
 _atom_site_fract_z
 _atom_site_occupancy
  In  In0  1  0.16628647  0.52135470  0.00204302  1
  In  In1  1  0.64563815  0.49166464  0.84346356  1
  In  In2  1  0.82374355  0.33988249  0.84393581  1
  In  In3  1  0.15862608  0.65196853  0.47358438  1
  In  In4  1  0.34040580  0.01265719  0.00435062  1
  In  In5  1  0.82735830  0.66680497  0.83741853  1
  In  In6  1  0.01988192  0.84010441  0.82717132  1
  In  In7  1  0.00331546  0.33984028  0.02072470  1
  In  In8  1  0.50643990  0.00597747  0.50594392  1
  In  In9  1  0.17962950  0.82979232  0.66331753  1
  In  In10  1  0.50812630  0.81794485  0.02080569  1
  In  In11  1  0.65697978  0.84535856  0.48209157  1
  In  In12  1  0.29746357  0.33054858  0.28568033  1
  In  In13  1  -0.01947367  0.17145806  0.17551069  1
  In  In14  1  0.16460730  0.33101253  0.49284390  1
  In  In15  1  0.73864865  0.55709125  0.67741449  1
  In  In16  1  0.82550497  0.50251714  -0.00356184  1
  In  In17  1  0.68913897  0.35857493  0.33503321  1
  In  In18  1  0.49898218  0.17037541  0.00667456  1
  In  In19  1  0.18218939  0.82978592  -0.00569070  1
  In  In20  1  -0.02037018  0.64424305  0.65418555  1
  In  In21  1  0.01281863  0.82206101  0.52469809  1
  In  In22  1  0.82743588  0.18661223  0.35619127  1
  In  In23  1  0.48968362  0.32918431  0.84792558  1
  In  In24  1  0.31347535  0.49797406  0.48297486  1
  In  In25  1  0.30214740  0.32705354  0.03799915  1
  In  In26  1  0.84356100  0.02446676  0.50969746  1
  In  In27  1  0.65787175  0.23206414  0.53406479  1
  In  In28  1  0.51286628  0.00680905  0.16867753  1
  In  In29  1  0.82734231  0.83497996  0.01717259  1
  In  In30  1  0.69135479  -0.00200878  0.32034177  1
  In  In31  1  0.47875532  0.34655256  0.14150203  1
  In  In32  1  0.48125861  0.80400808  0.30802695  1
  In  In33  1  0.83740839  0.80262086  0.66200208  1
  In  In34  1  -0.00818186  0.64769994  0.01827132  1
  In  In35  1  -0.00144007  0.49299259  0.47523356  1
  In  In36  1  0.00146440  0.32575936  0.68991076  1
  In  In37  1  0.49112273  -0.01793683  0.81982549  1
  In  In38  1  0.49202344  0.81466567  0.65514046  1
  In  In39  1  0.01941701  -0.01602381  0.33753954  1
  In  In40  1  0.63295516  0.65158267  0.33468265  1
  In  In41  1  0.17489749  -0.00905987  0.49239874  1
  In  In42  1  0.69084225  0.01955171  -0.00137516  1
  In  In43  1  0.00818800  0.36517891  0.30148046  1
  In  In44  1  0.52200974  0.16054443  0.31879911  1
  In  In45  1  0.33109679  0.65764761  0.66616846  1
  In  In46  1  0.82568968  0.66060036  0.15684120  1
  In  In47  1  0.65152329  0.83607867  0.85788853  1
  In  In48  1  0.17722970  0.80129221  0.28777991  1
  In  In49  1  0.69842708  0.02109713  0.67890364  1
  In  In50  1  0.13868925  0.16155865  0.33655109  1
  In  In51  1  0.34687644  0.52759196  0.85976487  1
  In  In52  1  0.67871391  0.18769448  0.86002646  1
  In  In53  1  0.17250809  0.67179793  0.85694595  1
  In  In54  1  0.48438010  0.64892714  0.17138386  1
  In  In55  1  0.33429952  0.33242638  0.66323291  1
  In  In56  1  0.18725234  0.00583041  0.84925469  1
  In  In57  1  0.84224444  0.32552842  0.50673933  1
  In  In58  1  0.17696022  0.16226023  0.66974172  1
  In  In59  1  0.33818482  -0.00442719  0.66958322  1
  In  In60  1  0.03361304  0.64077566  0.28630865  1
  In  In61  1  0.47929058  0.48925150  0.33522272  1
  In  In62  1  0.14384651  0.32460572  0.85218551  1
  In  In63  1  -0.05026351  0.05337423  0.72530426  1
  In  In64  1  0.66307527  0.51793981  0.14785968  1
  In  In65  1  0.83963579  0.00068376  0.15542420  1
  In  In66  1  0.14317833  0.02585991  0.14783585  1
  In  In67  1  0.84807457  0.81570220  0.32785109  1
  In  In68  1  0.53153479  0.47043210  0.65268174  1
  In  In69  1  0.49068386  0.18305027  0.69059322  1
  In  In70  1  0.49871716  0.65960373  0.48877203  1
  In  In71  1  0.33568105  -0.01196044  0.34047577  1
  Te  Te72  1  0.04889819  0.10196283  0.06363890  1
  Te  Te73  1  0.06489234  0.08277394  0.44311715  1
  Te  Te74  1  0.09101395  0.09425851  0.77242244  1
  Te  Te75  1  0.10173700  0.42602080  0.09737045  1
  Te  Te76  1  0.11009254  0.43077099  0.39321271  1
  Te  Te77  1  0.08558830  0.42174632  0.76082412  1
  Te  Te78  1  0.08880329  0.74275731  0.07734038  1
  Te  Te79  1  0.07203185  0.75423402  0.40104491  1
  Te  Te80  1  0.07728624  0.73579618  0.73097426  1
  Te  Te81  1  0.41035366  0.09904636  0.10742740  1
  Te  Te82  1  0.42304920  0.09001269  0.41178322  1
  Te  Te83  1  0.39911266  0.09131204  0.76949417  1
  Te  Te84  1  0.37293022  0.44296882  0.09960230  1
  Te  Te85  1  0.38749743  0.39363269  0.40501300  1
  Te  Te86  1  0.41588426  0.42734799  0.75433558  1
  Te  Te87  1  0.39987825  0.74721568  0.09550880  1
  Te  Te88  1  0.40626722  0.74779750  0.41852263  1
  Te  Te89  1  0.41055826  0.74412484  0.75263686  1
  Te  Te90  1  0.78699798  0.10416807  0.06648246  1
  Te  Te91  1  0.73064011  0.09070816  0.43283324  1
  Te  Te92  1  0.77146290  0.09290131  0.78717843  1
  Te  Te93  1  0.74433864  0.41491827  0.08167039  1
  Te  Te94  1  0.77311010  0.43633872  0.43169034  1
  Te  Te95  1  0.73932086  0.42016237  0.74714463  1
  Te  Te96  1  0.73750901  0.73058338  0.06367031  1
  Te  Te97  1  0.73747334  0.74475942  0.40291377  1
  Te  Te98  1  0.73201435  0.75086999  0.75490968  1
  Te  Te99  1  0.09491318  0.25910799  0.22829259  1
  Te  Te100  1  0.08284551  0.24587638  0.58721229  1
  Te  Te101  1  0.09453152  0.23828328  0.96143066  1
  Te  Te102  1  0.13043231  0.55401135  0.21311698  1
  Te  Te103  1  0.08611421  0.56977624  0.57725016  1
  Te  Te104  1  0.06356805  0.57819236  0.90395189  1
  Te  Te105  1  0.08378304  0.90585481  0.22773564  1
  Te  Te106  1  0.08562790  0.93116016  0.60161762  1
  Te  Te107  1  0.08238186  0.92940856  0.92845408  1
  Te  Te108  1  0.42461175  0.25035198  0.24719330  1
  Te  Te109  1  0.41591304  0.24365156  0.58149219  1
  Te  Te110  1  0.39413445  0.25326136  0.93636287  1
  Te  Te111  1  0.39179514  0.58970429  0.27152460  1
  Te  Te112  1  0.41827395  0.56244217  0.57919098  1
  Te  Te113  1  0.46054755  0.57935898  0.93518562  1
  Te  Te114  1  0.41059687  0.91364038  0.23187817  1
  Te  Te115  1  0.40916731  0.90763522  0.56762176  1
  Te  Te116  1  0.42034670  0.90907336  0.92938563  1
  Te  Te117  1  0.76517618  0.26558939  0.25056477  1
  Te  Te118  1  0.78249944  0.23727275  0.61070242  1
  Te  Te119  1  0.74151227  0.28213196  0.95215938  1
  Te  Te120  1  0.74367992  0.58141126  0.25825602  1
  Te  Te121  1  0.74901943  0.55133320  0.53443357  1
  Te  Te122  1  0.72850171  0.59260567  0.92385903  1
  Te  Te123  1  0.75862466  0.89493498  0.23469793  1
  Te  Te124  1  0.75549115  0.91248831  0.57832141  1
  Te  Te125  1  0.76452960  0.92124795  0.90881390  1
  Te  Te126  1  0.24456363  0.25965432  0.15711573  1
  Te  Te127  1  0.24662892  0.24022309  0.40528097  1
  Te  Te128  1  0.25054026  0.25512610  0.76192996  1
  Te  Te129  1  0.20738363  0.63311259  0.09655877  1
  Te  Te130  1  0.26106051  0.59457727  0.38362716  1
  Te  Te131  1  0.24287649  0.57814370  0.75931112  1
  Te  Te132  1  0.24623812  0.92956508  0.08874589  1
  Te  Te133  1  0.23820507  0.88950708  0.40145628  1
  Te  Te134  1  0.26332880  0.90315777  0.76397397  1
  Te  Te135  1  0.58292463  0.25951518  0.08437748  1
  Te  Te136  1  0.58797187  0.26775261  0.40449022  1
  Te  Te137  1  0.59587999  0.26599902  0.76013872  1
  Te  Te138  1  0.55422008  0.57456776  0.06099454  1
  Te  Te139  1  0.58193941  0.54659009  0.43196515  1
  Te  Te140  1  0.59024006  0.58045686  0.73286880  1
  Te  Te141  1  0.60124279  0.92533746  0.07744484  1
  Te  Te142  1  0.57015394  0.92603231  0.38742364  1
  Te  Te143  1  0.59149758  0.91460259  0.72919367  1
  Te  Te144  1  0.90731285  0.28616021  0.11964222  1
  Te  Te145  1  0.94184593  0.27120138  0.40516419  1
  Te  Te146  1  0.93339825  0.24660258  0.79918284  1
  Te  Te147  1  0.92643396  0.54538663  0.11115535  1
  Te  Te148  1  0.93078773  0.58467514  0.37839211  1
  Te  Te149  1  0.88485079  0.56757948  0.73995121  1
  Te  Te150  1  0.93011876  0.91665647  0.07778791  1
  Te  Te151  1  0.91518003  0.90977434  0.42961598  1
  Te  Te152  1  0.91151475  0.90493271  0.74403970  1
  Te  Te153  1  0.23510168  0.07073471  0.26236090  1
  Te  Te154  1  0.26351676  0.08429926  0.57204765  1
  Te  Te155  1  0.24884497  0.10416283  0.93701878  1
  Te  Te156  1  0.23896228  0.44186846  0.20176693  1
  Te  Te157  1  0.23667059  0.42191562  0.58988587  1
  Te  Te158  1  0.25521180  0.42168849  0.91993879  1
  Te  Te159  1  0.27283473  0.73608514  0.19722613  1
  Te  Te160  1  0.24760418  0.73745404  0.56761669  1
  Te  Te161  1  0.27865753  0.74157615  0.92595653  1
  Te  Te162  1  0.62245508  0.09491070  0.22635312  1
  Te  Te163  1  0.58548815  0.09180825  0.60205849  1
  Te  Te164  1  0.57520489  0.07717758  0.90373802  1
  Te  Te165  1  0.57777847  0.42337665  0.24077532  1
  Te  Te166  1  0.60061124  0.36877831  0.57724600  1
  Te  Te167  1  0.55191648  0.42720028  0.93931218  1
  Te  Te168  1  0.59133456  0.74719596  0.22480558  1
  Te  Te169  1  0.59583605  0.74073197  0.57319760  1
  Te  Te170  1  0.55459180  0.73792747  0.90530071  1
  Te  Te171  1  0.91110055  0.07309137  0.27865911  1
  Te  Te172  1  0.90610553  0.12194753  0.60037370  1
  Te  Te173  1  0.91087274  0.10431246  0.86059999  1
  Te  Te174  1  0.92474537  0.47635309  0.25283632  1
  Te  Te175  1  0.93086723  0.41692457  0.58772869  1
  Te  Te176  1  0.92661552  0.42436458  0.91727809  1
  Te  Te177  1  0.93176282  0.74219675  0.22640121  1
  Te  Te178  1  0.90033032  0.72134704  0.55119138  1
  Te  Te179  1  0.92906919  0.74983980  0.91225399  1
