# generated using pymatgen
data_In2Te3
_symmetry_space_group_name_H-M   'P 1'
_cell_length_a   18.81391057
_cell_length_b   18.81742480
_cell_length_c   18.81889374
_cell_angle_alpha   89.89238187
_cell_angle_beta   90.04481274
_cell_angle_gamma   90.01385898
_symmetry_Int_Tables_number   1
_chemical_formula_structural   In2Te3
_chemical_formula_sum   'In72 Te108'
_cell_volume   6662.42668769
_cell_formula_units_Z   36
loop_
 _symmetry_equiv_pos_site_id
 _symmetry_equiv_pos_as_xyz
  1  'x, y, z'
loop_
 _atom_site_type_symbol
 _atom_site_label
 _atom_site_symmetry_multiplicity
 _atom_site_fract_x
 _atom_site_fract_y
 _atom_site_fract_z
 _atom_site_occupancy
  In  In0  1  0.84592405  0.83920024  0.32637791  1
  In  In1  1  0.50627828  0.49263174  0.66009438  1
  In  In2  1  0.18161991  0.83280294  0.68018141  1
  In  In3  1  -0.02507475  0.50027860  0.83634235  1
  In  In4  1  0.30424751  0.50470320  0.84493457  1
  In  In5  1  0.63949698  -0.00922051  0.34685752  1
  In  In6  1  0.51310633  0.15773706  0.02055121  1
  In  In7  1  0.33447139  0.86055004  0.81979368  1
  In  In8  1  -0.00603223  0.01013172  0.67723271  1
  In  In9  1  0.83859109  0.34821909  0.49015145  1
  In  In10  1  0.49625173  0.50012286  0.35687775  1
  In  In11  1  -0.00061102  0.18194577  0.85184467  1
  In  In12  1  0.66130014  0.82539295  0.17896501  1
  In  In13  1  0.50417296  0.66538465  0.48894257  1
  In  In14  1  0.17245962  0.51061840  0.65121166  1
  In  In15  1  0.50169093  0.30939074  0.84353353  1
  In  In16  1  -0.01743787  0.83218971  0.49403257  1
  In  In17  1  0.49848912  -0.00631090  0.80127747  1
  In  In18  1  0.48628548  0.81815388  -0.00338197  1
  In  In19  1  0.67022441  0.50803992  0.17316731  1
  In  In20  1  -0.00532060  0.84836300  0.84178406  1
  In  In21  1  0.50153242  0.35085268  0.49902279  1
  In  In22  1  0.82734816  0.15659714  0.32326498  1
  In  In23  1  0.19196144  0.18373088  0.35309549  1
  In  In24  1  0.49430081  0.01097578  0.18024128  1
  In  In25  1  0.67143426  0.19645836  0.82403815  1
  In  In26  1  0.81422045  0.67127195  0.50012162  1
  In  In27  1  0.84424858  0.02019155  0.14815050  1
  In  In28  1  0.00984318  0.70033616  0.33169084  1
  In  In29  1  0.69028876  0.46444369  0.80841413  1
  In  In30  1  0.19958919  0.47870073  0.32349380  1
  In  In31  1  0.16118026  0.83180354  0.02241681  1
  In  In32  1  0.31280821  0.66007944  0.00318668  1
  In  In33  1  0.15659090  0.32621392  0.86112949  1
  In  In34  1  0.17578907  0.00230958  0.49004344  1
  In  In35  1  0.51929013  0.66284444  0.19958729  1
  In  In36  1  0.31302890  0.14235864  0.86866611  1
  In  In37  1  0.46370354  0.14587981  0.34593614  1
  In  In38  1  0.64877313  0.32067522  0.01265629  1
  In  In39  1  0.82724133  0.00346172  0.81312717  1
  In  In40  1  0.16367192  -0.00252795  0.19060897  1
  In  In41  1  0.02348022  -0.00111227  0.00810284  1
  In  In42  1  0.67268287  0.15073834  0.49893128  1
  In  In43  1  0.01148502  0.49600679  0.50575929  1
  In  In44  1  0.48191099  0.67264792  0.83655158  1
  In  In45  1  0.82761381  0.51960636  0.31908056  1
  In  In46  1  -0.01099443  0.49104718  0.16448489  1
  In  In47  1  0.65415923  0.66395623  -0.00488043  1
  In  In48  1  0.00812185  0.14410085  0.51312563  1
  In  In49  1  0.36089446  0.44312660  0.15801939  1
  In  In50  1  0.15309288  0.65254734  0.82625269  1
  In  In51  1  0.14048982  0.48616328  0.00475679  1
  In  In52  1  0.31078676  0.18385579  0.16705877  1
  In  In53  1  0.30742188  0.67176570  0.32424235  1
  In  In54  1  0.35122056  0.31898688  0.66175953  1
  In  In55  1  0.15274331  0.66284848  0.16297307  1
  In  In56  1  0.34620850  0.49800041  0.48156730  1
  In  In57  1  0.83047803  0.67008492  0.81578770  1
  In  In58  1  0.52510893  0.14455013  0.66188127  1
  In  In59  1  0.01367352  0.33573421  0.32165983  1
  In  In60  1  0.67947799  0.00714012  -0.00111117  1
  In  In61  1  0.67106739  0.33188512  0.32254849  1
  In  In62  1  0.18748458  0.15277011  0.65164700  1
  In  In63  1  0.66142889  0.67386058  0.65830678  1
  In  In64  1  0.83936935  0.85428298  0.00941423  1
  In  In65  1  0.84962898  0.48779538  0.00271315  1
  In  In66  1  0.86425568  0.18937635  0.02678936  1
  In  In67  1  0.49827648  0.85134112  0.64268787  1
  In  In68  1  0.85956219  0.16788215  0.65623266  1
  In  In69  1  0.00360786  0.32791617  0.66424919  1
  In  In70  1  0.31866946  0.84737256  0.50265553  1
  In  In71  1  0.34198357  0.85958204  0.17934219  1
  Te  Te72  1  0.08291166  0.09201235  0.10704022  1
  Te  Te73  1  0.07929118  0.07728209  0.39948412  1
  Te  Te74  1  0.08646455  0.09961600  0.75651771  1
  Te  Te75  1  0.08117358  0.38762480  0.10231504  1
  Te  Te76  1  0.10283152  0.40799941  0.42175045  1
  Te  Te77  1  0.09414804  0.42121021  0.75650333  1
  Te  Te78  1  0.06107328  0.73915189  0.07587316  1
  Te  Te79  1  0.09876765  0.76518402  0.42882280  1
  Te  Te80  1  0.06890493  0.75213434  0.74818151  1
  Te  Te81  1  0.40066773  0.08032994  0.08367543  1
  Te  Te82  1  0.41137484  0.05146480  0.44619265  1
  Te  Te83  1  0.40571725  0.10328521  0.75056681  1
  Te  Te84  1  0.41874334  0.37551101  0.04284708  1
  Te  Te85  1  0.39158907  0.38098793  0.38756009  1
  Te  Te86  1  0.41077656  0.41822721  0.76537611  1
  Te  Te87  1  0.40813779  0.73787868  0.10173545  1
  Te  Te88  1  0.40253750  0.75010782  0.41329580  1
  Te  Te89  1  0.41297886  0.76090248  0.73370035  1
  Te  Te90  1  0.74009194  0.11505780  0.08521624  1
  Te  Te91  1  0.75941685  0.05600811  0.41740232  1
  Te  Te92  1  0.73679444  0.09269473  0.72803511  1
  Te  Te93  1  0.74886887  0.40982646  0.08816003  1
  Te  Te94  1  0.74020743  0.43378402  0.41258467  1
  Te  Te95  1  0.79416014  0.38568665  0.74717164  1
  Te  Te96  1  0.74772979  0.75009144  0.07927650  1
  Te  Te97  1  0.74770347  0.78192395  0.42275218  1
  Te  Te98  1  0.74861284  0.76429506  0.73587171  1
  Te  Te99  1  0.08415800  0.22310557  0.25835394  1
  Te  Te100  1  0.09856212  0.25242300  0.57342234  1
  Te  Te101  1  0.11132464  0.21244747  0.95060268  1
  Te  Te102  1  0.08254893  0.56899920  0.26272081  1
  Te  Te103  1  0.07239202  0.59967645  0.59134185  1
  Te  Te104  1  0.06226538  0.59298341  0.93106904  1
  Te  Te105  1  0.11351093  0.88460758  0.27426280  1
  Te  Te106  1  0.08706098  0.92580284  0.59150704  1
  Te  Te107  1  0.11094792  0.92965841  0.89918384  1
  Te  Te108  1  0.42828017  0.24233840  0.23824686  1
  Te  Te109  1  0.43558459  0.23293121  0.57070936  1
  Te  Te110  1  0.40353290  0.24744437  0.94252434  1
  Te  Te111  1  0.39998690  0.57230648  0.25108697  1
  Te  Te112  1  0.41454096  0.58805890  0.58552825  1
  Te  Te113  1  0.41425398  0.57299233  0.92972285  1
  Te  Te114  1  0.43122738  0.92049819  0.27882489  1
  Te  Te115  1  0.41122190  0.95005969  0.56819423  1
  Te  Te116  1  0.42125481  0.93378319  0.92187148  1
  Te  Te117  1  0.76094738  0.25461825  0.23499977  1
  Te  Te118  1  0.75701876  0.25065892  0.57689021  1
  Te  Te119  1  0.76039855  0.25595961  0.92942074  1
  Te  Te120  1  0.73372970  0.61343571  0.25416481  1
  Te  Te121  1  0.73728063  0.57383863  0.58254663  1
  Te  Te122  1  0.74657998  0.57238792  0.91354884  1
  Te  Te123  1  0.74517703  0.93973997  0.23492077  1
  Te  Te124  1  0.69582613  0.96780570  0.62545568  1
  Te  Te125  1  0.74491499  0.90979389  0.90228178  1
  Te  Te126  1  0.21954539  0.23341351  0.06185537  1
  Te  Te127  1  0.27420342  0.28258161  0.42100642  1
  Te  Te128  1  0.25085276  0.25334195  0.76005532  1
  Te  Te129  1  0.24666167  0.56084517  0.09691470  1
  Te  Te130  1  0.23417997  0.58752596  0.42791850  1
  Te  Te131  1  0.26482729  0.60198628  0.73530689  1
  Te  Te132  1  0.25740523  0.93398455  0.07706504  1
  Te  Te133  1  0.23471704  0.90644660  0.39056709  1
  Te  Te134  1  0.26200650  0.94826391  0.72593960  1
  Te  Te135  1  0.55848326  0.26227645  0.11652012  1
  Te  Te136  1  0.58314510  0.24292024  0.41409486  1
  Te  Te137  1  0.58684567  0.27234441  0.72257459  1
  Te  Te138  1  0.56414688  0.57671284  0.08173836  1
  Te  Te139  1  0.60115758  0.58879132  0.40865309  1
  Te  Te140  1  0.58119943  0.58017534  0.76308674  1
  Te  Te141  1  0.58044288  0.91802986  0.07666159  1
  Te  Te142  1  0.59372591  0.87221697  0.42258286  1
  Te  Te143  1  0.60349989  0.90700707  0.73788341  1
  Te  Te144  1  0.95446999  0.29473196  0.07523835  1
  Te  Te145  1  0.92502789  0.24348143  0.42328458  1
  Te  Te146  1  0.89974956  0.26813136  0.76875705  1
  Te  Te147  1  0.90492717  0.58916588  0.09424947  1
  Te  Te148  1  0.92675788  0.58793164  0.41465017  1
  Te  Te149  1  0.92191432  0.58933577  0.73226052  1
  Te  Te150  1  0.94360255  0.91079970  0.10470222  1
  Te  Te151  1  0.93320855  0.93337109  0.39807995  1
  Te  Te152  1  0.90200715  0.90016930  0.73004367  1
  Te  Te153  1  0.26709321  0.07890218  0.26894612  1
  Te  Te154  1  0.27402441  0.10564914  0.53934412  1
  Te  Te155  1  0.22595428  0.03725245  0.91941318  1
  Te  Te156  1  0.24091353  0.38260861  0.21918124  1
  Te  Te157  1  0.26239841  0.41007355  0.57734619  1
  Te  Te158  1  0.25769340  0.40260957  0.94835304  1
  Te  Te159  1  0.22303697  0.77483642  0.24194007  1
  Te  Te160  1  0.24909461  0.74505793  0.58312680  1
  Te  Te161  1  0.24630397  0.75653537  0.90645908  1
  Te  Te162  1  0.58758149  0.10169977  0.25726899  1
  Te  Te163  1  0.58287037  0.04219053  0.56051755  1
  Te  Te164  1  0.58644262  0.08896515  0.89812728  1
  Te  Te165  1  0.56996018  0.42028358  0.24867415  1
  Te  Te166  1  0.60483786  0.42301452  0.57623836  1
  Te  Te167  1  0.58703718  0.41696125  0.91076762  1
  Te  Te168  1  0.56964956  0.77328595  0.28550702  1
  Te  Te169  1  0.59556599  0.77505534  0.55203262  1
  Te  Te170  1  0.58884401  0.76308070  0.89817774  1
  Te  Te171  1  0.93330822  0.09656178  0.23776787  1
  Te  Te172  1  0.89765577  0.05144043  0.56549559  1
  Te  Te173  1  0.90755365  0.07295998  0.92396466  1
  Te  Te174  1  0.89604302  0.40225576  0.25020099  1
  Te  Te175  1  0.90876749  0.42933851  0.59912232  1
  Te  Te176  1  0.94706597  0.39318747  0.93911099  1
  Te  Te177  1  0.90808553  0.74107807  0.23480501  1
  Te  Te178  1  0.89433952  0.75994391  0.58764532  1
  Te  Te179  1  0.91059639  0.75104731  0.92187740  1
