# generated using pymatgen
data_In2Te3
_symmetry_space_group_name_H-M   'P 1'
_cell_length_a   18.83733634
_cell_length_b   18.83977606
_cell_length_c   18.84206405
_cell_angle_alpha   89.92819488
_cell_angle_beta   90.04309756
_cell_angle_gamma   89.98309718
_symmetry_Int_Tables_number   1
_chemical_formula_structural   In2Te3
_chemical_formula_sum   'In72 Te108'
_cell_volume   6686.87525221
_cell_formula_units_Z   36
loop_
 _symmetry_equiv_pos_site_id
 _symmetry_equiv_pos_as_xyz
  1  'x, y, z'
loop_
 _atom_site_type_symbol
 _atom_site_label
 _atom_site_symmetry_multiplicity
 _atom_site_fract_x
 _atom_site_fract_y
 _atom_site_fract_z
 _atom_site_occupancy
  In  In0  1  0.30977944  0.14334450  0.16383967  1
  In  In1  1  0.32792296  0.68918076  0.31046906  1
  In  In2  1  0.85676642  0.69661670  0.51112875  1
  In  In3  1  0.67279449  0.16755177  0.83837513  1
  In  In4  1  0.49537319  0.15240470  0.01739074  1
  In  In5  1  0.82897916  0.36107733  0.48780393  1
  In  In6  1  0.83709526  0.68210415  0.17617458  1
  In  In7  1  0.32894280  -0.02442401  0.00240772  1
  In  In8  1  0.61670588  0.70721451  0.30505156  1
  In  In9  1  0.32675334  0.33193799  0.66845101  1
  In  In10  1  0.16211858  0.33119303  0.50944149  1
  In  In11  1  0.67475189  0.68829963  0.68156123  1
  In  In12  1  0.30289394  0.87169473  0.47181514  1
  In  In13  1  0.13151976  0.19300865  -0.00618434  1
  In  In14  1  0.14664612  0.53053425  0.67604086  1
  In  In15  1  0.33997459  0.82918440  0.84675055  1
  In  In16  1  0.48447464  0.67223008  0.49214370  1
  In  In17  1  0.35005963  0.52108274  0.49189440  1
  In  In18  1  0.66820923  0.16059803  0.48108248  1
  In  In19  1  0.02198587  0.84972391  0.49249760  1
  In  In20  1  0.31906032  0.87125461  0.18782454  1
  In  In21  1  0.68915414  0.64799929  0.01899596  1
  In  In22  1  0.65682103  0.49474563  0.17177573  1
  In  In23  1  0.34343636  0.01205970  0.66218530  1
  In  In24  1  0.83715041  0.31029397  0.16357440  1
  In  In25  1  0.85957962  0.18752846  0.69066547  1
  In  In26  1  0.17382248  0.49544547  0.33653995  1
  In  In27  1  0.50892983  0.51136201  0.65423618  1
  In  In28  1  0.02991691  0.27217137  0.28728437  1
  In  In29  1  0.68089402  0.83415865  0.50567440  1
  In  In30  1  0.50478581  0.67025374  0.82612801  1
  In  In31  1  0.33365549  0.49321512  0.16104341  1
  In  In32  1  -0.00012411  0.14845610  0.49635980  1
  In  In33  1  0.15915691  0.83319146  0.65786474  1
  In  In34  1  0.67427049  0.00724592  0.02671694  1
  In  In35  1  0.34208864  0.15781353  0.82930869  1
  In  In36  1  0.66886153  -0.01104041  0.67116788  1
  In  In37  1  0.81338021  0.48318901  0.34545658  1
  In  In38  1  0.49836791  0.84376597  0.00664869  1
  In  In39  1  0.32171073  0.66181541  -0.00305250  1
  In  In40  1  0.00686842  0.00880763  0.00556125  1
  In  In41  1  0.66564184  0.31993886  0.00122168  1
  In  In42  1  0.51464545  0.32888179  0.85069804  1
  In  In43  1  0.18054568  0.15068854  0.67463093  1
  In  In44  1  -0.00126568  0.49249796  0.52077941  1
  In  In45  1  0.50259049  0.00655848  0.48154321  1
  In  In46  1  -0.00024620  0.48979240  0.16454697  1
  In  In47  1  0.68144813  0.33701700  0.68014851  1
  In  In48  1  0.85047540  0.14059072  0.32914567  1
  In  In49  1  0.85318688  0.15344720  0.00700150  1
  In  In50  1  0.15581578  0.47922586  0.01088410  1
  In  In51  1  0.32670142  0.32595271  0.29845131  1
  In  In52  1  0.50075239  0.29540841  0.49941521  1
  In  In53  1  0.15383879  -0.00180534  0.85185265  1
  In  In54  1  0.84019997  0.49461368  -0.03280124  1
  In  In55  1  0.00216958  0.47650196  0.82742071  1
  In  In56  1  0.29987003  0.49507468  0.82772362  1
  In  In57  1  0.67217110  0.85623359  0.84908350  1
  In  In58  1  0.69704531  0.48704060  0.48403143  1
  In  In59  1  0.34706479  0.15053504  0.45943358  1
  In  In60  1  0.65679635  0.01488618  0.30655646  1
  In  In61  1  0.00699333  0.68687480  0.34364500  1
  In  In62  1  0.50787637  0.48457459  0.32962063  1
  In  In63  1  0.85156408  0.84563648  0.01624336  1
  In  In64  1  0.81384672  0.84948078  0.32840497  1
  In  In65  1  0.00876679  0.67594758  -0.00931225  1
  In  In66  1  0.82638434  0.48486342  0.67795709  1
  In  In67  1  0.16574403  0.84074167  0.01193085  1
  In  In68  1  0.00923339  0.67509336  0.67461253  1
  In  In69  1  0.50206010  0.49123735  0.02311662  1
  In  In70  1  -0.01447318  -0.01429227  0.68483119  1
  In  In71  1  0.01571779  -0.00851157  0.31224987  1
  Te  Te72  1  0.07859166  0.10145005  0.10213332  1
  Te  Te73  1  0.09318257  0.08528559  0.40049364  1
  Te  Te74  1  0.07122091  0.08819111  0.76167842  1
  Te  Te75  1  0.06479739  0.38389438  0.08345087  1
  Te  Te76  1  0.07151830  0.40956827  0.41316870  1
  Te  Te77  1  0.09869575  0.40792678  0.73939593  1
  Te  Te78  1  0.08108536  0.75100689  0.09374299  1
  Te  Te79  1  0.11178850  0.76200142  0.41530743  1
  Te  Te80  1  0.08625038  0.76258748  0.76459704  1
  Te  Te81  1  0.41845502  0.05019117  0.09994504  1
  Te  Te82  1  0.40476590  0.04227732  0.37077469  1
  Te  Te83  1  0.43907278  0.08624583  0.74660251  1
  Te  Te84  1  0.42594834  0.39343863  0.10167169  1
  Te  Te85  1  0.40928323  0.39979208  0.42094870  1
  Te  Te86  1  0.42906568  0.41493773  0.74845815  1
  Te  Te87  1  0.38265070  0.77508711  0.07824400  1
  Te  Te88  1  0.41023664  0.77323138  0.40760163  1
  Te  Te89  1  0.42609379  0.76504927  0.74615371  1
  Te  Te90  1  0.74085287  0.11770112  0.10282576  1
  Te  Te91  1  0.75920087  0.05875386  0.41931812  1
  Te  Te92  1  0.76442680  0.08442098  0.75093422  1
  Te  Te93  1  0.76120607  0.42225370  0.08503141  1
  Te  Te94  1  0.71462445  0.37192859  0.38349011  1
  Te  Te95  1  0.76155937  0.40424220  0.78336543  1
  Te  Te96  1  0.74146054  0.76820731  0.09588971  1
  Te  Te97  1  0.74928313  0.73229377  0.40617388  1
  Te  Te98  1  0.76519357  0.77991151  0.75596327  1
  Te  Te99  1  0.14070165  0.18975025  0.22063117  1
  Te  Te100  1  0.08042615  0.23568175  0.59404417  1
  Te  Te101  1  0.04105092  0.25986990  0.89655579  1
  Te  Te102  1  0.07911925  0.58410687  0.25411009  1
  Te  Te103  1  0.08629009  0.60993121  0.56001507  1
  Te  Te104  1  0.08759615  0.57330859  0.91163571  1
  Te  Te105  1  0.11423646  0.88934744  0.26357093  1
  Te  Te106  1  0.09379862  0.94887235  0.58256577  1
  Te  Te107  1  0.06064697  0.89699019  0.91409880  1
  Te  Te108  1  0.41389970  0.22551509  0.23613858  1
  Te  Te109  1  0.40020044  0.22583033  0.58799501  1
  Te  Te110  1  0.41396018  0.24928324  0.93024632  1
  Te  Te111  1  0.42028682  0.58274664  0.25014484  1
  Te  Te112  1  0.40240514  0.60802706  0.60559014  1
  Te  Te113  1  0.41847695  0.57444954  0.91713869  1
  Te  Te114  1  0.43135710  0.90571485  0.27977615  1
  Te  Te115  1  0.41652459  0.91617775  0.57001467  1
  Te  Te116  1  0.43508390  0.93507716  0.90157294  1
  Te  Te117  1  0.75291999  0.21567835  0.24246302  1
  Te  Te118  1  0.75500264  0.25260629  0.57618522  1
  Te  Te119  1  0.77089616  0.25198500  0.91681738  1
  Te  Te120  1  0.74217867  0.59022961  0.25623701  1
  Te  Te121  1  0.76114039  0.59208037  0.58313166  1
  Te  Te122  1  0.76514244  0.60318695  0.90105134  1
  Te  Te123  1  0.74886706  0.93221478  0.22565552  1
  Te  Te124  1  0.76796161  0.92108222  0.58435329  1
  Te  Te125  1  0.77040910  0.94276521  0.92745077  1
  Te  Te126  1  0.24236972  0.24689841  0.07770390  1
  Te  Te127  1  0.24568496  0.25486734  0.40822615  1
  Te  Te128  1  0.24067882  0.25566225  0.76827986  1
  Te  Te129  1  0.23264569  0.58512426  0.09262935  1
  Te  Te130  1  0.24943300  0.60261984  0.41374257  1
  Te  Te131  1  0.24913977  0.60650610  0.74884013  1
  Te  Te132  1  0.21627661  0.95165846  0.10246059  1
  Te  Te133  1  0.22123772  0.93977441  0.35943366  1
  Te  Te134  1  0.25313521  0.92979597  0.75790011  1
  Te  Te135  1  0.59422205  0.23256347  0.09477463  1
  Te  Te136  1  0.56507420  0.21996223  0.38619640  1
  Te  Te137  1  0.57894644  0.24301556  0.74239436  1
  Te  Te138  1  0.56999339  0.60182617  0.10334493  1
  Te  Te139  1  0.58436964  0.58326349  0.41843554  1
  Te  Te140  1  0.60399360  0.57409759  0.75444635  1
  Te  Te141  1  0.57993019  0.92073251  0.10602209  1
  Te  Te142  1  0.59599266  0.91173924  0.40737406  1
  Te  Te143  1  0.57595042  0.90236481  0.74732659  1
  Te  Te144  1  0.94434968  0.24316531  0.08646585  1
  Te  Te145  1  0.91559426  0.25018807  0.41750671  1
  Te  Te146  1  0.92716643  0.27175730  0.78906428  1
  Te  Te147  1  0.90659363  0.58187496  0.08438006  1
  Te  Te148  1  0.91455568  0.58018587  0.41901029  1
  Te  Te149  1  0.91731105  0.58233086  0.75274788  1
  Te  Te150  1  0.92376332  0.93821947  0.10921702  1
  Te  Te151  1  0.91623057  0.92439603  0.41417301  1
  Te  Te152  1  0.89842139  0.88046707  0.74009682  1
  Te  Te153  1  0.23239728  0.07832664  0.27933545  1
  Te  Te154  1  0.25234885  0.08046841  0.55982874  1
  Te  Te155  1  0.24825525  0.08778395  0.93223158  1
  Te  Te156  1  0.22179325  0.40600296  0.22357510  1
  Te  Te157  1  0.25200529  0.43380011  0.57928230  1
  Te  Te158  1  0.25868804  0.40518722  0.93391470  1
  Te  Te159  1  0.22732808  0.75766061  0.22444939  1
  Te  Te160  1  0.25472686  0.76876037  0.56638610  1
  Te  Te161  1  0.22994861  0.74554140  0.90918886  1
  Te  Te162  1  0.55321204  0.11423452  0.27145307  1
  Te  Te163  1  0.58355076  0.08673634  0.58300759  1
  Te  Te164  1  0.58561078  0.07476823  0.92070140  1
  Te  Te165  1  0.56845219  0.39248329  0.23177833  1
  Te  Te166  1  0.58457364  0.40845743  0.57038453  1
  Te  Te167  1  0.60018621  0.43326651  0.92187384  1
  Te  Te168  1  0.53854457  0.80541174  0.22652592  1
  Te  Te169  1  0.57769954  0.75355641  0.58396834  1
  Te  Te170  1  0.58942673  0.74342774  0.93223704  1
  Te  Te171  1  0.92487812  0.06855431  0.22121647  1
  Te  Te172  1  0.90450372  0.07952363  0.59166112  1
  Te  Te173  1  0.91675822  0.06782782  0.90419963  1
  Te  Te174  1  0.91603031  0.40403342  0.26186443  1
  Te  Te175  1  0.92376768  0.39238127  0.60542033  1
  Te  Te176  1  0.94798746  0.39313789  0.94239132  1
  Te  Te177  1  0.92740596  0.77784594  0.25101429  1
  Te  Te178  1  0.92614220  0.78931063  0.60914388  1
  Te  Te179  1  0.89426627  0.73905267  0.92239386  1
