# generated using pymatgen
data_In2Te3
_symmetry_space_group_name_H-M   'P 1'
_cell_length_a   19.00971345
_cell_length_b   18.99864063
_cell_length_c   19.00948492
_cell_angle_alpha   90.03098787
_cell_angle_beta   89.99784877
_cell_angle_gamma   89.89840723
_symmetry_Int_Tables_number   1
_chemical_formula_structural   In2Te3
_chemical_formula_sum   'In72 Te108'
_cell_volume   6865.42933221
_cell_formula_units_Z   36
loop_
 _symmetry_equiv_pos_site_id
 _symmetry_equiv_pos_as_xyz
  1  'x, y, z'
loop_
 _atom_site_type_symbol
 _atom_site_label
 _atom_site_symmetry_multiplicity
 _atom_site_fract_x
 _atom_site_fract_y
 _atom_site_fract_z
 _atom_site_occupancy
  In  In0  1  -0.00102912  0.50921682  0.16330920  1
  In  In1  1  0.31740513  0.00848777  0.68772255  1
  In  In2  1  0.16274412  0.33944508  0.81695200  1
  In  In3  1  -0.00956938  0.00800572  0.68950463  1
  In  In4  1  -0.00181398  0.34366046  -0.01264260  1
  In  In5  1  0.49206057  0.83867490  0.66117271  1
  In  In6  1  0.16776053  0.17907311  0.32283702  1
  In  In7  1  0.00224431  0.33828178  0.37493507  1
  In  In8  1  0.14542565  0.85569612  0.69665841  1
  In  In9  1  0.32481687  0.49592461  0.50259858  1
  In  In10  1  0.16013301  0.00740351  0.12765997  1
  In  In11  1  0.83700467  0.81768477  0.67084370  1
  In  In12  1  0.31807146  0.65566908  0.68986802  1
  In  In13  1  0.31784901  0.69453131  0.00061465  1
  In  In14  1  0.14544186  0.35734439  0.52996441  1
  In  In15  1  0.83798064  0.34460170  0.81669050  1
  In  In16  1  0.32768124  -0.00081987  0.35202983  1
  In  In17  1  0.50796133  0.34849690  0.18583002  1
  In  In18  1  0.68420009  0.01640341  -0.00377815  1
  In  In19  1  0.50180832  0.02006104  0.16009075  1
  In  In20  1  0.81784824  0.82861864  0.33422500  1
  In  In21  1  0.84468901  0.01220697  0.84047878  1
  In  In22  1  0.50029273  0.49088105  -0.00030518  1
  In  In23  1  0.83643224  0.48765812  0.33988088  1
  In  In24  1  0.52085001  0.50871250  0.65549237  1
  In  In25  1  0.50646648  -0.00892771  0.83878235  1
  In  In26  1  0.14893287  0.33745501  0.18939448  1
  In  In27  1  -0.04218783  0.02648559  0.32357029  1
  In  In28  1  -0.02386306  0.86282320  0.16187888  1
  In  In29  1  0.69518936  0.49647328  0.52649726  1
  In  In30  1  0.14511844  0.17056713  0.67584639  1
  In  In31  1  0.49189860  0.81988933  -0.01548096  1
  In  In32  1  0.34428841  0.15713905  0.51625512  1
  In  In33  1  0.15869656  0.65387111  0.15674916  1
  In  In34  1  0.13846789  0.81522805  0.32413449  1
  In  In35  1  0.68272342  0.32670310  -0.02102188  1
  In  In36  1  0.51536653  0.64893114  0.81198970  1
  In  In37  1  0.15392535  0.16202170  0.00186511  1
  In  In38  1  0.84370784  -0.00202712  0.50130542  1
  In  In39  1  0.83572000  0.67972156  0.17247316  1
  In  In40  1  0.83939061  0.84545913  0.00049555  1
  In  In41  1  0.84253481  0.16949853  0.67980980  1
  In  In42  1  0.51947540  0.67155195  0.49137512  1
  In  In43  1  0.49793798  0.33206127  0.47715175  1
  In  In44  1  0.64794733  0.65786186  -0.01444137  1
  In  In45  1  0.65644662  0.33180218  0.32896115  1
  In  In46  1  0.86801203  0.34034859  0.53941705  1
  In  In47  1  0.32042182  0.17526189  0.83578730  1
  In  In48  1  0.32597675  0.83847568  0.15684715  1
  In  In49  1  0.69583601  -0.02134448  0.34723648  1
  In  In50  1  0.68025957  0.82312936  0.50541054  1
  In  In51  1  0.52391913  0.18194904  0.65347408  1
  In  In52  1  0.81977502  0.34627462  0.13821733  1
  In  In53  1  0.34708284  0.18087205  0.15705361  1
  In  In54  1  0.34325560  0.33669940  0.32216524  1
  In  In55  1  0.00726066  0.65046462  -0.00781825  1
  In  In56  1  0.36195817  0.52062520  0.17977153  1
  In  In57  1  0.48688536  0.32727757  0.81929061  1
  In  In58  1  -0.00460623  0.67653642  0.64565603  1
  In  In59  1  0.82234897  0.67270823  0.83975594  1
  In  In60  1  0.32433483  0.49861186  0.84469207  1
  In  In61  1  -0.01365843  0.64770458  0.37299089  1
  In  In62  1  0.67436234  0.16757766  0.16735222  1
  In  In63  1  0.17696100  0.65103087  0.52429069  1
  In  In64  1  0.49056310  0.16217435  -0.00434542  1
  In  In65  1  0.64428802  0.83049543  0.18130716  1
  In  In66  1  0.49020903  0.80111989  0.33189159  1
  In  In67  1  0.51909408  0.00842797  0.51942488  1
  In  In68  1  0.12612920  0.84195851  -0.03545053  1
  In  In69  1  0.00182055  0.49648217  0.82636559  1
  In  In70  1  0.35801486  0.79655779  0.49810161  1
  In  In71  1  0.13989391  -0.02247476  0.48660528  1
  Te  Te72  1  0.06074375  0.11004746  0.10350596  1
  Te  Te73  1  0.07537434  0.08372391  0.40114004  1
  Te  Te74  1  0.09859514  0.06894722  0.77303835  1
  Te  Te75  1  0.09012002  0.42391208  0.07905530  1
  Te  Te76  1  0.11511171  0.42576647  0.40388572  1
  Te  Te77  1  0.04938079  0.38871510  0.73363429  1
  Te  Te78  1  0.07437737  0.76187417  0.09165278  1
  Te  Te79  1  0.08080815  0.74342267  0.44254279  1
  Te  Te80  1  0.07422628  0.74204237  0.75238936  1
  Te  Te81  1  0.39404179  0.06865184  0.06543218  1
  Te  Te82  1  0.43251380  0.08482382  0.41592743  1
  Te  Te83  1  0.42440036  0.09755228  0.74561795  1
  Te  Te84  1  0.40989774  0.40683024  0.08775141  1
  Te  Te85  1  0.42268633  0.43902206  0.40098559  1
  Te  Te86  1  0.41802312  0.43614789  0.74081938  1
  Te  Te87  1  0.42872106  0.74416231  0.09763903  1
  Te  Te88  1  0.39100159  0.69776725  0.38645379  1
  Te  Te89  1  0.41499112  0.75048810  0.75744832  1
  Te  Te90  1  0.77419200  0.09282700  0.08476663  1
  Te  Te91  1  0.75526429  0.08667909  0.42376490  1
  Te  Te92  1  0.75291003  0.07583593  0.74720191  1
  Te  Te93  1  0.71099578  0.42717912  0.08277158  1
  Te  Te94  1  0.76066846  0.38989629  0.43083852  1
  Te  Te95  1  0.77221901  0.42114285  0.70381981  1
  Te  Te96  1  0.74187162  0.75540743  0.07758071  1
  Te  Te97  1  0.76503297  0.72946069  0.42898272  1
  Te  Te98  1  0.73526202  0.75692737  0.75645086  1
  Te  Te99  1  0.05021260  0.24521956  0.25527768  1
  Te  Te100  1  0.08448974  0.22757170  0.55605548  1
  Te  Te101  1  0.07673386  0.24654186  0.90273916  1
  Te  Te102  1  0.07818665  0.58536887  0.26592605  1
  Te  Te103  1  0.07705977  0.56261270  0.59038702  1
  Te  Te104  1  0.09582180  0.56128449  0.91970164  1
  Te  Te105  1  0.08600392  0.93167830  0.24310341  1
  Te  Te106  1  0.05371924  0.90974400  0.58789167  1
  Te  Te107  1  0.08071235  0.96948159  0.90176259  1
  Te  Te108  1  0.43970330  0.23540963  0.26139872  1
  Te  Te109  1  0.41579539  0.26749830  0.58801319  1
  Te  Te110  1  0.40155028  0.26358679  0.92840326  1
  Te  Te111  1  0.43397974  0.61789432  0.25969640  1
  Te  Te112  1  0.41488215  0.60013984  0.58533662  1
  Te  Te113  1  0.42036100  0.60111137  0.92106184  1
  Te  Te114  1  0.42244115  0.91755291  0.25040504  1
  Te  Te115  1  0.39837805  0.92725488  0.57251771  1
  Te  Te116  1  0.40703970  0.91276236  0.91148770  1
  Te  Te117  1  0.76275867  0.25789518  0.24825335  1
  Te  Te118  1  0.75858816  0.28476392  0.62691292  1
  Te  Te119  1  0.78846196  0.24522333  0.91580096  1
  Te  Te120  1  0.76507142  0.58922156  0.26232874  1
  Te  Te121  1  0.74962972  0.56312320  0.64622887  1
  Te  Te122  1  0.74160859  0.57397527  0.91262380  1
  Te  Te123  1  0.76517320  0.91425747  0.21849406  1
  Te  Te124  1  0.75062087  0.92270868  0.59182334  1
  Te  Te125  1  0.74280187  0.91236504  0.90606786  1
  Te  Te126  1  0.23748654  0.25789844  0.09352122  1
  Te  Te127  1  0.26648375  0.24580775  0.41624852  1
  Te  Te128  1  0.25683262  0.25684529  0.72618908  1
  Te  Te129  1  0.26032821  0.57736760  0.07667711  1
  Te  Te130  1  0.23487771  0.57265708  0.41457809  1
  Te  Te131  1  0.22754609  0.56165112  0.75307735  1
  Te  Te132  1  0.23941976  0.90366463  0.05287402  1
  Te  Te133  1  0.24622799  0.88796566  0.41403108  1
  Te  Te134  1  0.25857122  0.90767878  0.77434196  1
  Te  Te135  1  0.57925792  0.25048551  0.08127607  1
  Te  Te136  1  0.58642659  0.23467463  0.41374664  1
  Te  Te137  1  0.59642453  0.25190925  0.75990209  1
  Te  Te138  1  0.58592582  0.57162215  0.08736043  1
  Te  Te139  1  0.60442343  0.56850935  0.43598119  1
  Te  Te140  1  0.62180471  0.56585996  0.74920487  1
  Te  Te141  1  0.57965969  0.92309944  0.07132677  1
  Te  Te142  1  0.57601682  0.90265333  0.41731582  1
  Te  Te143  1  0.57740111  0.93964926  0.72179076  1
  Te  Te144  1  0.89894177  0.25514557  0.05279592  1
  Te  Te145  1  0.90921772  0.24472003  0.43586684  1
  Te  Te146  1  0.93974752  0.26354564  0.74316491  1
  Te  Te147  1  0.90068264  0.58221928  0.07553118  1
  Te  Te148  1  0.91076922  0.54962411  0.45631840  1
  Te  Te149  1  0.91582122  0.59358156  0.74874359  1
  Te  Te150  1  0.93399374  0.95054988  0.04943520  1
  Te  Te151  1  0.92345776  0.90741702  0.40840548  1
  Te  Te152  1  0.92035960  0.90087791  0.76701784  1
  Te  Te153  1  0.25851844  0.07969292  0.24374293  1
  Te  Te154  1  0.23137293  0.06740187  0.57021784  1
  Te  Te155  1  0.24604019  0.08197659  0.91862445  1
  Te  Te156  1  0.25349132  0.43061420  0.24631045  1
  Te  Te157  1  0.24779172  0.42744044  0.60625247  1
  Te  Te158  1  0.25348605  0.39423527  0.91794514  1
  Te  Te159  1  0.24495010  0.74423227  0.24352915  1
  Te  Te160  1  0.24804232  0.76563706  0.59832140  1
  Te  Te161  1  0.21850851  0.74351661  0.90529984  1
  Te  Te162  1  0.60435944  0.06774848  0.25725197  1
  Te  Te163  1  0.61519284  0.10781410  0.56453069  1
  Te  Te164  1  0.59346194  0.09805065  0.90683720  1
  Te  Te165  1  0.58728818  0.44227191  0.26240924  1
  Te  Te166  1  0.58833402  0.39837638  0.58020528  1
  Te  Te167  1  0.58405565  0.41299281  0.90119409  1
  Te  Te168  1  0.59784876  0.72402580  0.26871982  1
  Te  Te169  1  0.59359350  0.74218245  0.60100330  1
  Te  Te170  1  0.58925081  0.75940934  0.88703785  1
  Te  Te171  1  0.85973873  0.05344463  0.22141345  1
  Te  Te172  1  0.93069334  0.09289190  0.58069196  1
  Te  Te173  1  0.95503147  0.05627255  0.92891321  1
  Te  Te174  1  0.92358257  0.40744416  0.24496426  1
  Te  Te175  1  0.95817302  0.45397136  0.56954907  1
  Te  Te176  1  0.89899865  0.43646085  0.92078049  1
  Te  Te177  1  0.93962312  0.74798626  0.25941760  1
  Te  Te178  1  0.88996586  0.73624292  0.55959744  1
  Te  Te179  1  0.92841462  0.75503213  0.91800589  1
