# generated using pymatgen
data_In2Te3
_symmetry_space_group_name_H-M   'P 1'
_cell_length_a   19.03854118
_cell_length_b   19.00547421
_cell_length_c   18.98867733
_cell_angle_alpha   89.84291591
_cell_angle_beta   90.11720912
_cell_angle_gamma   90.12007007
_symmetry_Int_Tables_number   1
_chemical_formula_structural   In2Te3
_chemical_formula_sum   'In72 Te108'
_cell_volume   6870.74140506
_cell_formula_units_Z   36
loop_
 _symmetry_equiv_pos_site_id
 _symmetry_equiv_pos_as_xyz
  1  'x, y, z'
loop_
 _atom_site_type_symbol
 _atom_site_label
 _atom_site_symmetry_multiplicity
 _atom_site_fract_x
 _atom_site_fract_y
 _atom_site_fract_z
 _atom_site_occupancy
  In  In0  1  0.00979353  0.82701292  0.18754157  1
  In  In1  1  0.16619946  0.15557210  0.32756076  1
  In  In2  1  0.32067571  0.32934855  0.34295652  1
  In  In3  1  0.19219646  -0.01624860  0.13882177  1
  In  In4  1  0.83161051  0.34210291  0.46766554  1
  In  In5  1  0.19971364  0.69188267  0.51676828  1
  In  In6  1  0.48263261  0.65169418  0.13971321  1
  In  In7  1  0.61651409  0.02442197  -0.01722756  1
  In  In8  1  0.00865197  0.69195229  -0.04600555  1
  In  In9  1  0.16864760  0.53426692  0.34926570  1
  In  In10  1  0.81533829  0.13309616  0.65074378  1
  In  In11  1  0.15639584  0.49703645  -0.01444922  1
  In  In12  1  0.79521900  0.50621875  0.33946765  1
  In  In13  1  0.18786044  0.84805692  0.33391251  1
  In  In14  1  0.35343554  0.17319328  0.15941941  1
  In  In15  1  -0.03183311  0.49480893  0.14737963  1
  In  In16  1  0.48453406  0.02508487  0.48223354  1
  In  In17  1  0.19931009  0.85902797  -0.06301586  1
  In  In18  1  0.63018568  0.65783133  0.65827760  1
  In  In19  1  0.82616883  0.82138702  0.31904534  1
  In  In20  1  0.65955031  0.67285372  0.31923488  1
  In  In21  1  -0.01315023  0.68117570  0.32167500  1
  In  In22  1  0.20482601  0.29329657  0.20661865  1
  In  In23  1  0.02742681  0.84912249  0.50783921  1
  In  In24  1  0.18788108  0.34465938  0.81921052  1
  In  In25  1  -0.01456316  0.16030083  0.18006560  1
  In  In26  1  0.17317698  0.69449323  0.18267264  1
  In  In27  1  0.20074672  0.34143468  0.48558289  1
  In  In28  1  0.02606910  0.53475494  0.50714456  1
  In  In29  1  0.50745102  0.86674484  0.64934602  1
  In  In30  1  0.20979920  0.17078743  -0.00356916  1
  In  In31  1  0.21506577  0.15152278  0.68689553  1
  In  In32  1  0.63346485  0.84420678  0.13704426  1
  In  In33  1  0.81067783  0.49497735  0.66311483  1
  In  In34  1  0.80310566  0.17222430  0.02099944  1
  In  In35  1  0.50762018  0.45764373  0.01913402  1
  In  In36  1  0.50644234  0.67894611  0.46880474  1
  In  In37  1  0.48381712  0.85435933  0.34006276  1
  In  In38  1  0.21012500  0.51550968  0.61022061  1
  In  In39  1  0.47647254  0.32279355  0.49560380  1
  In  In40  1  0.68202756  0.01873162  0.70212036  1
  In  In41  1  0.78502678  0.35301653  0.20147524  1
  In  In42  1  0.84739135  0.84208135  0.69312887  1
  In  In43  1  0.37742862  0.68004711  0.65493668  1
  In  In44  1  0.67904099  0.82591030  0.85117964  1
  In  In45  1  0.16495118  0.00623936  0.53090458  1
  In  In46  1  0.64835062  0.32234326  0.67569296  1
  In  In47  1  0.65554591  0.02429533  0.32480339  1
  In  In48  1  0.48749764  0.16579155  0.66209780  1
  In  In49  1  0.34281019  0.49767799  0.14993221  1
  In  In50  1  -0.00587763  0.52076449  0.83921243  1
  In  In51  1  0.00235213  -0.00842712  0.66995076  1
  In  In52  1  0.35857619  0.49116446  0.82220032  1
  In  In53  1  -0.00912679  0.15076304  0.83241098  1
  In  In54  1  0.66294125  0.18659657  0.49695938  1
  In  In55  1  0.02512878  0.35280672  0.64480033  1
  In  In56  1  0.83038240  0.00986408  0.16323532  1
  In  In57  1  0.83339658  -0.02753422  0.49235876  1
  In  In58  1  -0.00574991  0.30738230  -0.00577728  1
  In  In59  1  0.01934131  0.19764399  0.49575618  1
  In  In60  1  0.80664249  0.84661848  0.02534211  1
  In  In61  1  0.81868090  0.64563144  0.83910535  1
  In  In62  1  0.49160614  0.47573853  0.66729864  1
  In  In63  1  0.82549361  0.29118542  0.82448685  1
  In  In64  1  0.49029416  -0.00599890  0.15383163  1
  In  In65  1  0.82470508  0.68124916  0.52338421  1
  In  In66  1  0.50987068  0.66384585  0.83719909  1
  In  In67  1  0.62350675  0.21551463  0.17210054  1
  In  In68  1  0.03259022  0.00356538  -0.00235705  1
  In  In69  1  0.35279785  0.10864646  0.84548847  1
  In  In70  1  0.32238037  0.67257344  -0.01930612  1
  In  In71  1  0.82606806  0.48407619  0.00389976  1
  Te  Te72  1  0.09754774  0.11005061  0.09039762  1
  Te  Te73  1  0.07969044  0.07825567  0.42573675  1
  Te  Te74  1  0.09520166  0.08083134  0.75214462  1
  Te  Te75  1  0.07236543  0.40892379  0.07581003  1
  Te  Te76  1  0.08848238  0.42550569  0.42299828  1
  Te  Te77  1  0.09203703  0.43830283  0.74944369  1
  Te  Te78  1  0.08200984  0.75408802  0.07789700  1
  Te  Te79  1  0.09010859  0.74312914  0.41407732  1
  Te  Te80  1  0.02049147  0.76600015  0.82399913  1
  Te  Te81  1  0.40124605  0.07176839  0.06061108  1
  Te  Te82  1  0.40646871  0.12946940  0.41698436  1
  Te  Te83  1  0.43086008  0.04500305  0.73135316  1
  Te  Te84  1  0.44639433  0.39243012  0.13981579  1
  Te  Te85  1  0.41302780  0.42172861  0.40743696  1
  Te  Te86  1  0.45125987  0.38791599  0.77770647  1
  Te  Te87  1  0.39903172  0.75529996  0.07479125  1
  Te  Te88  1  0.39691824  0.75928362  0.41271596  1
  Te  Te89  1  0.44552069  0.77158517  0.75491711  1
  Te  Te90  1  0.71333678  0.07439999  0.09409726  1
  Te  Te91  1  0.75244352  0.08287978  0.42706129  1
  Te  Te92  1  0.76767415  0.10554913  0.78606293  1
  Te  Te93  1  0.72104191  0.43657120  0.09655663  1
  Te  Te94  1  0.71449186  0.40960604  0.41507767  1
  Te  Te95  1  0.74153605  0.40520300  0.76214641  1
  Te  Te96  1  0.71460138  0.74089421  0.06964032  1
  Te  Te97  1  0.74024232  0.75703177  0.42413603  1
  Te  Te98  1  0.73677615  0.73564840  0.73528330  1
  Te  Te99  1  0.07168808  0.25787169  0.26492115  1
  Te  Te100  1  0.12197595  0.24537149  0.59759475  1
  Te  Te101  1  0.09976619  0.24646370  0.90428041  1
  Te  Te102  1  0.06808084  0.58451360  0.23750667  1
  Te  Te103  1  0.09582503  0.61710605  0.60959006  1
  Te  Te104  1  0.11448810  0.60027891  0.88495399  1
  Te  Te105  1  0.09716298  0.93366509  0.24768193  1
  Te  Te106  1  0.10720912  0.89290429  0.62668918  1
  Te  Te107  1  0.05871556  0.89956715  0.88978375  1
  Te  Te108  1  0.42087104  0.27317403  0.24677961  1
  Te  Te109  1  0.39183509  0.26038130  0.60062879  1
  Te  Te110  1  0.43985997  0.17985360  0.95083694  1
  Te  Te111  1  0.39672310  0.59390413  0.24462102  1
  Te  Te112  1  0.44098959  0.57691240  0.56759524  1
  Te  Te113  1  0.42882331  0.57353401  0.93177327  1
  Te  Te114  1  0.39933493  0.92870536  0.24690551  1
  Te  Te115  1  0.40696738  0.92386444  0.55741249  1
  Te  Te116  1  0.38822402  0.95977290  0.86081715  1
  Te  Te117  1  0.74242883  0.22535194  0.26459311  1
  Te  Te118  1  0.76765429  0.26278867  0.59071049  1
  Te  Te119  1  0.73364303  0.27495904  0.93952710  1
  Te  Te120  1  0.75376534  0.59792335  0.23510645  1
  Te  Te121  1  0.72441111  0.57726671  0.56952979  1
  Te  Te122  1  0.73506171  0.55054621  0.91055351  1
  Te  Te123  1  0.73119537  0.91234530  0.24364357  1
  Te  Te124  1  0.75019616  0.91840956  0.60355580  1
  Te  Te125  1  0.73740190  0.94111486  0.93128327  1
  Te  Te126  1  0.27476646  0.28037182  0.07324383  1
  Te  Te127  1  0.26566694  0.20923839  0.43120397  1
  Te  Te128  1  0.28799566  0.23916039  0.78523799  1
  Te  Te129  1  0.23106384  0.58958447  0.08180957  1
  Te  Te130  1  0.25693164  0.56230103  0.46635231  1
  Te  Te131  1  0.28442051  0.58027132  0.72848404  1
  Te  Te132  1  0.26651660  0.87901361  0.07012242  1
  Te  Te133  1  0.24875241  0.93609377  0.43241754  1
  Te  Te134  1  0.25612261  0.91843082  0.80717571  1
  Te  Te135  1  0.55777745  0.23821547  0.04073785  1
  Te  Te136  1  0.54234441  0.21420691  0.41427844  1
  Te  Te137  1  0.58476561  0.22165679  0.76396229  1
  Te  Te138  1  0.58503992  0.55363938  0.10039292  1
  Te  Te139  1  0.57459392  0.57719082  0.38923083  1
  Te  Te140  1  0.58378249  0.55765766  0.76024174  1
  Te  Te141  1  0.53999056  0.90553964  0.03500533  1
  Te  Te142  1  0.58798318  0.93009180  0.42060938  1
  Te  Te143  1  0.59211563  0.91714993  0.76827774  1
  Te  Te144  1  0.89757209  0.26350737  0.10180678  1
  Te  Te145  1  0.91822119  0.24591287  0.40292106  1
  Te  Te146  1  0.94309492  0.25610006  0.73233575  1
  Te  Te147  1  0.92337845  0.59303849  0.04359686  1
  Te  Te148  1  0.91037595  0.59811227  0.42300414  1
  Te  Te149  1  0.90960323  0.58754882  0.73198127  1
  Te  Te150  1  0.93379067  0.92162252  0.08754598  1
  Te  Te151  1  0.92799211  0.89847847  0.40047523  1
  Te  Te152  1  0.90737301  0.94834764  0.77308026  1
  Te  Te153  1  0.26025903  0.07951909  0.23632259  1
  Te  Te154  1  0.28378583  0.04740656  0.61039926  1
  Te  Te155  1  0.22891221  0.05023143  0.91313523  1
  Te  Te156  1  0.23314962  0.43552065  0.24976570  1
  Te  Te157  1  0.27939010  0.38541580  0.60403917  1
  Te  Te158  1  0.26892814  0.41857972  0.92410844  1
  Te  Te159  1  0.27113284  0.73608448  0.28390001  1
  Te  Te160  1  0.27186017  0.77337772  0.61296492  1
  Te  Te161  1  0.26624991  0.74746087  0.86629578  1
  Te  Te162  1  0.55247782  0.09656999  0.24524962  1
  Te  Te163  1  0.59676500  0.08308924  0.58713573  1
  Te  Te164  1  0.56457133  0.11386092  0.87729842  1
  Te  Te165  1  0.63672827  0.34556072  0.24541384  1
  Te  Te166  1  0.58399263  0.40541571  0.56977754  1
  Te  Te167  1  0.58469961  0.35642883  0.94522290  1
  Te  Te168  1  0.56022952  0.76109164  0.24046939  1
  Te  Te169  1  0.58479162  0.76766804  0.56602486  1
  Te  Te170  1  0.60509487  0.72722176  0.93174771  1
  Te  Te171  1  0.91203387  0.06957218  0.26752135  1
  Te  Te172  1  0.92780032  0.07827086  0.56752756  1
  Te  Te173  1  0.91916529  0.09495387  0.95267897  1
  Te  Te174  1  0.90440331  0.42800191  0.26441779  1
  Te  Te175  1  0.92053697  0.43364174  0.57014730  1
  Te  Te176  1  0.92107945  0.39945872  0.89737077  1
  Te  Te177  1  0.89229249  0.73441782  0.21482769  1
  Te  Te178  1  0.93012322  0.76455047  0.59254531  1
  Te  Te179  1  0.87708416  0.76554871  0.91475973  1
