# generated using pymatgen
data_In2Te3
_symmetry_space_group_name_H-M   'P 1'
_cell_length_a   18.79849482
_cell_length_b   18.80200830
_cell_length_c   18.77947964
_cell_angle_alpha   90.02252161
_cell_angle_beta   90.01963286
_cell_angle_gamma   89.90190955
_symmetry_Int_Tables_number   1
_chemical_formula_structural   In2Te3
_chemical_formula_sum   'In72 Te108'
_cell_volume   6637.58623169
_cell_formula_units_Z   36
loop_
 _symmetry_equiv_pos_site_id
 _symmetry_equiv_pos_as_xyz
  1  'x, y, z'
loop_
 _atom_site_type_symbol
 _atom_site_label
 _atom_site_symmetry_multiplicity
 _atom_site_fract_x
 _atom_site_fract_y
 _atom_site_fract_z
 _atom_site_occupancy
  In  In0  1  0.30596692  0.48510720  0.52165271  1
  In  In1  1  0.83414916  0.34900570  0.16581910  1
  In  In2  1  0.11717262  0.63003276  0.52630336  1
  In  In3  1  0.14783007  0.64680021  0.83939457  1
  In  In4  1  0.01395774  0.83391122  0.17609260  1
  In  In5  1  0.14266905  0.19151405  -0.01686364  1
  In  In6  1  -0.00468959  0.02517732  0.01221806  1
  In  In7  1  0.51659584  0.48415156  0.31679853  1
  In  In8  1  0.83955749  0.48883351  0.67493645  1
  In  In9  1  0.14329623  0.50055070  0.32374278  1
  In  In10  1  0.16709025  0.01807409  0.49226998  1
  In  In11  1  0.81863839  0.65133156  0.16322563  1
  In  In12  1  0.16263644  0.84913983  0.32199169  1
  In  In13  1  0.51991206  0.50769144  -0.00676945  1
  In  In14  1  0.49712663  0.65640107  0.83531151  1
  In  In15  1  0.66636873  0.65573222  0.32482927  1
  In  In16  1  0.64085245  0.02759917  -0.01141885  1
  In  In17  1  0.81032963  0.20744300  -0.02318089  1
  In  In18  1  0.82860992  -0.00016264  0.48803517  1
  In  In19  1  0.49921115  0.67920409  0.13944510  1
  In  In20  1  -0.00078153  0.33923137  0.66219429  1
  In  In21  1  -0.02475439  0.81401578  0.51712108  1
  In  In22  1  0.34424152  0.31748380  -0.01594374  1
  In  In23  1  0.52676131  0.32540940  0.16159548  1
  In  In24  1  0.85734661  0.64169196  0.52030984  1
  In  In25  1  0.84241209  0.18064283  0.67495780  1
  In  In26  1  0.66912250  0.00556364  0.33254703  1
  In  In27  1  0.32832537  0.51002504  0.16700365  1
  In  In28  1  0.34039586  0.16602633  0.81857041  1
  In  In29  1  0.32693705  0.46864439  0.80778010  1
  In  In30  1  -0.02640833  0.33330104  0.33925278  1
  In  In31  1  -0.00032249  0.81779166  0.82978162  1
  In  In32  1  0.50195360  0.15558842  0.32275063  1
  In  In33  1  0.66011204  -0.00138843  0.67552041  1
  In  In34  1  0.47222806  0.85543446  0.30309672  1
  In  In35  1  0.17572741  0.82964972  0.69362599  1
  In  In36  1  0.67817999  0.19710173  0.49934642  1
  In  In37  1  0.16653123  0.33843187  0.14090030  1
  In  In38  1  -0.02466543  0.67565930  -0.01742214  1
  In  In39  1  0.16116018  0.33380758  0.50168592  1
  In  In40  1  0.15925727  0.49444705  -0.00460968  1
  In  In41  1  0.52628148  0.84992139  0.65100095  1
  In  In42  1  0.16263927  0.00737024  0.81973760  1
  In  In43  1  0.66290312  0.81940553  0.52813852  1
  In  In44  1  0.51019012  0.83598246  -0.00722553  1
  In  In45  1  0.49331128  0.00627672  0.47819707  1
  In  In46  1  -0.00688993  0.65334500  0.34400158  1
  In  In47  1  0.18484237  0.84597755  0.00566312  1
  In  In48  1  0.33489967  0.00405984  0.02800083  1
  In  In49  1  0.49139738  0.47910217  0.67609274  1
  In  In50  1  0.33342577  0.66444356  0.68053337  1
  In  In51  1  0.82426084  0.82278010  -0.01143978  1
  In  In52  1  0.31820370  0.69048626  0.34021298  1
  In  In53  1  0.32898100  0.82989303  0.49881638  1
  In  In54  1  0.84201839  0.01516399  0.18756274  1
  In  In55  1  0.84347499  0.45628190  -0.02090517  1
  In  In56  1  0.83839738  0.00638021  0.85141048  1
  In  In57  1  0.01568459  0.01085439  0.66429425  1
  In  In58  1  0.16875872  0.17209018  0.66008016  1
  In  In59  1  0.33910225  0.86144323  0.85216770  1
  In  In60  1  0.18481150  0.14551821  0.31875790  1
  In  In61  1  0.69111328  0.45808395  0.47866522  1
  In  In62  1  0.35091995  0.31397920  0.34279430  1
  In  In63  1  0.50928055  0.18237233  0.68355915  1
  In  In64  1  0.66765757  0.46241307  0.84983822  1
  In  In65  1  0.68450078  0.18046372  0.15637762  1
  In  In66  1  0.82654441  0.84594854  0.35099832  1
  In  In67  1  0.50558523  0.31969152  0.51326152  1
  In  In68  1  0.67342301  0.64950504  -0.01008675  1
  In  In69  1  -0.00157358  0.17939356  0.17604012  1
  In  In70  1  0.34869474  0.67084004  0.02126705  1
  In  In71  1  0.53771570  0.68843863  0.53490489  1
  Te  Te72  1  0.09861970  0.09510926  0.09605117  1
  Te  Te73  1  0.07754137  0.10338577  0.41193833  1
  Te  Te74  1  0.06787375  0.11093403  0.76607663  1
  Te  Te75  1  0.06314842  0.42722760  0.08697087  1
  Te  Te76  1  0.06492250  0.42555649  0.42809035  1
  Te  Te77  1  0.06804731  0.45336856  0.73235012  1
  Te  Te78  1  0.07991044  0.75010554  0.06607138  1
  Te  Te79  1  0.08465550  0.75072964  0.42199323  1
  Te  Te80  1  0.07155237  0.72527877  0.73110426  1
  Te  Te81  1  0.43646390  0.06652495  0.11596606  1
  Te  Te82  1  0.39940671  0.09878618  0.41314522  1
  Te  Te83  1  0.43087297  0.07368604  0.74579481  1
  Te  Te84  1  0.41703948  0.42194753  0.08080728  1
  Te  Te85  1  0.41760228  0.42830617  0.42340525  1
  Te  Te86  1  0.43014162  0.37283485  0.76082282  1
  Te  Te87  1  0.40242852  0.79028427  0.09547734  1
  Te  Te88  1  0.43492280  0.74610009  0.42625169  1
  Te  Te89  1  0.42001902  0.76585767  0.75248098  1
  Te  Te90  1  0.77264041  0.08177971  0.06764161  1
  Te  Te91  1  0.75850989  0.10522524  0.40339709  1
  Te  Te92  1  0.75013797  0.09038992  0.75873802  1
  Te  Te93  1  0.73659729  0.40558524  0.06770584  1
  Te  Te94  1  0.76793517  0.36239365  0.38952051  1
  Te  Te95  1  0.75785714  0.38770820  0.75410328  1
  Te  Te96  1  0.73242866  0.75184245  0.08773676  1
  Te  Te97  1  0.75551821  0.73737570  0.43215080  1
  Te  Te98  1  0.76701916  0.76863367  0.71744585  1
  Te  Te99  1  0.09775823  0.26931834  0.26050587  1
  Te  Te100  1  0.06512199  0.23573704  0.56782700  1
  Te  Te101  1  0.06328650  0.30194430  0.92751781  1
  Te  Te102  1  0.08240473  0.60264578  0.23786245  1
  Te  Te103  1  0.03019696  0.54089246  0.60597506  1
  Te  Te104  1  0.04708926  0.55885915  0.91069363  1
  Te  Te105  1  0.07172595  0.94416938  0.25402226  1
  Te  Te106  1  0.09065117  0.90167087  0.58419553  1
  Te  Te107  1  0.07620805  0.92144035  0.91742152  1
  Te  Te108  1  0.41609157  0.24248636  0.22597696  1
  Te  Te109  1  0.40968059  0.24212518  0.59114171  1
  Te  Te110  1  0.42879278  0.20420576  0.93523062  1
  Te  Te111  1  0.42183966  0.59603937  0.25232189  1
  Te  Te112  1  0.42000350  0.58296819  0.58411876  1
  Te  Te113  1  0.39267381  0.57181756  0.91105477  1
  Te  Te114  1  0.40889784  0.97666798  0.23994814  1
  Te  Te115  1  0.41330280  0.92607921  0.58151408  1
  Te  Te116  1  0.43622973  0.95224915  0.92143196  1
  Te  Te117  1  0.76810251  0.24969209  0.25871347  1
  Te  Te118  1  0.74856600  0.27408664  0.60520934  1
  Te  Te119  1  0.73182622  0.28119343  0.87262310  1
  Te  Te120  1  0.76792698  0.56209688  0.27043704  1
  Te  Te121  1  0.74057768  0.56428286  0.58054880  1
  Te  Te122  1  0.76544774  0.56886264  0.90085170  1
  Te  Te123  1  0.74424379  0.90943998  0.23873938  1
  Te  Te124  1  0.76348667  0.91497871  0.59583931  1
  Te  Te125  1  0.73205667  0.91934431  0.91532035  1
  Te  Te126  1  0.25859792  0.23581609  0.08121917  1
  Te  Te127  1  0.25433677  0.23665199  0.42810622  1
  Te  Te128  1  0.23636072  0.25586880  0.76272807  1
  Te  Te129  1  0.23244722  0.59656081  0.08653832  1
  Te  Te130  1  0.24202525  0.58355146  0.42100109  1
  Te  Te131  1  0.23243321  0.56639206  0.73673967  1
  Te  Te132  1  0.23135856  0.93632355  0.11289141  1
  Te  Te133  1  0.26170360  0.92911573  0.40622452  1
  Te  Te134  1  0.27155083  0.93885784  0.73780043  1
  Te  Te135  1  0.59399530  0.24481780  0.05668052  1
  Te  Te136  1  0.58393243  0.26224437  0.39580973  1
  Te  Te137  1  0.60575268  0.23488422  0.78528927  1
  Te  Te138  1  0.60303106  0.57206585  0.10225080  1
  Te  Te139  1  0.58754187  0.57332642  0.42855613  1
  Te  Te140  1  0.58866211  0.56389129  0.75869497  1
  Te  Te141  1  0.59099018  0.92326346  0.08061612  1
  Te  Te142  1  0.59009239  0.90328193  0.41456744  1
  Te  Te143  1  0.57411017  0.92423194  0.76955718  1
  Te  Te144  1  0.91976201  0.25836606  0.07379099  1
  Te  Te145  1  0.88553183  0.28259239  0.44865539  1
  Te  Te146  1  0.92787895  0.26197934  0.77140177  1
  Te  Te147  1  0.90599186  0.57163334  0.06946980  1
  Te  Te148  1  0.89718755  0.55806827  0.40361889  1
  Te  Te149  1  0.95164150  0.55963812  0.74418280  1
  Te  Te150  1  0.91461527  0.91048674  0.07697705  1
  Te  Te151  1  0.94052250  0.92350229  0.41488141  1
  Te  Te152  1  0.92322717  0.92584546  0.75247837  1
  Te  Te153  1  0.28099623  0.06875885  0.23462404  1
  Te  Te154  1  0.25842707  0.07828184  0.58993463  1
  Te  Te155  1  0.24254999  0.08230697  0.92478792  1
  Te  Te156  1  0.25929446  0.41319887  0.26312603  1
  Te  Te157  1  0.24433534  0.38932648  0.61296987  1
  Te  Te158  1  0.23575608  0.39560839  0.90719927  1
  Te  Te159  1  0.24534999  0.76122351  0.23486071  1
  Te  Te160  1  0.24043995  0.73654805  0.58107313  1
  Te  Te161  1  0.25099185  0.74574649  0.90335365  1
  Te  Te162  1  0.59158504  0.07849023  0.22358815  1
  Te  Te163  1  0.59379124  0.08545440  0.56551385  1
  Te  Te164  1  0.58312397  0.13416021  0.90343785  1
  Te  Te165  1  0.61794196  0.41415401  0.23690776  1
  Te  Te166  1  0.59969671  0.40713580  0.59409031  1
  Te  Te167  1  0.54366658  0.39567298  0.90019571  1
  Te  Te168  1  0.57799563  0.75418840  0.24893219  1
  Te  Te169  1  0.63485688  0.73191673  0.65845640  1
  Te  Te170  1  0.59911529  0.74872482  0.90018174  1
  Te  Te171  1  0.92484056  0.09798461  0.27622098  1
  Te  Te172  1  0.91795148  0.08826620  0.57575899  1
  Te  Te173  1  0.92298553  0.11601255  0.91549065  1
  Te  Te174  1  0.92977204  0.43497491  0.24171671  1
  Te  Te175  1  0.90157894  0.40312343  0.56575197  1
  Te  Te176  1  0.93164121  0.37739677  0.88430150  1
  Te  Te177  1  0.90422325  0.75393049  0.25151076  1
  Te  Te178  1  0.89225562  0.74674621  0.62509584  1
  Te  Te179  1  0.87995765  0.73448975  0.87662897  1
