# generated using pymatgen
data_In2Te3
_symmetry_space_group_name_H-M   'P 1'
_cell_length_a   18.99733857
_cell_length_b   19.01641608
_cell_length_c   19.01550371
_cell_angle_alpha   89.90940573
_cell_angle_beta   90.29894693
_cell_angle_gamma   89.72340395
_symmetry_Int_Tables_number   1
_chemical_formula_structural   In2Te3
_chemical_formula_sum   'In72 Te108'
_cell_volume   6869.38307377
_cell_formula_units_Z   36
loop_
 _symmetry_equiv_pos_site_id
 _symmetry_equiv_pos_as_xyz
  1  'x, y, z'
loop_
 _atom_site_type_symbol
 _atom_site_label
 _atom_site_symmetry_multiplicity
 _atom_site_fract_x
 _atom_site_fract_y
 _atom_site_fract_z
 _atom_site_occupancy
  In  In0  1  0.17760185  0.00877602  0.84472462  1
  In  In1  1  0.83503565  0.65474208  0.55030864  1
  In  In2  1  0.18786922  0.66935785  0.49333033  1
  In  In3  1  0.49589200  0.50088548  0.31175644  1
  In  In4  1  0.17907259  0.31290718  0.54955814  1
  In  In5  1  0.02090999  0.82168638  0.83325453  1
  In  In6  1  0.82879897  0.01340770  0.17685582  1
  In  In7  1  0.84751736  -0.00503923  0.50595349  1
  In  In8  1  0.67014189  -0.01461884  0.35295237  1
  In  In9  1  -0.00286866  0.48957573  0.53239908  1
  In  In10  1  0.05347941  0.90809897  0.14278025  1
  In  In11  1  0.29599012  0.00864920  0.66934086  1
  In  In12  1  0.83010380  0.48097239  0.33792366  1
  In  In13  1  0.84577258  0.84316142  0.33312188  1
  In  In14  1  0.66813253  0.17354063  0.47641674  1
  In  In15  1  0.02235736  0.49648340  0.16531438  1
  In  In16  1  0.32858211  0.15389844  0.49576465  1
  In  In17  1  0.84773661  0.15883183  0.01683340  1
  In  In18  1  0.33258774  0.30025083  -0.00852360  1
  In  In19  1  0.48113646  0.31246643  0.84538933  1
  In  In20  1  0.85814986  0.82404877  -0.01319877  1
  In  In21  1  0.15358232  0.32994101  0.13388153  1
  In  In22  1  0.82986312  0.29409940  0.14750117  1
  In  In23  1  0.00995995  0.16538395  0.49027133  1
  In  In24  1  0.49180720  0.14286880  0.63951957  1
  In  In25  1  0.66617030  0.68497205  0.34391518  1
  In  In26  1  0.03596137  -0.00808557  0.67678135  1
  In  In27  1  0.47208456  0.53636717  0.68422224  1
  In  In28  1  0.31018697  0.73164677  0.29163959  1
  In  In29  1  0.65995070  0.32465299  0.31875782  1
  In  In30  1  0.66215254  0.33815246  0.66987834  1
  In  In31  1  0.48326979  0.83746792  0.65285537  1
  In  In32  1  0.65727403  0.52580883  0.48847003  1
  In  In33  1  0.85140695  0.65768121  0.79956760  1
  In  In34  1  0.64196840  0.81397760  0.14412132  1
  In  In35  1  0.83967748  0.01920378  0.85586654  1
  In  In36  1  0.83407279  0.82792664  0.67953402  1
  In  In37  1  0.15257693  0.50289933  0.68673309  1
  In  In38  1  0.33735784  0.33980364  0.33052936  1
  In  In39  1  0.47947720  0.66473798  0.14012907  1
  In  In40  1  0.19425783  0.85199671  -0.00067479  1
  In  In41  1  0.48072120  -0.02482834  0.81894499  1
  In  In42  1  0.33469919  0.50550620  0.86555470  1
  In  In43  1  0.51245859  0.33695306  0.50186121  1
  In  In44  1  0.32053267  -0.03646659  0.32653948  1
  In  In45  1  0.63588366  0.67562982  -0.01595300  1
  In  In46  1  0.66506208  0.51963077  0.81723552  1
  In  In47  1  0.64793717  -0.04191371  -0.00983972  1
  In  In48  1  0.29691437  0.50611048  0.12078906  1
  In  In49  1  0.86671053  0.34469877  0.85565567  1
  In  In50  1  0.00080138  0.64207973  0.32204126  1
  In  In51  1  0.49943203  -0.01399548  0.49478575  1
  In  In52  1  0.61990521  0.14466638  0.15791239  1
  In  In53  1  0.85537340  0.49750905  -0.00262319  1
  In  In54  1  0.00633958  0.84027710  0.49674488  1
  In  In55  1  0.48842059  0.50612632  -0.00251118  1
  In  In56  1  0.66732456  0.15157034  0.83937703  1
  In  In57  1  0.90802310  0.32394371  0.54961733  1
  In  In58  1  0.18205812  0.52473546  0.33382388  1
  In  In59  1  0.48750633  0.28280600  0.16015340  1
  In  In60  1  0.83892159  0.18237133  0.69102461  1
  In  In61  1  0.32146891  0.69863958  0.66007545  1
  In  In62  1  0.19366858  0.13968090  0.31615610  1
  In  In63  1  0.69011935  0.36088349  -0.00098992  1
  In  In64  1  0.65680960  0.80975805  0.51860333  1
  In  In65  1  0.16854755  0.67740067  0.85106778  1
  In  In66  1  0.82935092  0.65463856  0.18516398  1
  In  In67  1  0.16555048  0.14929571  0.00093114  1
  In  In68  1  0.00335532  0.16129609  0.14290388  1
  In  In69  1  0.46304722  0.83721235  0.01073125  1
  In  In70  1  0.26051355  0.34954424  0.73478585  1
  In  In71  1  0.02258497  0.32754430  0.35583337  1
  Te  Te72  1  0.09361387  0.05351539  0.09552327  1
  Te  Te73  1  0.10367255  0.07626976  0.41644768  1
  Te  Te74  1  0.10152636  0.10032965  0.75305844  1
  Te  Te75  1  0.09553198  0.43791211  0.05087090  1
  Te  Te76  1  0.09696736  0.43952532  0.42568691  1
  Te  Te77  1  0.11872863  0.38495721  0.76816357  1
  Te  Te78  1  0.08420146  0.78265540  0.06938506  1
  Te  Te79  1  0.07773388  0.73620870  0.40969496  1
  Te  Te80  1  0.08911247  0.73337230  0.74094273  1
  Te  Te81  1  0.47106238  0.13521694  0.13125825  1
  Te  Te82  1  0.40978754  0.06853153  0.40475621  1
  Te  Te83  1  0.40267196  0.08660532  0.74457703  1
  Te  Te84  1  0.40727521  0.40853334  0.07954339  1
  Te  Te85  1  0.41955475  0.42776088  0.42156343  1
  Te  Te86  1  0.40823603  0.41096995  0.75611701  1
  Te  Te87  1  0.37460081  0.72428542  0.05249296  1
  Te  Te88  1  0.37059359  0.82814121  0.38466546  1
  Te  Te89  1  0.39648089  0.77968671  0.75787284  1
  Te  Te90  1  0.73793720  0.06528129  0.06467338  1
  Te  Te91  1  0.76992666  0.08374871  0.40886078  1
  Te  Te92  1  0.75028772  0.07121720  0.74260425  1
  Te  Te93  1  0.77111764  0.42691421  0.10718796  1
  Te  Te94  1  0.73028092  0.40827926  0.42470186  1
  Te  Te95  1  0.75241750  0.40557525  0.76907414  1
  Te  Te96  1  0.75913009  0.74304216  0.07848374  1
  Te  Te97  1  0.77800233  0.74668411  0.42824759  1
  Te  Te98  1  0.74204046  0.73817997  0.74723457  1
  Te  Te99  1  0.09035799  0.24188757  0.25050679  1
  Te  Te100  1  0.04620999  0.26840219  0.59567955  1
  Te  Te101  1  0.14252833  0.25977298  0.90283494  1
  Te  Te102  1  0.11170603  0.60341467  0.22514984  1
  Te  Te103  1  0.08922780  0.59632579  0.58446213  1
  Te  Te104  1  0.13187091  0.58071718  0.95526337  1
  Te  Te105  1  0.11011680  0.89967401  0.28132996  1
  Te  Te106  1  0.10816724  0.90887081  0.57968885  1
  Te  Te107  1  0.07800751  0.92592996  0.92279135  1
  Te  Te108  1  0.39092275  0.22457673  0.25839713  1
  Te  Te109  1  0.41142123  0.25623919  0.57899312  1
  Te  Te110  1  0.41088766  0.20535496  0.91273245  1
  Te  Te111  1  0.39341943  0.57079812  0.22325239  1
  Te  Te112  1  0.41270218  0.61640506  0.57726483  1
  Te  Te113  1  0.43629763  0.60668077  0.90214690  1
  Te  Te114  1  0.38307519  0.85587368  0.22600761  1
  Te  Te115  1  0.38786354  0.92929110  0.57533110  1
  Te  Te116  1  0.39597379  0.94926254  0.93852178  1
  Te  Te117  1  0.73444689  0.22335190  0.23562930  1
  Te  Te118  1  0.75071194  0.25251877  0.58107431  1
  Te  Te119  1  0.75741403  0.24495155  0.91740511  1
  Te  Te120  1  0.73133581  0.57264669  0.26521528  1
  Te  Te121  1  0.73604625  0.56543438  0.60518194  1
  Te  Te122  1  0.74702542  0.58264348  0.92846042  1
  Te  Te123  1  0.73872474  0.89640676  0.23863461  1
  Te  Te124  1  0.75017613  0.91028239  0.58224818  1
  Te  Te125  1  0.75793208  0.90048167  0.90219161  1
  Te  Te126  1  0.25534705  0.22670745  0.09920786  1
  Te  Te127  1  0.23561620  0.26232624  0.42010498  1
  Te  Te128  1  0.22127944  0.21448636  0.78347293  1
  Te  Te129  1  0.25313012  0.62014600  0.03600780  1
  Te  Te130  1  0.28620322  0.61164486  0.39501600  1
  Te  Te131  1  0.26121740  0.58514281  0.75737718  1
  Te  Te132  1  0.27405630  0.89929984  0.12355366  1
  Te  Te133  1  0.19507093  0.93855386  0.40480560  1
  Te  Te134  1  0.24376226  0.90442138  0.76190186  1
  Te  Te135  1  0.59770227  0.25927330  0.05305870  1
  Te  Te136  1  0.55908166  0.24102831  0.39548082  1
  Te  Te137  1  0.57713575  0.23445758  0.74049471  1
  Te  Te138  1  0.59115322  0.57482590  0.08657480  1
  Te  Te139  1  0.55485876  0.60304683  0.40871017  1
  Te  Te140  1  0.55552601  0.61217974  0.78002698  1
  Te  Te141  1  0.55213295  0.92660373  0.10252791  1
  Te  Te142  1  0.57557586  0.88345561  0.41332449  1
  Te  Te143  1  0.57770117  0.92502043  0.72392290  1
  Te  Te144  1  0.94642551  0.27297325  0.05607470  1
  Te  Te145  1  0.90535629  0.25416138  0.41537252  1
  Te  Te146  1  0.93555009  0.23542853  0.78635704  1
  Te  Te147  1  0.92912335  0.59232809  0.09013779  1
  Te  Te148  1  0.90889141  0.57303783  0.42911734  1
  Te  Te149  1  0.93904813  0.55483069  0.74680441  1
  Te  Te150  1  0.91183627  0.92663107  0.08320782  1
  Te  Te151  1  0.93965127  0.93959678  0.39999985  1
  Te  Te152  1  0.92299775  0.92401640  0.75836105  1
  Te  Te153  1  0.25247493  0.04530559  0.21856313  1
  Te  Te154  1  0.22435372  0.10881465  0.58660268  1
  Te  Te155  1  0.27252988  0.05927653  0.94878737  1
  Te  Te156  1  0.23742678  0.41392120  0.23960685  1
  Te  Te157  1  0.25469355  0.43035836  0.59612587  1
  Te  Te158  1  0.24644912  0.39948523  0.92017690  1
  Te  Te159  1  0.19916772  0.79330300  0.20962369  1
  Te  Te160  1  0.24317327  0.78292024  0.56675934  1
  Te  Te161  1  0.26190283  0.79083284  0.87939275  1
  Te  Te162  1  0.57582161  0.06441317  0.27419947  1
  Te  Te163  1  0.60309041  0.07174629  0.56668493  1
  Te  Te164  1  0.57186223  0.06433632  0.91254951  1
  Te  Te165  1  0.56867327  0.40094699  0.22673670  1
  Te  Te166  1  0.56952461  0.43773118  0.60183155  1
  Te  Te167  1  0.57897549  0.41617690  0.90209652  1
  Te  Te168  1  0.56226907  0.73998809  0.24671304  1
  Te  Te169  1  0.55856651  0.72718158  0.58582889  1
  Te  Te170  1  0.57801688  0.79600867  0.92491400  1
  Te  Te171  1  0.92275370  0.09898940  0.24713892  1
  Te  Te172  1  0.92790678  0.08483184  0.59723235  1
  Te  Te173  1  0.94213394  0.09929344  0.92163766  1
  Te  Te174  1  0.93622096  0.41009488  0.25654496  1
  Te  Te175  1  0.91846416  0.43538007  0.64756085  1
  Te  Te176  1  0.94915709  0.46350331  0.88797544  1
  Te  Te177  1  0.92828658  0.75358399  0.24388240  1
  Te  Te178  1  0.93742593  0.75028936  0.60152631  1
  Te  Te179  1  0.93575390  0.72051201  0.90940386  1
