# generated using pymatgen
data_In2Te3
_symmetry_space_group_name_H-M   'P 1'
_cell_length_a   18.92628484
_cell_length_b   18.94365675
_cell_length_c   18.93270619
_cell_angle_alpha   89.90407300
_cell_angle_beta   89.91659423
_cell_angle_gamma   89.93714751
_symmetry_Int_Tables_number   1
_chemical_formula_structural   In2Te3
_chemical_formula_sum   'In72 Te108'
_cell_volume   6787.98000218
_cell_formula_units_Z   36
loop_
 _symmetry_equiv_pos_site_id
 _symmetry_equiv_pos_as_xyz
  1  'x, y, z'
loop_
 _atom_site_type_symbol
 _atom_site_label
 _atom_site_symmetry_multiplicity
 _atom_site_fract_x
 _atom_site_fract_y
 _atom_site_fract_z
 _atom_site_occupancy
  In  In0  1  0.65988348  0.83039670  0.48969753  1
  In  In1  1  0.32926591  0.83926016  0.15857336  1
  In  In2  1  0.66547356  0.69236417  0.69422084  1
  In  In3  1  0.82658769  0.02126058  0.51250246  1
  In  In4  1  0.52016611  0.67203309  0.14944035  1
  In  In5  1  0.83710071  0.16228660  0.33845860  1
  In  In6  1  0.15896007  0.84432833  0.67215207  1
  In  In7  1  0.51549678  0.68745012  0.84864661  1
  In  In8  1  0.33566025  0.00380330  0.65203886  1
  In  In9  1  0.52611031  0.00631384  0.82859493  1
  In  In10  1  0.65855118  0.18350907  0.80880866  1
  In  In11  1  0.65018805  0.00821643  0.68603338  1
  In  In12  1  0.32874563  0.80388627  0.47399658  1
  In  In13  1  0.80933005  0.50398704  0.69075124  1
  In  In14  1  0.01140491  0.34120578  0.66781580  1
  In  In15  1  0.00126519  0.00869015  0.33293163  1
  In  In16  1  0.53071571  0.82507743  -0.00222781  1
  In  In17  1  0.02310595  0.49676852  0.83260507  1
  In  In18  1  0.49177030  0.17425139  0.32984485  1
  In  In19  1  0.84447820  0.36055446  0.16977925  1
  In  In20  1  0.84407733  0.50818289  0.34010188  1
  In  In21  1  0.33594702  0.46287587  0.51830049  1
  In  In22  1  0.67284711  0.15844346  0.15418646  1
  In  In23  1  0.68947034  -0.00879140  0.31480585  1
  In  In24  1  0.00413034  0.16065522  0.84312531  1
  In  In25  1  0.49144080  0.48419567  0.66325012  1
  In  In26  1  0.81552231  0.13646697  -0.00784988  1
  In  In27  1  0.83686223  0.35561964  0.82062393  1
  In  In28  1  -0.00741263  0.85457184  0.47513494  1
  In  In29  1  0.00449738  0.49299338  0.51201178  1
  In  In30  1  0.17888415  0.35094265  0.17307396  1
  In  In31  1  0.84125112  0.65822156  0.50906157  1
  In  In32  1  0.51368701  0.33611079  0.51244521  1
  In  In33  1  0.14644662  0.82196656  0.00518060  1
  In  In34  1  0.00660346  0.01697788  0.67207819  1
  In  In35  1  0.81545180  0.67891538  0.17342852  1
  In  In36  1  0.30269260  0.50626552  0.80914189  1
  In  In37  1  0.16187764  0.85403792  0.32009407  1
  In  In38  1  0.33311112  0.20120865  0.52580311  1
  In  In39  1  0.65193041  0.66081084  0.32370594  1
  In  In40  1  0.45054091  0.16103517  -0.01673786  1
  In  In41  1  0.82342925  0.54767321  -0.00618794  1
  In  In42  1  0.66927738  -0.02222028  -0.00769604  1
  In  In43  1  0.02148983  0.64514249  0.64818488  1
  In  In44  1  0.47280033  0.34589416  0.16498402  1
  In  In45  1  0.34001912  0.02217031  0.31611856  1
  In  In46  1  0.32158470  0.64265250  0.33215093  1
  In  In47  1  0.15334925  0.66317375  0.52090292  1
  In  In48  1  0.52586438  0.00679788  0.51088918  1
  In  In49  1  0.65874099  0.33781979  0.00508518  1
  In  In50  1  0.48195592  0.64966514  0.49188597  1
  In  In51  1  0.30504407  0.64386409  0.00617359  1
  In  In52  1  0.33791227  0.82350117  0.85542805  1
  In  In53  1  0.17625365  0.04506278  0.48684373  1
  In  In54  1  0.49275167  0.50849353  0.32696453  1
  In  In55  1  0.16045139  0.33188155  0.51244423  1
  In  In56  1  0.79542261  0.30126490  0.52516521  1
  In  In57  1  0.01921855  0.63848950  0.20517165  1
  In  In58  1  -0.00846532  -0.02249432  0.00510993  1
  In  In59  1  0.15833099  0.50232340  -0.00052613  1
  In  In60  1  0.84268829  0.81969714  -0.01136698  1
  In  In61  1  0.50043835  0.49326957  -0.00590617  1
  In  In62  1  0.33313887  0.19130053  0.80605058  1
  In  In63  1  -0.00058709  0.31264086  -0.00019547  1
  In  In64  1  0.16356355  -0.00202850  0.15404901  1
  In  In65  1  0.31373018  0.16007977  0.15791695  1
  In  In66  1  0.02019616  0.19790612  0.17713764  1
  In  In67  1  0.50066905  0.85140683  0.68817243  1
  In  In68  1  -0.01656713  0.82839921  0.83908521  1
  In  In69  1  0.19436752  0.15252583  -0.01926093  1
  In  In70  1  0.66562607  0.35594033  0.33711298  1
  In  In71  1  0.81592039  0.81061124  0.68161584  1
  Te  Te72  1  0.07545099  0.09643386  0.06871616  1
  Te  Te73  1  0.06165165  0.10785639  0.42201313  1
  Te  Te74  1  0.09863105  0.07651781  0.76790935  1
  Te  Te75  1  0.06741607  0.41403475  0.08684792  1
  Te  Te76  1  0.07939498  0.41240434  0.41669215  1
  Te  Te77  1  0.10619636  0.38683004  0.77448259  1
  Te  Te78  1  0.09082377  0.73230883  0.10496045  1
  Te  Te79  1  0.09167873  0.75651540  0.41367613  1
  Te  Te80  1  0.07694621  0.74471132  0.74950803  1
  Te  Te81  1  0.41270658  0.07371852  0.09315613  1
  Te  Te82  1  0.41538318  0.09047616  0.43810581  1
  Te  Te83  1  0.42995397  0.08131557  0.74056834  1
  Te  Te84  1  0.39301043  0.42463546  0.07029578  1
  Te  Te85  1  0.42199391  0.40216158  0.40852366  1
  Te  Te86  1  0.41149384  0.41465812  0.76599859  1
  Te  Te87  1  0.40598619  0.74679569  0.06198578  1
  Te  Te88  1  0.43145639  0.74282019  0.38365848  1
  Te  Te89  1  0.41181495  0.74556202  0.74817303  1
  Te  Te90  1  0.75987671  0.04729854  0.10024453  1
  Te  Te91  1  0.72963134  0.09319931  0.42042889  1
  Te  Te92  1  0.75801906  0.09360626  0.74283938  1
  Te  Te93  1  0.75303485  0.43386837  0.07412160  1
  Te  Te94  1  0.75720564  0.42451049  0.43434191  1
  Te  Te95  1  0.71659048  0.40827256  0.75348574  1
  Te  Te96  1  0.73668798  0.75069346  0.07002768  1
  Te  Te97  1  0.75157088  0.73661225  0.41482884  1
  Te  Te98  1  0.77786770  0.71668452  0.79183625  1
  Te  Te99  1  0.10461480  0.26819365  0.27189699  1
  Te  Te100  1  0.06762942  0.23745472  0.58041874  1
  Te  Te101  1  0.10530273  0.25518631  0.90879217  1
  Te  Te102  1  0.13987313  0.55619829  0.25045654  1
  Te  Te103  1  0.12526241  0.53638356  0.61392976  1
  Te  Te104  1  0.06720499  0.59886183  0.93040716  1
  Te  Te105  1  0.05951249  0.91444287  0.22745113  1
  Te  Te106  1  0.09380256  0.92960995  0.56276354  1
  Te  Te107  1  0.08780847  0.91975669  0.90277609  1
  Te  Te108  1  0.38901304  0.25414315  0.25251419  1
  Te  Te109  1  0.44352288  0.24952857  0.61475023  1
  Te  Te110  1  0.43016566  0.26832270  0.88802186  1
  Te  Te111  1  0.41496835  0.58788418  0.22531277  1
  Te  Te112  1  0.39456076  0.58206409  0.59387624  1
  Te  Te113  1  0.41015161  0.59375149  0.90686227  1
  Te  Te114  1  0.41620343  0.92304582  0.24246869  1
  Te  Te115  1  0.41713197  0.90519148  0.56640024  1
  Te  Te116  1  0.43922921  0.91697001  0.91792521  1
  Te  Te117  1  0.74594866  0.25877083  0.24378649  1
  Te  Te118  1  0.73022618  0.20921562  0.62034925  1
  Te  Te119  1  0.76014568  0.25474483  0.91422436  1
  Te  Te120  1  0.74057351  0.56647355  0.24545618  1
  Te  Te121  1  0.73494389  0.59658720  0.59542537  1
  Te  Te122  1  0.73893781  0.59762925  0.88653027  1
  Te  Te123  1  0.78982383  0.89397005  0.27543960  1
  Te  Te124  1  0.73957002  0.91380178  0.58922315  1
  Te  Te125  1  0.75963243  0.90858021  0.90133431  1
  Te  Te126  1  0.25153642  0.26239104  0.06676294  1
  Te  Te127  1  0.25297157  0.26069182  0.42000900  1
  Te  Te128  1  0.23332743  0.28197275  0.74036608  1
  Te  Te129  1  0.21766531  0.58493706  0.11515177  1
  Te  Te130  1  0.25189540  0.57201563  0.44499924  1
  Te  Te131  1  0.20404910  0.58580197  0.73682163  1
  Te  Te132  1  0.25194295  0.92397274  0.05857676  1
  Te  Te133  1  0.25704981  0.92758458  0.41900811  1
  Te  Te134  1  0.26521947  0.91505451  0.75329552  1
  Te  Te135  1  0.56789601  0.24677953  0.08782785  1
  Te  Te136  1  0.59283725  0.24814878  0.41532409  1
  Te  Te137  1  0.57197645  0.24311046  0.70543509  1
  Te  Te138  1  0.59727926  0.57924775  0.06594434  1
  Te  Te139  1  0.58995336  0.56629189  0.42787896  1
  Te  Te140  1  0.57166014  0.58871567  0.74932075  1
  Te  Te141  1  0.59176376  0.91172208  0.09841025  1
  Te  Te142  1  0.57779820  0.91912521  0.39985823  1
  Te  Te143  1  0.61487498  0.88965499  0.77896563  1
  Te  Te144  1  0.89196570  0.23859993  0.08050913  1
  Te  Te145  1  0.89382620  0.26840414  0.42149039  1
  Te  Te146  1  0.92028339  0.24977154  0.75196888  1
  Te  Te147  1  0.91352697  0.57549536  0.10868579  1
  Te  Te148  1  0.94426287  0.59619640  0.41817023  1
  Te  Te149  1  0.92735061  0.58107606  0.74859938  1
  Te  Te150  1  0.90482522  0.90278486  0.09494923  1
  Te  Te151  1  0.87845190  0.92336854  0.39654137  1
  Te  Te152  1  0.91018176  0.91565947  0.73715209  1
  Te  Te153  1  0.21881756  0.09148668  0.25887778  1
  Te  Te154  1  0.23818199  0.11098283  0.60724814  1
  Te  Te155  1  0.29017965  0.08136444  0.89688254  1
  Te  Te156  1  0.25300567  0.45435491  0.24732674  1
  Te  Te157  1  0.26658491  0.37053744  0.61840255  1
  Te  Te158  1  0.26715562  0.42926145  0.93156107  1
  Te  Te159  1  0.24652153  0.75081876  0.24961771  1
  Te  Te160  1  0.25388733  0.75162590  0.59436228  1
  Te  Te161  1  0.22915390  0.73372725  0.90958128  1
  Te  Te162  1  0.58057330  0.08291158  0.24871553  1
  Te  Te163  1  0.59686906  0.11214807  0.58975262  1
  Te  Te164  1  0.59363396  0.10412155  0.92427312  1
  Te  Te165  1  0.58194525  0.42787826  0.23273152  1
  Te  Te166  1  0.60394427  0.42037574  0.59159263  1
  Te  Te167  1  0.57960423  0.40687339  0.90323466  1
  Te  Te168  1  0.59310585  0.76348577  0.23737397  1
  Te  Te169  1  0.56660324  0.75018535  0.58252272  1
  Te  Te170  1  0.62544522  0.71709561  0.94820987  1
  Te  Te171  1  0.92337344  0.09477788  0.23351440  1
  Te  Te172  1  0.93228632  0.10092343  0.57508628  1
  Te  Te173  1  0.90882134  0.05791760  0.90452191  1
  Te  Te174  1  0.93501491  0.41527580  0.26962978  1
  Te  Te175  1  0.89837862  0.42187484  0.59406274  1
  Te  Te176  1  0.91877560  0.42306386  0.92927110  1
  Te  Te177  1  0.91939030  0.72915358  0.26543309  1
  Te  Te178  1  0.92986193  0.76270574  0.58299968  1
  Te  Te179  1  0.94821199  0.72497874  0.93917194  1
