# generated using pymatgen
data_In2Te3
_symmetry_space_group_name_H-M   'P 1'
_cell_length_a   18.81136365
_cell_length_b   18.81006237
_cell_length_c   18.81857276
_cell_angle_alpha   90.01879620
_cell_angle_beta   90.08739831
_cell_angle_gamma   89.89046678
_symmetry_Int_Tables_number   1
_chemical_formula_structural   In2Te3
_chemical_formula_sum   'In72 Te108'
_cell_volume   6658.79853279
_cell_formula_units_Z   36
loop_
 _symmetry_equiv_pos_site_id
 _symmetry_equiv_pos_as_xyz
  1  'x, y, z'
loop_
 _atom_site_type_symbol
 _atom_site_label
 _atom_site_symmetry_multiplicity
 _atom_site_fract_x
 _atom_site_fract_y
 _atom_site_fract_z
 _atom_site_occupancy
  In  In0  1  0.66896722  0.18188667  0.48326705  1
  In  In1  1  0.02312933  0.01672103  0.69106159  1
  In  In2  1  0.66805678  -0.01320044  0.68490555  1
  In  In3  1  0.15794717  0.35027202  0.48486053  1
  In  In4  1  -0.00754309  0.86838294  0.87421510  1
  In  In5  1  0.85511075  0.31890494  0.49291501  1
  In  In6  1  0.16851505  0.00177787  0.52785168  1
  In  In7  1  0.17739780  0.81932912  0.31289810  1
  In  In8  1  0.83714146  0.19374562  0.68188696  1
  In  In9  1  -0.00773252  0.33929701  -0.00774694  1
  In  In10  1  -0.01498018  0.49893054  0.84150464  1
  In  In11  1  0.66436989  0.01217039  0.32683530  1
  In  In12  1  -0.00289735  0.17282187  0.16678672  1
  In  In13  1  0.19390512  0.66154591  0.46913662  1
  In  In14  1  0.32865754  0.33857348  0.00391172  1
  In  In15  1  0.81927889  0.80945137  0.68848623  1
  In  In16  1  0.19212752  0.51307678  0.00475881  1
  In  In17  1  0.65367795  0.35209475  0.31742570  1
  In  In18  1  -0.01554271  0.66293923  0.66593783  1
  In  In19  1  0.69419866  0.16220444  0.13128435  1
  In  In20  1  0.62021489  0.81838463  0.86990373  1
  In  In21  1  0.67559575  0.64129941  0.32945522  1
  In  In22  1  0.50547144  -0.00455368  0.15798106  1
  In  In23  1  0.33191890  0.35313025  0.30137943  1
  In  In24  1  -0.01877507  0.18215136  0.50476322  1
  In  In25  1  0.83799650  0.84039561  -0.00197656  1
  In  In26  1  0.35109111  0.81635766  0.85461468  1
  In  In27  1  0.30964334  0.15933783  0.84519021  1
  In  In28  1  0.34940872  0.48984534  0.49057239  1
  In  In29  1  0.15981547  0.51613185  0.67018285  1
  In  In30  1  0.16328064  0.16759766  0.31604043  1
  In  In31  1  0.01094632  0.50837579  0.16240684  1
  In  In32  1  0.81902145  0.34035595  0.14050721  1
  In  In33  1  0.77244175  0.62953723  0.85286856  1
  In  In34  1  0.33321792  0.65361266  0.67090958  1
  In  In35  1  0.48680357  0.80891716  0.34519679  1
  In  In36  1  0.64998153  0.82366229  0.14973960  1
  In  In37  1  0.34716040  0.15707329  0.49992609  1
  In  In38  1  0.52130954  0.79445389  0.63952514  1
  In  In39  1  0.35859000  0.78507042  0.15946528  1
  In  In40  1  0.49279760  0.17514495  0.65507241  1
  In  In41  1  0.36038876  0.80807747  0.48558500  1
  In  In42  1  0.83705414  0.83660826  0.32514659  1
  In  In43  1  0.31758923  -0.04113284  0.70455298  1
  In  In44  1  0.65527239  0.19430059  0.85977368  1
  In  In45  1  0.49353394  0.50819861  -0.00380461  1
  In  In46  1  0.17331352  -0.01270127  0.15109607  1
  In  In47  1  0.81351141  -0.01291590  0.50697132  1
  In  In48  1  0.03388989  0.66539292  0.30879993  1
  In  In49  1  0.32154009  0.00887577  0.34030953  1
  In  In50  1  0.82960952  0.64566332  0.49527250  1
  In  In51  1  0.50778956  0.33241902  0.15817043  1
  In  In52  1  -0.00084836  0.69579346  0.01274341  1
  In  In53  1  0.01090209  0.85041934  0.11754840  1
  In  In54  1  0.53463640  0.51863776  0.69462683  1
  In  In55  1  -0.01815694  0.02642935  0.31925512  1
  In  In56  1  0.76431302  0.48766629  0.68585933  1
  In  In57  1  0.84310214  0.01596225  0.85860994  1
  In  In58  1  0.17730857  0.85424355  0.68855367  1
  In  In59  1  0.01410960  0.46591651  0.49109104  1
  In  In60  1  0.17489466  0.68926046  0.83252459  1
  In  In61  1  0.49606805  0.01321798  0.86209109  1
  In  In62  1  0.63914641  0.50097179  0.49176064  1
  In  In63  1  0.49030924  -0.00387414  0.48561032  1
  In  In64  1  0.16811889  0.18875990  0.01298982  1
  In  In65  1  0.51346961  0.34869344  0.84353807  1
  In  In66  1  -0.03561442  0.33016394  0.67967561  1
  In  In67  1  0.83321695  0.50218054  0.31325880  1
  In  In68  1  0.83622363  0.65187310  0.16250862  1
  In  In69  1  0.14282577  0.15132807  0.69921138  1
  In  In70  1  0.35640179  0.32483211  0.68075063  1
  In  In71  1  0.50438483  0.16704148  0.02561009  1
  Te  Te72  1  0.07634024  0.07829336  0.07636906  1
  Te  Te73  1  0.08865940  0.08386079  0.42726900  1
  Te  Te74  1  0.07966101  0.08051814  0.81706151  1
  Te  Te75  1  0.09665568  0.41627759  0.07613004  1
  Te  Te76  1  0.08560442  0.41488856  0.37176877  1
  Te  Te77  1  0.07377763  0.41756570  0.74760046  1
  Te  Te78  1  0.10921063  0.73851020  0.10399635  1
  Te  Te79  1  0.08443314  0.75802295  0.41922700  1
  Te  Te80  1  0.06648911  0.76007507  0.75073977  1
  Te  Te81  1  0.40493806  0.06964414  0.07442051  1
  Te  Te82  1  0.43581559  0.10008861  0.38892413  1
  Te  Te83  1  0.41562097  0.08214913  0.74983625  1
  Te  Te84  1  0.40090419  0.43673595  0.09813427  1
  Te  Te85  1  0.43186083  0.41967130  0.39006299  1
  Te  Te86  1  0.41957728  0.43670313  0.76157506  1
  Te  Te87  1  0.45066995  0.72662700  0.05072969  1
  Te  Te88  1  0.42508812  0.69367095  0.41912934  1
  Te  Te89  1  0.43137541  0.73747996  0.75114908  1
  Te  Te90  1  0.78578444  0.05663790  0.08256258  1
  Te  Te91  1  0.76727369  0.09370579  0.40720734  1
  Te  Te92  1  0.74162402  0.09610229  0.76043429  1
  Te  Te93  1  0.73016348  0.44217774  0.08254689  1
  Te  Te94  1  0.76054437  0.42665273  0.42305779  1
  Te  Te95  1  0.77143848  0.38273064  0.79037547  1
  Te  Te96  1  0.75008225  0.73954890  0.07019354  1
  Te  Te97  1  0.74873804  0.74777248  0.41114664  1
  Te  Te98  1  0.70812484  0.74217674  0.76490098  1
  Te  Te99  1  0.09340485  0.26530483  0.23199646  1
  Te  Te100  1  0.08311495  0.25487163  0.59174229  1
  Te  Te101  1  0.10209049  0.27815457  0.91412370  1
  Te  Te102  1  0.12293858  0.59649608  0.21132454  1
  Te  Te103  1  0.07914125  0.59290887  0.56529480  1
  Te  Te104  1  0.07909689  0.59248082  0.91757721  1
  Te  Te105  1  0.07433668  0.92133667  0.25535135  1
  Te  Te106  1  0.07022374  0.90770575  0.59025168  1
  Te  Te107  1  0.11850200  0.90334310  0.93671839  1
  Te  Te108  1  0.40321571  0.24861295  0.22299421  1
  Te  Te109  1  0.42959110  0.27350554  0.55678252  1
  Te  Te110  1  0.42584978  0.24262227  0.91037799  1
  Te  Te111  1  0.39045846  0.63433426  0.20222537  1
  Te  Te112  1  0.43143059  0.57336224  0.58903304  1
  Te  Te113  1  0.42083346  0.61978325  0.92390538  1
  Te  Te114  1  0.41224379  0.91496784  0.25957499  1
  Te  Te115  1  0.41475035  0.91321755  0.58859948  1
  Te  Te116  1  0.42467834  0.91111677  0.94258062  1
  Te  Te117  1  0.74615053  0.25649881  0.24562735  1
  Te  Te118  1  0.74364449  0.26826149  0.58479999  1
  Te  Te119  1  0.76572222  0.27830942  0.90792688  1
  Te  Te120  1  0.72877789  0.55306046  0.21348302  1
  Te  Te121  1  0.71640431  0.60586575  0.58918207  1
  Te  Te122  1  0.72352435  0.54970897  0.96886015  1
  Te  Te123  1  0.74115176  0.91502636  0.23677520  1
  Te  Te124  1  0.72979680  0.88787677  0.58706242  1
  Te  Te125  1  0.74091786  0.90841020  0.90167290  1
  Te  Te126  1  0.25886629  0.26143577  0.10889017  1
  Te  Te127  1  0.25421745  0.24732045  0.41760143  1
  Te  Te128  1  0.24076024  0.26076330  0.75477493  1
  Te  Te129  1  0.30120726  0.56461044  0.09700846  1
  Te  Te130  1  0.24272545  0.54215713  0.39263797  1
  Te  Te131  1  0.25582485  0.57283681  0.77374813  1
  Te  Te132  1  0.25516741  0.87709243  0.09366100  1
  Te  Te133  1  0.24878328  0.91022151  0.43161948  1
  Te  Te134  1  0.21236058  0.93448750  0.81486693  1
  Te  Te135  1  0.60883369  0.27174511  0.06168345  1
  Te  Te136  1  0.57477609  0.25975679  0.40282045  1
  Te  Te137  1  0.58650760  0.26092202  0.73977346  1
  Te  Te138  1  0.55879747  0.61722347  0.08118678  1
  Te  Te139  1  0.55698273  0.57343671  0.39039873  1
  Te  Te140  1  0.63899212  0.58039197  0.78364422  1
  Te  Te141  1  0.57408514  0.91038818  0.05597170  1
  Te  Te142  1  0.58907068  0.90898704  0.41147613  1
  Te  Te143  1  0.55780317  0.91021859  0.75567519  1
  Te  Te144  1  0.90285674  0.23913706  0.06402973  1
  Te  Te145  1  0.93461825  0.25613122  0.38633694  1
  Te  Te146  1  0.93952524  0.22733398  0.78688688  1
  Te  Te147  1  0.91803411  0.57363617  0.06032719  1
  Te  Te148  1  0.93190569  0.58701469  0.39646782  1
  Te  Te149  1  0.88597078  0.57960826  0.74711858  1
  Te  Te150  1  0.90551206  0.95195450  0.07502753  1
  Te  Te151  1  0.92102724  0.92390523  0.41790630  1
  Te  Te152  1  0.90725003  0.92059427  0.74803902  1
  Te  Te153  1  0.25930099  0.08882527  0.22728046  1
  Te  Te154  1  0.26220788  0.08958172  0.60909946  1
  Te  Te155  1  0.26349220  0.08291474  0.96126423  1
  Te  Te156  1  0.23411110  0.45626318  0.26111803  1
  Te  Te157  1  0.25085008  0.41864821  0.59376376  1
  Te  Te158  1  0.25683007  0.42299598  0.90630178  1
  Te  Te159  1  0.28398961  0.72135086  0.27903002  1
  Te  Te160  1  0.24436121  0.74883784  0.59128704  1
  Te  Te161  1  0.25457538  0.74570255  0.94254042  1
  Te  Te162  1  0.59027802  0.10191406  0.22842033  1
  Te  Te163  1  0.58955108  0.07733129  0.57790469  1
  Te  Te164  1  0.60624148  0.07870248  0.94359722  1
  Te  Te165  1  0.56230175  0.44199695  0.24239199  1
  Te  Te166  1  0.58657239  0.41579988  0.60000640  1
  Te  Te167  1  0.60357863  0.45007623  0.90805500  1
  Te  Te168  1  0.57969149  0.73363411  0.24851129  1
  Te  Te169  1  0.60146538  0.70958738  0.55457137  1
  Te  Te170  1  0.55929486  0.69705156  0.93656776  1
  Te  Te171  1  0.88541746  0.09035263  0.22683056  1
  Te  Te172  1  0.90571870  0.08082048  0.59205065  1
  Te  Te173  1  0.94636515  0.11237542  0.89800506  1
  Te  Te174  1  0.92080897  0.40784895  0.23483840  1
  Te  Te175  1  0.89979604  0.43864741  0.58933624  1
  Te  Te176  1  0.88293135  0.40677087  0.90540270  1
  Te  Te177  1  0.92717337  0.75564855  0.23048252  1
  Te  Te178  1  0.90520487  0.75456256  0.57279740  1
  Te  Te179  1  0.90296092  0.74017369  0.89764295  1
