# generated using pymatgen
data_In2Te3
_symmetry_space_group_name_H-M   'P 1'
_cell_length_a   18.88288482
_cell_length_b   18.89069096
_cell_length_c   18.88612559
_cell_angle_alpha   89.90846854
_cell_angle_beta   89.97017194
_cell_angle_gamma   89.94069870
_symmetry_Int_Tables_number   1
_chemical_formula_structural   In2Te3
_chemical_formula_sum   'In72 Te108'
_cell_volume   6736.87075359
_cell_formula_units_Z   36
loop_
 _symmetry_equiv_pos_site_id
 _symmetry_equiv_pos_as_xyz
  1  'x, y, z'
loop_
 _atom_site_type_symbol
 _atom_site_label
 _atom_site_symmetry_multiplicity
 _atom_site_fract_x
 _atom_site_fract_y
 _atom_site_fract_z
 _atom_site_occupancy
  In  In0  1  0.15562887  0.16508943  0.34918677  1
  In  In1  1  0.68303740  0.83190463  0.17683668  1
  In  In2  1  0.63750760  0.69541638  0.62731178  1
  In  In3  1  0.32559821  0.84959961  0.81108698  1
  In  In4  1  0.67440759  0.53952842  0.22972447  1
  In  In5  1  0.49779902  0.67611851  0.83014812  1
  In  In6  1  0.35094057  0.64260763  0.64483927  1
  In  In7  1  0.66340420  0.50489769  0.81087543  1
  In  In8  1  0.49426458  0.50517203  0.35488872  1
  In  In9  1  0.17071048  0.18405765  0.63783273  1
  In  In10  1  0.18924580  0.49915606  0.33718676  1
  In  In11  1  0.65347228  0.16158613  0.15677751  1
  In  In12  1  0.83830142  -0.01096653  0.80488598  1
  In  In13  1  0.00649299  0.31601860  0.66702242  1
  In  In14  1  0.83666142  -0.01180647  0.47832284  1
  In  In15  1  0.49161753  0.15275548  -0.01423424  1
  In  In16  1  0.18571779  0.67152301  0.49330824  1
  In  In17  1  0.16515271  0.65371153  0.82698227  1
  In  In18  1  0.48792484  0.31843013  0.18326831  1
  In  In19  1  0.84316156  0.51861006  0.02877090  1
  In  In20  1  0.01140859  0.36001322  0.02151251  1
  In  In21  1  0.69741984  -0.00833758  0.64477193  1
  In  In22  1  -0.01865299  0.84607204  0.81054430  1
  In  In23  1  0.68866002  0.35592977  -0.01012589  1
  In  In24  1  0.81616860  0.15776171  0.01185395  1
  In  In25  1  0.01139689  0.49875046  0.17387389  1
  In  In26  1  0.01871996  0.15713779  0.80877303  1
  In  In27  1  0.31595419  0.35147890  0.63073858  1
  In  In28  1  0.85616587  0.31988410  0.81993640  1
  In  In29  1  0.18837420  0.32883795  0.83371870  1
  In  In30  1  0.30673770  0.00279188  0.35474785  1
  In  In31  1  0.67550131  -0.00561107  0.31577417  1
  In  In32  1  0.32845568  0.33188896  0.35455301  1
  In  In33  1  0.51536911  0.50453404  0.00333428  1
  In  In34  1  0.83008923  0.67054723  0.84843927  1
  In  In35  1  0.01361826  0.82785612  0.20117648  1
  In  In36  1  0.48421808  0.00575067  0.49120497  1
  In  In37  1  0.84800483  0.80408012  0.02817149  1
  In  In38  1  0.83788154  0.16620833  0.34560342  1
  In  In39  1  0.84691653  0.83229019  0.66834135  1
  In  In40  1  0.15304513  -0.00600040  0.17460968  1
  In  In41  1  0.48776895  0.80265040  -0.00003235  1
  In  In42  1  0.84633554  0.48890488  0.67028460  1
  In  In43  1  0.33764367  -0.00423104  0.64508335  1
  In  In44  1  -0.01365135  0.68427688  0.65528735  1
  In  In45  1  0.00364705  0.33287115  0.32868098  1
  In  In46  1  0.64742123  0.32342996  0.37110840  1
  In  In47  1  0.32717089  0.66774852  0.32990846  1
  In  In48  1  0.00549544  0.14856677  0.19660031  1
  In  In49  1  0.15672790  -0.01522163  0.50991433  1
  In  In50  1  0.65420365  0.85770599  0.82923895  1
  In  In51  1  0.33340345  0.33719992  -0.00704822  1
  In  In52  1  0.64330162  0.30139469  0.58594725  1
  In  In53  1  0.18863866  0.68393313  0.18990010  1
  In  In54  1  -0.00814186  -0.02205382  -0.01384494  1
  In  In55  1  0.48006735  0.16932690  0.65459161  1
  In  In56  1  0.34358004  0.65900048  0.01670765  1
  In  In57  1  0.47607177  0.83586183  0.35961212  1
  In  In58  1  -0.01488366  0.67691124  0.36049098  1
  In  In59  1  0.49450084  0.65736920  0.18744739  1
  In  In60  1  0.47734502  0.33746005  0.78347915  1
  In  In61  1  0.66865074  0.50350652  0.49371019  1
  In  In62  1  0.50597939  -0.01302644  0.80973124  1
  In  In63  1  0.03325556  0.48396142  0.83511660  1
  In  In64  1  0.17435617  0.18306140  -0.00734456  1
  In  In65  1  0.15625322  0.83744813  -0.00876831  1
  In  In66  1  0.85464069  0.33355357  0.18967568  1
  In  In67  1  0.02519694  0.49775280  0.51232123  1
  In  In68  1  0.31891457  0.01350046  0.00622786  1
  In  In69  1  0.82053604  0.69587642  0.50108066  1
  In  In70  1  0.67480307  -0.00184705  -0.00447629  1
  In  In71  1  0.50482282  0.00108863  0.17923127  1
  Te  Te72  1  0.07400203  0.08010737  0.06909646  1
  Te  Te73  1  0.06501949  0.06715692  0.41990457  1
  Te  Te74  1  0.10433509  0.07901162  0.72119302  1
  Te  Te75  1  0.11591308  0.43012693  0.09437507  1
  Te  Te76  1  0.10150243  0.40546135  0.42028113  1
  Te  Te77  1  0.11091391  0.41765139  0.71878427  1
  Te  Te78  1  0.08769539  0.74864696  0.09350782  1
  Te  Te79  1  0.09654588  0.75995852  0.41235642  1
  Te  Te80  1  0.08647172  0.75757931  0.74453606  1
  Te  Te81  1  0.41137253  0.09344930  0.09918191  1
  Te  Te82  1  0.40764046  0.09897859  0.40488954  1
  Te  Te83  1  0.40431174  0.08367262  0.75506742  1
  Te  Te84  1  0.42326215  0.41876910  0.08750761  1
  Te  Te85  1  0.42004536  0.41302722  0.44330645  1
  Te  Te86  1  0.38961654  0.44483878  0.72799715  1
  Te  Te87  1  0.40208840  0.75777589  0.11681712  1
  Te  Te88  1  0.42589083  0.71605225  0.43561866  1
  Te  Te89  1  0.41845242  0.75862995  0.73434855  1
  Te  Te90  1  0.75561485  0.05761539  0.11018667  1
  Te  Te91  1  0.72968652  0.09091409  0.42197581  1
  Te  Te92  1  0.72998683  0.07603702  0.76014421  1
  Te  Te93  1  0.75369283  0.42340159  0.10912214  1
  Te  Te94  1  0.75529430  0.41164765  0.41837972  1
  Te  Te95  1  0.74719506  0.39820127  0.74175523  1
  Te  Te96  1  0.73417757  0.73056823  0.08300464  1
  Te  Te97  1  0.71416620  0.71249002  0.39957462  1
  Te  Te98  1  0.74348181  0.75184369  0.75320374  1
  Te  Te99  1  0.09663571  0.25983570  0.23404398  1
  Te  Te100  1  0.05835465  0.23533173  0.55332354  1
  Te  Te101  1  0.06242349  0.26456182  0.90559951  1
  Te  Te102  1  0.08653154  0.59400694  0.27548421  1
  Te  Te103  1  0.09747488  0.59652388  0.59920590  1
  Te  Te104  1  0.08115450  0.58544833  0.92742122  1
  Te  Te105  1  0.07590302  0.93231945  0.28996544  1
  Te  Te106  1  0.05130929  0.91597414  0.58874426  1
  Te  Te107  1  0.09145068  0.92564043  0.88534502  1
  Te  Te108  1  0.42048584  0.23543042  0.28295343  1
  Te  Te109  1  0.42048239  0.27022477  0.55948079  1
  Te  Te110  1  0.41762411  0.25143851  0.89861633  1
  Te  Te111  1  0.39913299  0.55846644  0.24776406  1
  Te  Te112  1  0.44223878  0.53207804  0.59641236  1
  Te  Te113  1  0.41728275  0.57648893  0.91168987  1
  Te  Te114  1  0.40312627  0.92421581  0.25915459  1
  Te  Te115  1  0.40904303  0.89737589  0.55979586  1
  Te  Te116  1  0.42120192  0.91813720  0.92181229  1
  Te  Te117  1  0.74020113  0.25168483  0.24682389  1
  Te  Te118  1  0.75965561  0.21528896  0.55835196  1
  Te  Te119  1  0.74998083  0.24588735  0.90615457  1
  Te  Te120  1  0.77344261  0.63117598  0.28539112  1
  Te  Te121  1  0.75721829  0.59521049  0.60688149  1
  Te  Te122  1  0.74105945  0.57201197  0.92269240  1
  Te  Te123  1  0.77134493  0.88748828  0.28076349  1
  Te  Te124  1  0.75311965  0.88200001  0.55677372  1
  Te  Te125  1  0.77381148  0.90560697  0.92390549  1
  Te  Te126  1  0.26404656  0.24652361  0.08695617  1
  Te  Te127  1  0.23435222  0.25105588  0.43798241  1
  Te  Te128  1  0.26894126  0.24847645  0.73595619  1
  Te  Te129  1  0.24694349  0.58547443  0.09800969  1
  Te  Te130  1  0.28016221  0.56697411  0.43711209  1
  Te  Te131  1  0.26982280  0.57911255  0.75421196  1
  Te  Te132  1  0.24793262  0.90880702  0.09118471  1
  Te  Te133  1  0.24873256  0.89250487  0.43573142  1
  Te  Te134  1  0.23453966  0.92104296  0.72223219  1
  Te  Te135  1  0.58515227  0.25917383  0.06187764  1
  Te  Te136  1  0.56438422  0.24830551  0.46826556  1
  Te  Te137  1  0.58585851  0.25117498  0.72678503  1
  Te  Te138  1  0.59585453  0.58663207  0.09978264  1
  Te  Te139  1  0.59145712  0.60438552  0.41461607  1
  Te  Te140  1  0.57543152  0.59489152  0.72593257  1
  Te  Te141  1  0.57424299  0.91304023  0.07358607  1
  Te  Te142  1  0.58870267  0.91934392  0.41722192  1
  Te  Te143  1  0.57900109  0.90330901  0.70815282  1
  Te  Te144  1  0.92043643  0.24588738  0.08294788  1
  Te  Te145  1  0.93810913  0.24063162  0.42519154  1
  Te  Te146  1  0.90403996  0.21204194  0.72387860  1
  Te  Te147  1  0.93099588  0.60273717  0.10705029  1
  Te  Te148  1  0.91011703  0.58234355  0.45276475  1
  Te  Te149  1  0.92746416  0.58157904  0.76149089  1
  Te  Te150  1  0.92427895  0.91134618  0.10318134  1
  Te  Te151  1  0.95006802  0.95322243  0.38552600  1
  Te  Te152  1  0.94438741  0.95496567  0.69645190  1
  Te  Te153  1  0.24172604  0.09256900  0.24577102  1
  Te  Te154  1  0.26070255  0.09276519  0.55522371  1
  Te  Te155  1  0.24215987  0.08728117  0.90565258  1
  Te  Te156  1  0.26086574  0.40857092  0.24740747  1
  Te  Te157  1  0.19831330  0.42945368  0.59152357  1
  Te  Te158  1  0.24618789  0.43130840  0.91941986  1
  Te  Te159  1  0.23565634  0.78012537  0.29379936  1
  Te  Te160  1  0.26345461  0.74966922  0.59180643  1
  Te  Te161  1  0.26232050  0.75402604  0.91852792  1
  Te  Te162  1  0.57323658  0.10107754  0.27008580  1
  Te  Te163  1  0.57884249  0.07393010  0.58946356  1
  Te  Te164  1  0.59322014  0.08110989  0.89784534  1
  Te  Te165  1  0.58487009  0.41242467  0.25602637  1
  Te  Te166  1  0.57281232  0.43653597  0.58731127  1
  Te  Te167  1  0.57347093  0.40970698  0.89412532  1
  Te  Te168  1  0.56954481  0.76824809  0.25679067  1
  Te  Te169  1  0.53360220  0.75499331  0.54309793  1
  Te  Te170  1  0.60161792  0.74413330  0.91851331  1
  Te  Te171  1  0.90146157  0.06453368  0.25681905  1
  Te  Te172  1  0.85954042  0.09838538  0.57532465  1
  Te  Te173  1  0.91222352  0.08575615  0.91150957  1
  Te  Te174  1  0.91113879  0.44236249  0.27722348  1
  Te  Te175  1  0.92008372  0.40269752  0.57266546  1
  Te  Te176  1  0.90807623  0.42237160  0.92012390  1
  Te  Te177  1  0.90150841  0.74593524  0.25750046  1
  Te  Te178  1  0.94095880  0.78522244  0.55124095  1
  Te  Te179  1  0.93966223  0.74643443  0.92068220  1
