# generated using pymatgen
data_In2Te3
_symmetry_space_group_name_H-M   'P 1'
_cell_length_a   18.87468790
_cell_length_b   18.86948746
_cell_length_c   18.85377793
_cell_angle_alpha   90.01308110
_cell_angle_beta   89.95442694
_cell_angle_gamma   90.11661996
_symmetry_Int_Tables_number   1
_chemical_formula_structural   In2Te3
_chemical_formula_sum   'In72 Te108'
_cell_volume   6714.86401965
_cell_formula_units_Z   36
loop_
 _symmetry_equiv_pos_site_id
 _symmetry_equiv_pos_as_xyz
  1  'x, y, z'
loop_
 _atom_site_type_symbol
 _atom_site_label
 _atom_site_symmetry_multiplicity
 _atom_site_fract_x
 _atom_site_fract_y
 _atom_site_fract_z
 _atom_site_occupancy
  In  In0  1  0.66279112  0.18116508  0.83092842  1
  In  In1  1  0.47741815  0.46849736  0.00221082  1
  In  In2  1  0.35010249  -0.00634627  0.64171110  1
  In  In3  1  0.15803058  0.32643966  0.47627936  1
  In  In4  1  0.67222288  0.18415290  0.20857131  1
  In  In5  1  -0.00414837  0.14506917  0.49943081  1
  In  In6  1  0.49851177  0.16200261  0.64058235  1
  In  In7  1  0.35404453  0.82810053  0.50416872  1
  In  In8  1  0.32903422  0.31299873  0.65237904  1
  In  In9  1  0.15792993  0.34114587  0.83920784  1
  In  In10  1  0.49237985  -0.00635804  0.16421390  1
  In  In11  1  0.65648314  0.35557794  0.00539470  1
  In  In12  1  0.80697611  0.68391251  0.47342844  1
  In  In13  1  0.48706367  0.32906241  0.16308499  1
  In  In14  1  0.81698366  0.46517009  0.35121417  1
  In  In15  1  0.01337824  0.50473675  0.83760880  1
  In  In16  1  0.15286266  0.66071061  0.18329974  1
  In  In17  1  0.49327192  0.85479505  -0.02024275  1
  In  In18  1  0.00728171  0.17646202  0.18836610  1
  In  In19  1  -0.02628383  0.33931985  0.66151291  1
  In  In20  1  -0.01449542  0.67070899  -0.00265911  1
  In  In21  1  0.16976142  0.03351004  0.85282319  1
  In  In22  1  -0.00377557  0.64638422  0.32280342  1
  In  In23  1  0.00829279  0.34578040  0.02891804  1
  In  In24  1  0.33091137  0.81933427  0.19381202  1
  In  In25  1  0.68189741  0.33330267  0.64739165  1
  In  In26  1  0.17702567  0.15596273  0.66844585  1
  In  In27  1  0.83736373  0.50907713  0.64520052  1
  In  In28  1  0.49482714  -0.00190605  0.81670343  1
  In  In29  1  0.01342803  0.17651658  0.82231250  1
  In  In30  1  0.48880933  0.66111777  0.21490996  1
  In  In31  1  0.66152268  0.87249771  0.26434391  1
  In  In32  1  0.65757842  0.50358154  0.18362844  1
  In  In33  1  0.17921356  0.01206510  0.17703914  1
  In  In34  1  0.18308560  0.52058764  0.62354595  1
  In  In35  1  0.67800056  -0.00651046  0.62606288  1
  In  In36  1  -0.03506820  0.84570598  0.47092020  1
  In  In37  1  -0.00562049  0.33161757  0.32655456  1
  In  In38  1  0.83862241  0.15984341  0.64460894  1
  In  In39  1  -0.01863009  0.83444976  0.19348859  1
  In  In40  1  0.16698761  0.82052702  0.32911442  1
  In  In41  1  0.31883172  0.30359197  -0.00245994  1
  In  In42  1  0.32758698  0.33344059  0.32992562  1
  In  In43  1  0.84336461  0.82069936  0.00784692  1
  In  In44  1  0.49962529  0.48216368  0.35097678  1
  In  In45  1  0.46659020  0.17368380  0.00816139  1
  In  In46  1  0.34894373  0.01106220  0.32992058  1
  In  In47  1  0.84421277  -0.00233524  0.82902584  1
  In  In48  1  0.81348984  0.16636396  0.01233684  1
  In  In49  1  0.17300004  0.84162924  -0.00706385  1
  In  In50  1  0.50898400  0.49728589  0.63048346  1
  In  In51  1  0.47952979  0.67338821  0.80606620  1
  In  In52  1  0.67950393  0.51038121  0.83991406  1
  In  In53  1  0.32885571  0.49773444  0.80896973  1
  In  In54  1  -0.00241217  -0.01902694  0.01403607  1
  In  In55  1  0.67159367  0.68967464  0.64164082  1
  In  In56  1  0.34933185  0.85161834  0.82533977  1
  In  In57  1  0.16228097  0.01062785  0.49977750  1
  In  In58  1  0.51809035  0.18446040  0.36039177  1
  In  In59  1  0.32817363  0.68209683  0.01086412  1
  In  In60  1  0.84160035  0.64630635  0.16873842  1
  In  In61  1  0.02548626  0.66349390  0.64891041  1
  In  In62  1  0.51527671  0.67213059  0.48364458  1
  In  In63  1  0.17238431  0.83194724  0.65155058  1
  In  In64  1  0.33900312  0.65672058  0.64958597  1
  In  In65  1  0.13939488  0.49506563  0.02528693  1
  In  In66  1  0.67979034  0.84692524  0.82133743  1
  In  In67  1  0.65853649  0.01914339  0.03188085  1
  In  In68  1  0.66075164  0.65432600  0.00090295  1
  In  In69  1  0.85307301  0.49674733  0.01495696  1
  In  In70  1  0.81969722  0.83910334  0.66708028  1
  In  In71  1  0.82563344  0.15908765  0.35598080  1
  Te  Te72  1  0.08016565  0.08435614  0.08569191  1
  Te  Te73  1  0.09937400  0.10264198  0.40220633  1
  Te  Te74  1  0.07107166  0.06923614  0.73422460  1
  Te  Te75  1  0.12392171  0.38018423  0.11775535  1
  Te  Te76  1  0.08754549  0.42887157  0.39511620  1
  Te  Te77  1  0.08911842  0.42209429  0.73037166  1
  Te  Te78  1  0.08062002  0.76602516  0.09037681  1
  Te  Te79  1  0.06616358  0.74677854  0.41534491  1
  Te  Te80  1  0.09331705  0.75132995  0.74586736  1
  Te  Te81  1  0.39253311  0.08731571  0.10430277  1
  Te  Te82  1  0.43936917  0.07594423  0.42931268  1
  Te  Te83  1  0.40535124  0.09497721  0.74405305  1
  Te  Te84  1  0.37679309  0.40879685  0.09748603  1
  Te  Te85  1  0.43225792  0.37519414  0.43182274  1
  Te  Te86  1  0.42147967  0.41439424  0.72637361  1
  Te  Te87  1  0.43410146  0.75225933  0.09436807  1
  Te  Te88  1  0.41267279  0.74103721  0.40048128  1
  Te  Te89  1  0.41627675  0.77484440  0.71231012  1
  Te  Te90  1  0.75802140  0.08138644  0.12606042  1
  Te  Te91  1  0.72437494  0.05289035  0.39382726  1
  Te  Te92  1  0.73809058  0.07545259  0.74935165  1
  Te  Te93  1  0.75590534  0.41805331  0.10146642  1
  Te  Te94  1  0.71148008  0.38784912  0.42554346  1
  Te  Te95  1  0.76048630  0.42207199  0.74729316  1
  Te  Te96  1  0.74612984  0.74014855  0.09355124  1
  Te  Te97  1  0.71023262  0.78422026  0.41515133  1
  Te  Te98  1  0.75711714  0.73240419  0.75989090  1
  Te  Te99  1  0.10679094  0.27160843  0.24571171  1
  Te  Te100  1  0.08090584  0.24868157  0.59489256  1
  Te  Te101  1  0.08522621  0.24863821  0.93431713  1
  Te  Te102  1  0.10312680  0.55263562  0.27424528  1
  Te  Te103  1  0.05470051  0.55413204  0.54685873  1
  Te  Te104  1  0.09726701  0.59946204  0.92218379  1
  Te  Te105  1  0.08246447  0.92590810  0.26055931  1
  Te  Te106  1  0.07185894  0.90887203  0.56681474  1
  Te  Te107  1  0.07959428  0.91922143  0.90189372  1
  Te  Te108  1  0.41870904  0.23034182  0.25262869  1
  Te  Te109  1  0.43118973  0.26506114  0.55389189  1
  Te  Te110  1  0.42638535  0.26789213  0.90402173  1
  Te  Te111  1  0.39964639  0.54794139  0.25634984  1
  Te  Te112  1  0.40771612  0.57148096  0.54675220  1
  Te  Te113  1  0.41615890  0.58749574  0.91584842  1
  Te  Te114  1  0.43487012  0.89888512  0.27057671  1
  Te  Te115  1  0.44512208  0.94013903  0.54156439  1
  Te  Te116  1  0.39348633  0.95543495  0.92728016  1
  Te  Te117  1  0.78008093  0.26671644  0.26381566  1
  Te  Te118  1  0.73617174  0.22496260  0.55696325  1
  Te  Te119  1  0.74967976  0.26936119  0.91933421  1
  Te  Te120  1  0.74937275  0.58280754  0.27218145  1
  Te  Te121  1  0.73298355  0.58007123  0.55852647  1
  Te  Te122  1  0.77714822  0.59235819  0.92361552  1
  Te  Te123  1  0.78736412  0.94938325  0.30026764  1
  Te  Te124  1  0.75545277  0.89503889  0.54433306  1
  Te  Te125  1  0.74360152  0.92852704  0.93349605  1
  Te  Te126  1  0.26178519  0.19414470  0.07779263  1
  Te  Te127  1  0.25055512  0.23202315  0.40932098  1
  Te  Te128  1  0.25177399  0.24539552  0.76666418  1
  Te  Te129  1  0.24877614  0.58408254  0.09198955  1
  Te  Te130  1  0.19154845  0.59275034  0.48876248  1
  Te  Te131  1  0.23730044  0.59956783  0.74748450  1
  Te  Te132  1  0.26186610  0.91249167  0.09445057  1
  Te  Te133  1  0.25298734  0.91336854  0.41601083  1
  Te  Te134  1  0.24610788  0.93649517  0.74545414  1
  Te  Te135  1  0.59224745  0.23913259  0.08092033  1
  Te  Te136  1  0.63678942  0.25074924  0.42512886  1
  Te  Te137  1  0.57864936  0.25802301  0.73310692  1
  Te  Te138  1  0.56193493  0.57183373  0.08489757  1
  Te  Te139  1  0.59720686  0.57937520  0.40367373  1
  Te  Te140  1  0.58423442  0.58430795  0.73968703  1
  Te  Te141  1  0.59116309  0.89734208  0.09349305  1
  Te  Te142  1  0.62609746  0.91591633  0.40446866  1
  Te  Te143  1  0.58443154  0.91629708  0.72693479  1
  Te  Te144  1  0.90912484  0.25168310  0.09621045  1
  Te  Te145  1  0.91610557  0.25650445  0.43571740  1
  Te  Te146  1  0.89622346  0.24703568  0.75571137  1
  Te  Te147  1  0.95488994  0.56635570  0.10478377  1
  Te  Te148  1  0.90141934  0.57660269  0.41931580  1
  Te  Te149  1  0.92704300  0.58558713  0.74290703  1
  Te  Te150  1  0.89247438  0.92464740  0.10833266  1
  Te  Te151  1  0.91932174  0.95846566  0.38647457  1
  Te  Te152  1  0.92332699  0.91195961  0.74158127  1
  Te  Te153  1  0.23889001  0.09947850  0.28244144  1
  Te  Te154  1  0.27019936  0.09838504  0.56413387  1
  Te  Te155  1  0.24654615  0.12070351  0.94096176  1
  Te  Te156  1  0.27240093  0.46355625  0.29014715  1
  Te  Te157  1  0.26105157  0.40822285  0.55610355  1
  Te  Te158  1  0.24683159  0.43441679  0.92155783  1
  Te  Te159  1  0.26192262  0.71259145  0.27876689  1
  Te  Te160  1  0.23812115  0.73427256  0.55343167  1
  Te  Te161  1  0.25654634  0.75529214  0.89853350  1
  Te  Te162  1  0.57545489  0.07897786  0.25925085  1
  Te  Te163  1  0.59495624  0.09139920  0.55274664  1
  Te  Te164  1  0.57953213  0.08239359  0.91764862  1
  Te  Te165  1  0.58635294  0.39257090  0.25777958  1
  Te  Te166  1  0.60341256  0.41597455  0.54855832  1
  Te  Te167  1  0.57217595  0.41565076  0.89368387  1
  Te  Te168  1  0.60649025  0.73183369  0.27241256  1
  Te  Te169  1  0.56740510  0.77093048  0.58159801  1
  Te  Te170  1  0.58061360  0.74801024  0.90271823  1
  Te  Te171  1  0.93332876  0.08271420  0.27895271  1
  Te  Te172  1  0.90703723  0.05266811  0.57238012  1
  Te  Te173  1  0.91907849  0.09119908  0.92641873  1
  Te  Te174  1  0.90997558  0.42262941  0.24530937  1
  Te  Te175  1  0.89647514  0.40591935  0.55636287  1
  Te  Te176  1  0.92479670  0.40795290  0.91435270  1
  Te  Te177  1  0.88779318  0.74899189  0.27351196  1
  Te  Te178  1  0.90823739  0.74045407  0.57649697  1
  Te  Te179  1  0.92500050  0.76321644  0.90127705  1
