# generated using pymatgen
data_In2Te3
_symmetry_space_group_name_H-M   'P 1'
_cell_length_a   18.81434804
_cell_length_b   18.82364288
_cell_length_c   18.82961079
_cell_angle_alpha   89.93417493
_cell_angle_beta   90.10540243
_cell_angle_gamma   89.92320158
_symmetry_Int_Tables_number   1
_chemical_formula_structural   In2Te3
_chemical_formula_sum   'In72 Te108'
_cell_volume   6668.57099065
_cell_formula_units_Z   36
loop_
 _symmetry_equiv_pos_site_id
 _symmetry_equiv_pos_as_xyz
  1  'x, y, z'
loop_
 _atom_site_type_symbol
 _atom_site_label
 _atom_site_symmetry_multiplicity
 _atom_site_fract_x
 _atom_site_fract_y
 _atom_site_fract_z
 _atom_site_occupancy
  In  In0  1  0.66418790  0.82812226  0.17538863  1
  In  In1  1  0.65942818  0.65630788  0.01532995  1
  In  In2  1  0.32434978  0.64318997  0.31987933  1
  In  In3  1  0.66994750  0.00973377  0.34934615  1
  In  In4  1  0.66029356  0.15053118  0.82570919  1
  In  In5  1  0.16685448  0.83752329  0.35980746  1
  In  In6  1  0.37327372  0.46760538  0.15704322  1
  In  In7  1  0.65087570  0.47649672  0.49921061  1
  In  In8  1  -0.00499054  0.16112516  0.51177719  1
  In  In9  1  0.18720526  0.01702872  0.15961946  1
  In  In10  1  0.14651799  0.32523068  0.18087743  1
  In  In11  1  0.82535801  0.02925653  0.48718298  1
  In  In12  1  0.33145831  0.18979488  0.18193923  1
  In  In13  1  0.31036218  0.83963690  0.81991344  1
  In  In14  1  0.34062920  0.32974154  0.65275490  1
  In  In15  1  0.54147464  -0.01744437  0.81327204  1
  In  In16  1  0.33703474  0.01123561  -0.00278206  1
  In  In17  1  0.35867442  0.33657033  0.36090798  1
  In  In18  1  0.47000049  0.03531558  0.49473268  1
  In  In19  1  0.34513084  0.65256630  0.01346803  1
  In  In20  1  0.67479650  0.67716856  0.66077512  1
  In  In21  1  0.00800112  0.81638030  0.51447411  1
  In  In22  1  -0.00248674  0.18115157  0.18290210  1
  In  In23  1  0.16250736  0.64817367  0.48287271  1
  In  In24  1  0.50088986  0.33110911  0.85258860  1
  In  In25  1  0.33636059  0.67016975  0.67520158  1
  In  In26  1  0.82139029  0.82553730  0.32100382  1
  In  In27  1  0.67241017  0.83572590  0.51186005  1
  In  In28  1  0.66795547  0.65978423  0.32867650  1
  In  In29  1  0.65357236  0.16900306  0.18467253  1
  In  In30  1  0.81686995  0.83875230  -0.01339456  1
  In  In31  1  0.15635986  0.85805710  -0.01008435  1
  In  In32  1  0.83755945  0.33606817  0.81510027  1
  In  In33  1  0.82483669  0.00976459  0.82546391  1
  In  In34  1  0.49389080  0.17625864  0.66351618  1
  In  In35  1  -0.01984182  0.49311606  0.17119388  1
  In  In36  1  0.48460979  0.83172303  0.32117243  1
  In  In37  1  0.18454643  0.64940270  0.16307281  1
  In  In38  1  0.00075074  0.00447610  0.34570465  1
  In  In39  1  0.82571384  0.15980680  0.02820603  1
  In  In40  1  0.48938422  0.18918945  -0.03141389  1
  In  In41  1  0.84250356  0.86036803  0.66506416  1
  In  In42  1  0.50650066  0.47604173  0.65762095  1
  In  In43  1  0.01092994  0.65830966  0.65759848  1
  In  In44  1  0.48690258  0.65800451  0.84752588  1
  In  In45  1  0.32082945  0.16872963  0.83105565  1
  In  In46  1  0.17141821  0.18039682  0.00376218  1
  In  In47  1  0.02479446  0.35153370  0.68812538  1
  In  In48  1  0.83515655  0.51662554  0.67536251  1
  In  In49  1  0.65909884  0.33709671  -0.00167112  1
  In  In50  1  0.16323133  0.49945777  0.33244099  1
  In  In51  1  0.16672691  0.64959738  0.82626328  1
  In  In52  1  -0.00539497  -0.01026275  -0.02481015  1
  In  In53  1  0.67390881  0.47820335  0.83251062  1
  In  In54  1  0.52719101  0.66172759  0.49669228  1
  In  In55  1  0.00439116  0.49788419  0.49430421  1
  In  In56  1  0.82653212  0.17038544  0.32605437  1
  In  In57  1  0.83834765  0.49154789  0.33889424  1
  In  In58  1  0.85067094  0.68221248  0.81329903  1
  In  In59  1  0.00988697  0.31943818  -0.00695817  1
  In  In60  1  0.82875378  0.48633978  -0.00014267  1
  In  In61  1  0.62860157  0.48796861  0.18186553  1
  In  In62  1  0.35547792  0.84554058  0.52430680  1
  In  In63  1  0.16536046  0.85375797  0.66384185  1
  In  In64  1  0.18791351  0.01274396  0.52162192  1
  In  In65  1  0.48541552  0.81613830  0.00266459  1
  In  In66  1  0.80925524  0.30656816  0.52100178  1
  In  In67  1  0.00712514  0.65500825  -0.02074520  1
  In  In68  1  0.51165328  0.00074422  0.18124794  1
  In  In69  1  0.02682884  0.15080381  0.80384489  1
  In  In70  1  -0.01483196  0.83264735  0.16450010  1
  In  In71  1  0.18789433  0.33344085  0.49134332  1
  Te  Te72  1  0.07437784  0.08395238  0.08010274  1
  Te  Te73  1  0.09940300  0.09054869  0.42245848  1
  Te  Te74  1  0.12625202  0.09590366  0.70951621  1
  Te  Te75  1  0.08164192  0.42112726  0.08291631  1
  Te  Te76  1  0.07725709  0.39781216  0.40556205  1
  Te  Te77  1  0.12160258  0.43960183  0.75729639  1
  Te  Te78  1  0.09139667  0.74988367  0.07926631  1
  Te  Te79  1  0.06428833  0.73234023  0.40076673  1
  Te  Te80  1  0.08519892  0.75525106  0.74875908  1
  Te  Te81  1  0.42178483  0.10013715  0.08635045  1
  Te  Te82  1  0.38188147  0.10962141  0.40137286  1
  Te  Te83  1  0.43457211  0.08650312  0.77067948  1
  Te  Te84  1  0.46351370  0.39878930  0.06302528  1
  Te  Te85  1  0.44882393  0.41280002  0.45251747  1
  Te  Te86  1  0.41170019  0.41538555  0.75976581  1
  Te  Te87  1  0.40847292  0.74718728  0.10640668  1
  Te  Te88  1  0.40778713  0.73863135  0.42209130  1
  Te  Te89  1  0.42626108  0.76483314  0.75368321  1
  Te  Te90  1  0.72089617  0.07852394  0.08899894  1
  Te  Te91  1  0.72169473  0.12719576  0.43189822  1
  Te  Te92  1  0.76340478  0.10692143  0.72584621  1
  Te  Te93  1  0.74136046  0.41433396  0.09983120  1
  Te  Te94  1  0.74337334  0.39301624  0.41239953  1
  Te  Te95  1  0.73968422  0.40371246  0.71827156  1
  Te  Te96  1  0.75915396  0.74317195  0.09120113  1
  Te  Te97  1  0.75313971  0.73872584  0.42715355  1
  Te  Te98  1  0.74381504  0.77572020  0.75570882  1
  Te  Te99  1  0.10084033  0.22494014  0.27808010  1
  Te  Te100  1  0.08827857  0.25985400  0.58281098  1
  Te  Te101  1  0.10784057  0.26175136  0.88515648  1
  Te  Te102  1  0.07383127  0.58877917  0.24881132  1
  Te  Te103  1  0.10491164  0.55839054  0.59241721  1
  Te  Te104  1  0.10817490  0.55738816  0.93013323  1
  Te  Te105  1  0.08829189  0.92065375  0.24826056  1
  Te  Te106  1  0.06586776  0.93698399  0.58340447  1
  Te  Te107  1  0.08945031  0.92980290  0.87932663  1
  Te  Te108  1  0.44047694  0.27278216  0.24838757  1
  Te  Te109  1  0.40257329  0.23186127  0.55653030  1
  Te  Te110  1  0.37239406  0.27919085  0.92096659  1
  Te  Te111  1  0.42955448  0.56660029  0.25120639  1
  Te  Te112  1  0.42791693  0.58540419  0.58450967  1
  Te  Te113  1  0.38771810  0.56480940  0.90195547  1
  Te  Te114  1  0.40227659  0.92804747  0.24712212  1
  Te  Te115  1  0.42905144  0.94349917  0.60421130  1
  Te  Te116  1  0.41969199  0.91997429  0.90648595  1
  Te  Te117  1  0.74267088  0.26562464  0.25063002  1
  Te  Te118  1  0.74510307  0.20426529  0.60371854  1
  Te  Te119  1  0.75225113  0.25186672  0.91285655  1
  Te  Te120  1  0.74926184  0.56996170  0.23904386  1
  Te  Te121  1  0.74456246  0.57820579  0.56861834  1
  Te  Te122  1  0.75656105  0.58890482  0.90195146  1
  Te  Te123  1  0.74957764  0.93546890  0.24319074  1
  Te  Te124  1  0.73559859  0.94735483  0.59245787  1
  Te  Te125  1  0.73264409  0.93260330  0.91030973  1
  Te  Te126  1  0.25624152  0.27864215  0.08230688  1
  Te  Te127  1  0.28202714  0.22344594  0.43956575  1
  Te  Te128  1  0.24182067  0.23332218  0.71937560  1
  Te  Te129  1  0.25882972  0.54550678  0.08310558  1
  Te  Te130  1  0.26947643  0.55294348  0.42989271  1
  Te  Te131  1  0.26099135  0.56549146  0.74806023  1
  Te  Te132  1  0.26520376  0.90914060  0.08508643  1
  Te  Te133  1  0.27039217  0.92748028  0.42575920  1
  Te  Te134  1  0.26794929  0.94412021  0.72262506  1
  Te  Te135  1  0.56146298  0.26026549  0.08465754  1
  Te  Te136  1  0.53040297  0.30213400  0.39322615  1
  Te  Te137  1  0.58845677  0.26194120  0.75119672  1
  Te  Te138  1  0.55730726  0.57925162  0.08748176  1
  Te  Te139  1  0.57425486  0.55976162  0.39528525  1
  Te  Te140  1  0.58883254  0.58123744  0.74667835  1
  Te  Te141  1  0.58079460  0.91080982  0.07880310  1
  Te  Te142  1  0.57533228  0.91083158  0.41780500  1
  Te  Te143  1  0.63579314  0.91452072  0.72628900  1
  Te  Te144  1  0.90731451  0.26885689  0.09608163  1
  Te  Te145  1  0.91309521  0.25270659  0.42221375  1
  Te  Te146  1  0.92578622  0.24320148  0.73297925  1
  Te  Te147  1  0.90868127  0.59136988  0.07617383  1
  Te  Te148  1  0.91329817  0.58801958  0.42271422  1
  Te  Te149  1  0.94450789  0.57131955  0.76598672  1
  Te  Te150  1  0.90221487  0.92814195  0.07902870  1
  Te  Te151  1  0.90911642  0.90819780  0.42377517  1
  Te  Te152  1  0.93043218  0.92765479  0.76254860  1
  Te  Te153  1  0.26085927  0.08893186  0.26640017  1
  Te  Te154  1  0.25707553  0.09955083  0.62230195  1
  Te  Te155  1  0.22939502  0.07382015  0.91012844  1
  Te  Te156  1  0.25868514  0.40687739  0.25798397  1
  Te  Te157  1  0.26218958  0.42954476  0.57448572  1
  Te  Te158  1  0.17549247  0.40137821  0.89200182  1
  Te  Te159  1  0.24540914  0.75681347  0.25494025  1
  Te  Te160  1  0.23812333  0.74675088  0.57317265  1
  Te  Te161  1  0.25010154  0.74592803  0.92438255  1
  Te  Te162  1  0.56255143  0.09899934  0.28634199  1
  Te  Te163  1  0.58135818  0.09689431  0.57262580  1
  Te  Te164  1  0.58318537  0.07530707  0.93243429  1
  Te  Te165  1  0.55316683  0.38729986  0.26163789  1
  Te  Te166  1  0.57075465  0.37206003  0.57146320  1
  Te  Te167  1  0.56714403  0.44646435  0.93771334  1
  Te  Te168  1  0.56628672  0.73191070  0.23990960  1
  Te  Te169  1  0.56717720  0.76768437  0.59859175  1
  Te  Te170  1  0.59074005  0.74876721  0.91432200  1
  Te  Te171  1  0.90932345  0.07163698  0.24334609  1
  Te  Te172  1  0.91886868  0.06629228  0.59462012  1
  Te  Te173  1  0.92440823  0.11462575  0.91914552  1
  Te  Te174  1  0.92288229  0.39518792  0.26366018  1
  Te  Te175  1  0.91321090  0.41309512  0.58745263  1
  Te  Te176  1  0.92827664  0.41817040  0.90648110  1
  Te  Te177  1  0.91060436  0.73644398  0.24572025  1
  Te  Te178  1  0.90043124  0.73874559  0.58929560  1
  Te  Te179  1  0.93095544  0.76785091  0.91024486  1
