# generated using pymatgen
data_In2Te3
_symmetry_space_group_name_H-M   'P 1'
_cell_length_a   18.90035629
_cell_length_b   18.90173864
_cell_length_c   18.90708429
_cell_angle_alpha   90.02357442
_cell_angle_beta   89.94949883
_cell_angle_gamma   89.87379131
_symmetry_Int_Tables_number   1
_chemical_formula_structural   In2Te3
_chemical_formula_sum   'In72 Te108'
_cell_volume   6754.52861052
_cell_formula_units_Z   36
loop_
 _symmetry_equiv_pos_site_id
 _symmetry_equiv_pos_as_xyz
  1  'x, y, z'
loop_
 _atom_site_type_symbol
 _atom_site_label
 _atom_site_symmetry_multiplicity
 _atom_site_fract_x
 _atom_site_fract_y
 _atom_site_fract_z
 _atom_site_occupancy
  In  In0  1  0.66019446  0.30373702  0.04357237  1
  In  In1  1  0.83605832  0.68762852  0.15764311  1
  In  In2  1  0.50642763  0.33208052  0.83570047  1
  In  In3  1  0.68854282  0.64199247  0.69045471  1
  In  In4  1  0.66268247  0.84715702  0.49587730  1
  In  In5  1  0.35837716  0.66964491  0.02563286  1
  In  In6  1  0.84726464  0.15553852  -0.00691656  1
  In  In7  1  0.36838773  0.33269906  0.31529056  1
  In  In8  1  0.32713933  0.32991998  0.66460281  1
  In  In9  1  -0.00256710  0.32743375  0.35178815  1
  In  In10  1  0.16802077  0.84468084  0.67512673  1
  In  In11  1  0.13950004  0.31262722  0.86007599  1
  In  In12  1  0.84531271  0.18509010  0.68099430  1
  In  In13  1  0.66875485  0.15954565  0.84102202  1
  In  In14  1  0.19274908  0.52738281  0.32239552  1
  In  In15  1  0.86563176  0.48994220  0.33138877  1
  In  In16  1  -0.00875494  0.15834560  0.14878288  1
  In  In17  1  -0.00505140  0.00537584  0.00533548  1
  In  In18  1  0.32911748  0.00775464  0.65466888  1
  In  In19  1  0.65960380  0.51290031  0.14307381  1
  In  In20  1  0.63837111  0.51573653  0.86032295  1
  In  In21  1  0.13723797  0.65492951  0.87054113  1
  In  In22  1  0.65364727  0.67523757  0.29976924  1
  In  In23  1  -0.01068372  0.82958757  0.51299617  1
  In  In24  1  -0.00189120  0.47743315  0.16016862  1
  In  In25  1  0.84358724  0.84519827  -0.00313649  1
  In  In26  1  0.17032811  0.48240581  0.69922251  1
  In  In27  1  0.64757708  0.14626238  0.48511369  1
  In  In28  1  0.16186764  0.67621303  0.14600701  1
  In  In29  1  0.68882367  -0.00483321  0.32963317  1
  In  In30  1  -0.01180694  0.18862834  0.52212684  1
  In  In31  1  0.33609483  0.16471646  0.84173426  1
  In  In32  1  0.81676541  0.50232678  -0.01578765  1
  In  In33  1  0.49394968  0.67039617  0.52000711  1
  In  In34  1  0.65979611  0.27956206  0.25220418  1
  In  In35  1  0.32933819  0.17759206  0.50275660  1
  In  In36  1  0.85422483  0.84911992  0.30977379  1
  In  In37  1  0.16163474  0.00159767  0.50445416  1
  In  In38  1  0.34851765  0.69425641  0.67239069  1
  In  In39  1  0.33005312  0.48694560  0.14346722  1
  In  In40  1  0.32927178  0.03329588  0.30206822  1
  In  In41  1  0.67191760  -0.01061958  0.65561314  1
  In  In42  1  0.65466055  0.82101154  0.16036050  1
  In  In43  1  -0.01183933  0.68400468  0.34328143  1
  In  In44  1  0.81066086  0.69553493  0.51491459  1
  In  In45  1  0.15835873  0.32419641  0.50665700  1
  In  In46  1  0.31897668  0.68892172  0.30411640  1
  In  In47  1  0.33216154  0.83091271  0.46518453  1
  In  In48  1  -0.00149464  0.48224000  0.52764120  1
  In  In49  1  0.85994982  0.32687163  0.83196575  1
  In  In50  1  0.12794659  0.04951919  0.82575854  1
  In  In51  1  0.86516725  0.51691668  0.71435371  1
  In  In52  1  0.01807063  -0.00658833  0.28328974  1
  In  In53  1  0.49495130  0.84358241  0.67612573  1
  In  In54  1  0.17623607  0.84379141  0.02091741  1
  In  In55  1  0.16354175  0.31701474  0.13239672  1
  In  In56  1  -0.00734158  0.82991070  0.83948110  1
  In  In57  1  0.53454893  0.84141244  0.30365957  1
  In  In58  1  0.33408708  0.51992174  0.84928762  1
  In  In59  1  0.48316583  -0.00092470  0.15507658  1
  In  In60  1  0.82612013  0.35072045  0.51350440  1
  In  In61  1  0.17358656  0.14276928  0.31825681  1
  In  In62  1  0.33864585  0.34020545  -0.01047188  1
  In  In63  1  0.83255359  0.82994662  0.69367987  1
  In  In64  1  0.49454885  0.17556754  0.31667203  1
  In  In65  1  0.69566476  0.00837051  0.00150634  1
  In  In66  1  0.66093691  0.48513377  0.51050594  1
  In  In67  1  0.49804876  0.50618923  0.33487203  1
  In  In68  1  0.15254845  0.64392913  0.49790150  1
  In  In69  1  0.66126394  0.34822149  0.67968234  1
  In  In70  1  0.50984018  0.01390039  0.84607135  1
  In  In71  1  0.36223767  0.81788321  0.84642432  1
  Te  Te72  1  0.09712826  0.07089764  0.09173902  1
  Te  Te73  1  0.07501871  0.09955241  0.42589707  1
  Te  Te74  1  0.06148740  0.12818297  0.72133280  1
  Te  Te75  1  0.09346642  0.42513540  0.06219929  1
  Te  Te76  1  0.08792504  0.43594431  0.41143727  1
  Te  Te77  1  0.06388540  0.41087110  0.77345269  1
  Te  Te78  1  0.07219301  0.74121767  0.04774020  1
  Te  Te79  1  0.09289238  0.76107540  0.42202576  1
  Te  Te80  1  0.08847026  0.74429004  0.75473615  1
  Te  Te81  1  0.37980944  0.05316271  0.06558166  1
  Te  Te82  1  0.41570636  0.08963754  0.41445293  1
  Te  Te83  1  0.42384176  0.08688731  0.74277907  1
  Te  Te84  1  0.43343450  0.40398106  0.08317054  1
  Te  Te85  1  0.42074521  0.41670605  0.42137625  1
  Te  Te86  1  0.40752500  0.41884215  0.76035748  1
  Te  Te87  1  0.40383913  0.80698853  0.06936936  1
  Te  Te88  1  0.44193459  0.74769706  0.39884646  1
  Te  Te89  1  0.46022342  0.72832369  0.77118186  1
  Te  Te90  1  0.75507658  0.10709431  0.10123730  1
  Te  Te91  1  0.76203208  0.07640530  0.42618166  1
  Te  Te92  1  0.75555161  0.08013872  0.74761327  1
  Te  Te93  1  0.75779493  0.40828959  0.09338803  1
  Te  Te94  1  0.75002806  0.42061162  0.40190626  1
  Te  Te95  1  0.75322145  0.42701577  0.77143307  1
  Te  Te96  1  0.73708617  0.74381966  0.05967764  1
  Te  Te97  1  0.74807982  0.76761007  0.38752729  1
  Te  Te98  1  0.73925509  0.74932550  0.77534520  1
  Te  Te99  1  0.07934838  0.24922402  0.25007484  1
  Te  Te100  1  0.07809409  0.26349414  0.61447024  1
  Te  Te101  1  0.05115903  0.21355388  0.92730183  1
  Te  Te102  1  0.07221360  0.58631856  0.25228659  1
  Te  Te103  1  0.07988535  0.57834769  0.61261134  1
  Te  Te104  1  0.03742202  0.54427252  0.87614658  1
  Te  Te105  1  0.11239407  0.89756272  0.23223291  1
  Te  Te106  1  0.06757576  0.92909725  0.59954052  1
  Te  Te107  1  0.10035213  0.91986389  0.90744637  1
  Te  Te108  1  0.40399513  0.23387174  0.21346677  1
  Te  Te109  1  0.42353610  0.25419040  0.58383496  1
  Te  Te110  1  0.43672233  0.23619242  0.93003955  1
  Te  Te111  1  0.40443875  0.58037230  0.23906878  1
  Te  Te112  1  0.40945180  0.58222146  0.59921292  1
  Te  Te113  1  0.43761928  0.56175077  0.94871464  1
  Te  Te114  1  0.40821876  0.90870362  0.25470830  1
  Te  Te115  1  0.41158959  0.91209473  0.56906187  1
  Te  Te116  1  0.42271828  0.92557528  0.93031881  1
  Te  Te117  1  0.78178030  0.20075956  0.22275191  1
  Te  Te118  1  0.73692794  0.25094808  0.58719259  1
  Te  Te119  1  0.74978795  0.26305949  0.91929018  1
  Te  Te120  1  0.76879596  0.58603364  0.25350160  1
  Te  Te121  1  0.76988204  0.56062288  0.58912589  1
  Te  Te122  1  0.73652587  0.60755917  0.91788203  1
  Te  Te123  1  0.75854508  0.91990057  0.21688941  1
  Te  Te124  1  0.77446397  0.91096383  0.57296794  1
  Te  Te125  1  0.75341702  0.91569837  0.90346327  1
  Te  Te126  1  0.24707800  0.23674943  0.04357204  1
  Te  Te127  1  0.24537630  0.25698498  0.40033605  1
  Te  Te128  1  0.24114903  0.25132218  0.76090700  1
  Te  Te129  1  0.23670937  0.57521703  0.06315532  1
  Te  Te130  1  0.27769224  0.59755511  0.42444870  1
  Te  Te131  1  0.24856882  0.60658692  0.75664957  1
  Te  Te132  1  0.29681171  0.92121661  0.06861628  1
  Te  Te133  1  0.24886592  0.93833181  0.39861532  1
  Te  Te134  1  0.27392335  0.91187380  0.75854640  1
  Te  Te135  1  0.56941427  0.23644429  0.13974764  1
  Te  Te136  1  0.59681735  0.25609023  0.39369854  1
  Te  Te137  1  0.57998514  0.23537392  0.74438373  1
  Te  Te138  1  0.56900376  0.59326870  0.05927184  1
  Te  Te139  1  0.60064555  0.59763737  0.42266795  1
  Te  Te140  1  0.57504181  0.56121766  0.73611437  1
  Te  Te141  1  0.58866174  0.92380029  0.07141972  1
  Te  Te142  1  0.57149632  0.93521609  0.41759318  1
  Te  Te143  1  0.59355627  0.91499486  0.76568438  1
  Te  Te144  1  0.94985214  0.25508512  0.04069983  1
  Te  Te145  1  0.88907381  0.24827111  0.42004454  1
  Te  Te146  1  0.95175569  0.20743872  0.79887875  1
  Te  Te147  1  0.91083309  0.57676892  0.08470206  1
  Te  Te148  1  0.91806029  0.58696884  0.43805314  1
  Te  Te149  1  0.91840449  0.61663365  0.81098707  1
  Te  Te150  1  0.91316916  0.92557007  0.09838412  1
  Te  Te151  1  0.94179370  0.92544448  0.40466723  1
  Te  Te152  1  0.92174404  0.92936929  0.75733820  1
  Te  Te153  1  0.23767485  0.08606482  0.19698413  1
  Te  Te154  1  0.23047961  0.10466273  0.59279196  1
  Te  Te155  1  0.24161755  0.07663867  0.91361984  1
  Te  Te156  1  0.24129014  0.40724905  0.24464283  1
  Te  Te157  1  0.24446806  0.42741423  0.57752007  1
  Te  Te158  1  0.23712719  0.42266680  0.91097655  1
  Te  Te159  1  0.21705403  0.77971793  0.24082775  1
  Te  Te160  1  0.24463419  0.76039430  0.57134647  1
  Te  Te161  1  0.25289329  0.74169732  0.92283791  1
  Te  Te162  1  0.58131325  0.06776170  0.25060942  1
  Te  Te163  1  0.57236599  0.07016826  0.58535263  1
  Te  Te164  1  0.58255625  0.09926549  0.94962582  1
  Te  Te165  1  0.59118590  0.42577490  0.24626511  1
  Te  Te166  1  0.56350848  0.40712705  0.58563904  1
  Te  Te167  1  0.59022768  0.39891094  0.94270871  1
  Te  Te168  1  0.54601750  0.72225983  0.20630715  1
  Te  Te169  1  0.59886714  0.75279658  0.59611447  1
  Te  Te170  1  0.50311538  0.71559018  0.98755939  1
  Te  Te171  1  0.91071875  0.09344751  0.25705485  1
  Te  Te172  1  0.90645605  0.08720315  0.59031338  1
  Te  Te173  1  0.89790079  0.04972571  0.90199264  1
  Te  Te174  1  0.90959564  0.37989766  0.23597701  1
  Te  Te175  1  0.91728952  0.39966368  0.62387217  1
  Te  Te176  1  0.92819094  0.42064843  0.92498418  1
  Te  Te177  1  0.94853704  0.76721741  0.22283981  1
  Te  Te178  1  0.92241155  0.73279438  0.60827632  1
  Te  Te179  1  0.92202301  0.73463419  0.93049262  1
