# generated using pymatgen
data_In2Te3
_symmetry_space_group_name_H-M   'P 1'
_cell_length_a   18.80943873
_cell_length_b   18.78594760
_cell_length_c   18.80715812
_cell_angle_alpha   89.98629113
_cell_angle_beta   90.19291457
_cell_angle_gamma   89.94868727
_symmetry_Int_Tables_number   1
_chemical_formula_structural   In2Te3
_chemical_formula_sum   'In72 Te108'
_cell_volume   6645.52766809
_cell_formula_units_Z   36
loop_
 _symmetry_equiv_pos_site_id
 _symmetry_equiv_pos_as_xyz
  1  'x, y, z'
loop_
 _atom_site_type_symbol
 _atom_site_label
 _atom_site_symmetry_multiplicity
 _atom_site_fract_x
 _atom_site_fract_y
 _atom_site_fract_z
 _atom_site_occupancy
  In  In0  1  0.81019394  0.33514696  0.48804645  1
  In  In1  1  0.17164249  0.50088784  0.32737977  1
  In  In2  1  0.69213186  0.32570967  -0.00056886  1
  In  In3  1  0.49752499  0.17652122  0.67506741  1
  In  In4  1  -0.02708562  0.80284218  0.84912749  1
  In  In5  1  0.71941545  0.65220525  -0.00373862  1
  In  In6  1  0.15000850  0.67108813  0.50628507  1
  In  In7  1  -0.00012894  0.82307296  0.50585263  1
  In  In8  1  0.15652416  0.84220334  0.67018171  1
  In  In9  1  0.35476991  0.67345260  0.00840414  1
  In  In10  1  0.66981342  0.17670991  0.51114636  1
  In  In11  1  0.13991452  -0.01169818  0.82837923  1
  In  In12  1  -0.00730408  0.35981818  0.33268563  1
  In  In13  1  0.14472843  0.85651497  0.31386131  1
  In  In14  1  0.48849461  0.52140907  -0.00428268  1
  In  In15  1  0.82795391  0.66637536  0.49680726  1
  In  In16  1  0.16670675  0.17158468  0.34938265  1
  In  In17  1  -0.00392587  0.00622079  0.67013674  1
  In  In18  1  0.31554162  -0.00762388  0.02077251  1
  In  In19  1  0.64114864  -0.01657892  0.34030764  1
  In  In20  1  0.31781138  0.65694135  0.68514646  1
  In  In21  1  0.33014208  0.34783974  0.64598006  1
  In  In22  1  0.84441706  -0.01738137  0.51271998  1
  In  In23  1  0.52130343  0.50728262  0.66071665  1
  In  In24  1  0.15254222  0.63749774  0.84217340  1
  In  In25  1  0.50199426  0.32958208  0.19439348  1
  In  In26  1  0.82142042  0.15149141  0.30641225  1
  In  In27  1  0.32996117  0.51160165  0.19299785  1
  In  In28  1  0.64644511  0.34978968  0.34431351  1
  In  In29  1  0.66395956  0.14141999  0.16752037  1
  In  In30  1  0.50789132  0.82575770  0.02919667  1
  In  In31  1  0.33246782  0.19226151  0.83782472  1
  In  In32  1  0.49146897  0.35765599  0.50194950  1
  In  In33  1  0.15680998  0.84856112  0.01190415  1
  In  In34  1  0.67602509  0.48026896  0.17175741  1
  In  In35  1  0.67257960  0.17918196  0.83906878  1
  In  In36  1  -0.00537973  0.16178248  0.82222390  1
  In  In37  1  0.35999377  0.81948630  0.47178336  1
  In  In38  1  0.85418092  -0.01311744  0.14188382  1
  In  In39  1  0.01631101  0.51061921  0.48611230  1
  In  In40  1  -0.00385159  0.32413164  0.66737572  1
  In  In41  1  0.83412253  0.51047890  0.66752069  1
  In  In42  1  0.30794759  0.03347382  0.60928922  1
  In  In43  1  0.32145987  0.00064025  0.34337884  1
  In  In44  1  0.00566617  0.15969430  0.49373551  1
  In  In45  1  0.86305375  0.81159639  0.28986824  1
  In  In46  1  0.47424471  -0.00533651  0.18814590  1
  In  In47  1  0.15185266  0.15305839  0.01223940  1
  In  In48  1  0.67736457  -0.02237284  0.66638293  1
  In  In49  1  0.49512819  0.33495596  0.82902522  1
  In  In50  1  0.83291148  0.50034279  0.32364639  1
  In  In51  1  0.50656127  0.66467647  0.84977849  1
  In  In52  1  0.51939612  -0.00057939  0.82488173  1
  In  In53  1  0.33687357  0.82888817  0.83456916  1
  In  In54  1  0.15527212  0.35104701  0.80674122  1
  In  In55  1  0.52647415  0.80468997  0.60492664  1
  In  In56  1  0.68345010  0.49976702  0.82195226  1
  In  In57  1  -0.00831878  0.35605468  -0.01443632  1
  In  In58  1  0.15985324  0.67701203  0.18406483  1
  In  In59  1  0.00134922  0.15570285  0.16982597  1
  In  In60  1  0.68047831  0.80899964  0.16985896  1
  In  In61  1  0.84592245  0.33679693  0.15723605  1
  In  In62  1  0.32497789  0.49803144  0.49549918  1
  In  In63  1  0.65398322  0.65999119  0.34735217  1
  In  In64  1  0.49630311  0.66323048  0.17974942  1
  In  In65  1  0.68448474  -0.00453561  -0.01250681  1
  In  In66  1  0.71580916  0.79309801  0.81766359  1
  In  In67  1  0.48257227  -0.00590992  0.48431093  1
  In  In68  1  0.85252523  0.00612638  0.83930521  1
  In  In69  1  0.15362683  0.48951021  -0.00501459  1
  In  In70  1  0.32392677  0.32972458  0.00545222  1
  In  In71  1  0.33574120  0.17362448  0.17397582  1
  Te  Te72  1  0.09249949  0.05411661  0.10644298  1
  Te  Te73  1  0.07894471  0.06453861  0.40701137  1
  Te  Te74  1  0.10115743  0.09873640  0.73196629  1
  Te  Te75  1  0.08064080  0.40753150  0.09222104  1
  Te  Te76  1  0.10515967  0.40241977  0.42597710  1
  Te  Te77  1  0.04756018  0.43456691  0.75269611  1
  Te  Te78  1  0.07721887  0.73774407  0.07426758  1
  Te  Te79  1  0.07376825  0.74695738  0.39786808  1
  Te  Te80  1  0.07943185  0.74387633  0.75410152  1
  Te  Te81  1  0.41958864  0.08794207  0.07903419  1
  Te  Te82  1  0.40201177  0.09932993  0.42071897  1
  Te  Te83  1  0.40887181  0.08137705  0.75567711  1
  Te  Te84  1  0.41934207  0.42109254  0.08809778  1
  Te  Te85  1  0.40359430  0.41644335  0.39904025  1
  Te  Te86  1  0.41531876  0.43017404  0.74379780  1
  Te  Te87  1  0.39799722  0.76990385  0.11677259  1
  Te  Te88  1  0.44368436  0.71006971  0.41980239  1
  Te  Te89  1  0.43167220  0.75124409  0.74464142  1
  Te  Te90  1  0.76897658  0.09534717  0.06929684  1
  Te  Te91  1  0.74775248  0.07686967  0.41852761  1
  Te  Te92  1  0.75114291  0.07996393  0.75205493  1
  Te  Te93  1  0.77401876  0.43727982  0.06467419  1
  Te  Te94  1  0.72997572  0.44897121  0.42399824  1
  Te  Te95  1  0.76523760  0.40375348  0.74559448  1
  Te  Te96  1  0.78354631  0.77051599  0.06904677  1
  Te  Te97  1  0.76159794  0.76071030  0.39349421  1
  Te  Te98  1  0.80161040  0.71182961  0.72061233  1
  Te  Te99  1  0.07607255  0.25639136  0.25654338  1
  Te  Te100  1  0.08834729  0.25277783  0.57470297  1
  Te  Te101  1  0.09379709  0.25339313  0.91178581  1
  Te  Te102  1  0.07003809  0.57778999  0.24918237  1
  Te  Te103  1  0.06634966  0.59321146  0.59800369  1
  Te  Te104  1  0.04548304  0.56916834  0.92304295  1
  Te  Te105  1  0.05807176  0.91174785  0.20224834  1
  Te  Te106  1  0.08523450  0.93261768  0.57074273  1
  Te  Te107  1  0.04917506  0.91794818  0.92407321  1
  Te  Te108  1  0.39915020  0.26256447  0.27492735  1
  Te  Te109  1  0.40885250  0.24087466  0.57075221  1
  Te  Te110  1  0.43410612  0.24730762  0.93781159  1
  Te  Te111  1  0.40404142  0.60628928  0.28182253  1
  Te  Te112  1  0.41197451  0.58701163  0.58771367  1
  Te  Te113  1  0.38945251  0.57767018  0.89333758  1
  Te  Te114  1  0.41846327  0.90181452  0.28623386  1
  Te  Te115  1  0.41242494  0.91568571  0.59672866  1
  Te  Te116  1  0.42581356  0.91503633  0.92613469  1
  Te  Te117  1  0.73970717  0.27101708  0.24844407  1
  Te  Te118  1  0.76279766  0.24936479  0.59803321  1
  Te  Te119  1  0.78126854  0.25678233  0.90509784  1
  Te  Te120  1  0.74606857  0.59648819  0.24096299  1
  Te  Te121  1  0.73358850  0.57841863  0.57499221  1
  Te  Te122  1  0.79839307  0.57211110  0.89252308  1
  Te  Te123  1  0.75142168  0.92875672  0.24707687  1
  Te  Te124  1  0.75365584  0.88781197  0.57890841  1
  Te  Te125  1  0.77561357  0.89843877  0.91624294  1
  Te  Te126  1  0.22940556  0.25472975  0.09649747  1
  Te  Te127  1  0.25848647  0.23231873  0.45048281  1
  Te  Te128  1  0.24483243  0.25065769  0.73001068  1
  Te  Te129  1  0.25162821  0.58468242  0.07795652  1
  Te  Te130  1  0.24798194  0.60241051  0.41336269  1
  Te  Te131  1  0.22087395  0.55757248  0.73556747  1
  Te  Te132  1  0.25279876  0.89887396  0.11392762  1
  Te  Te133  1  0.24094765  0.90143424  0.42844360  1
  Te  Te134  1  0.25771818  0.92891437  0.74883248  1
  Te  Te135  1  0.59292272  0.25632622  0.09469688  1
  Te  Te136  1  0.57010702  0.24440388  0.41978140  1
  Te  Te137  1  0.59911464  0.26993704  0.73892931  1
  Te  Te138  1  0.59323999  0.59417336  0.08199519  1
  Te  Te139  1  0.55798327  0.60557389  0.44885680  1
  Te  Te140  1  0.60302960  0.60643272  0.74810440  1
  Te  Te141  1  0.59515942  0.93153565  0.09750197  1
  Te  Te142  1  0.58832287  0.89632148  0.44845558  1
  Te  Te143  1  0.59616325  0.88627413  0.75796552  1
  Te  Te144  1  0.92460995  0.24248067  0.07031846  1
  Te  Te145  1  0.90481197  0.25005934  0.39866618  1
  Te  Te146  1  0.90235691  0.26477370  0.76751377  1
  Te  Te147  1  0.87924216  0.63959307  0.08886585  1
  Te  Te148  1  0.92361265  0.59629969  0.40025503  1
  Te  Te149  1  0.90338845  0.60624121  0.75895785  1
  Te  Te150  1  0.95187561  0.88620868  0.09371960  1
  Te  Te151  1  0.91805455  0.90447819  0.40501248  1
  Te  Te152  1  0.91371145  0.90422138  0.74347306  1
  Te  Te153  1  0.23772471  0.08141862  0.24471172  1
  Te  Te154  1  0.20916310  0.11574469  0.52902699  1
  Te  Te155  1  0.24808507  0.08078793  0.91308340  1
  Te  Te156  1  0.25727737  0.40109195  0.25681725  1
  Te  Te157  1  0.22779375  0.44172297  0.59357821  1
  Te  Te158  1  0.25500411  0.41902174  0.90408916  1
  Te  Te159  1  0.24687126  0.75649702  0.27298988  1
  Te  Te160  1  0.25582742  0.75943603  0.58705431  1
  Te  Te161  1  0.23923649  0.74801062  0.91738017  1
  Te  Te162  1  0.56194879  0.09406871  0.26842184  1
  Te  Te163  1  0.57944727  0.07446534  0.59261856  1
  Te  Te164  1  0.58221912  0.09364104  0.92786383  1
  Te  Te165  1  0.56160938  0.45152471  0.26747006  1
  Te  Te166  1  0.60098129  0.40845581  0.58589657  1
  Te  Te167  1  0.58496003  0.42295948  0.92417104  1
  Te  Te168  1  0.57322976  0.76628716  0.26463833  1
  Te  Te169  1  0.61997433  0.69728228  0.56428584  1
  Te  Te170  1  0.60035447  0.75208610  0.93326358  1
  Te  Te171  1  0.92831520  0.05613944  0.26139192  1
  Te  Te172  1  0.90384060  0.09920033  0.59161976  1
  Te  Te173  1  0.93381414  0.08570115  0.93294028  1
  Te  Te174  1  0.93217949  0.44625710  0.22003829  1
  Te  Te175  1  0.91566888  0.41955749  0.56178604  1
  Te  Te176  1  0.91782460  0.46575260  0.91796278  1
  Te  Te177  1  0.94205001  0.71405071  0.21047352  1
  Te  Te178  1  0.91059765  0.74488177  0.59613046  1
  Te  Te179  1  0.91836201  0.71423902  0.95620222  1
