# generated using pymatgen
data_In2Te3
_symmetry_space_group_name_H-M   'P 1'
_cell_length_a   18.96318784
_cell_length_b   18.94067611
_cell_length_c   18.93533103
_cell_angle_alpha   89.82727696
_cell_angle_beta   89.95392542
_cell_angle_gamma   90.04901750
_symmetry_Int_Tables_number   1
_chemical_formula_structural   In2Te3
_chemical_formula_sum   'In72 Te108'
_cell_volume   6801.07325812
_cell_formula_units_Z   36
loop_
 _symmetry_equiv_pos_site_id
 _symmetry_equiv_pos_as_xyz
  1  'x, y, z'
loop_
 _atom_site_type_symbol
 _atom_site_label
 _atom_site_symmetry_multiplicity
 _atom_site_fract_x
 _atom_site_fract_y
 _atom_site_fract_z
 _atom_site_occupancy
  In  In0  1  0.48815906  0.82801639  0.64698003  1
  In  In1  1  0.67059928  -0.02242375  0.66183955  1
  In  In2  1  0.03853680  0.15416499  0.50093535  1
  In  In3  1  -0.00502816  0.69062530  0.35101097  1
  In  In4  1  0.51506786  0.15083863  0.67803223  1
  In  In5  1  0.81643081  0.50541118  0.01266213  1
  In  In6  1  0.19995990  0.13120532  -0.00868783  1
  In  In7  1  0.84452665  0.81410464  0.66256756  1
  In  In8  1  0.43647817  0.35497390  0.80823309  1
  In  In9  1  0.01016450  0.34583873  0.31432888  1
  In  In10  1  0.48517201  0.65993920  0.84149231  1
  In  In11  1  0.67428348  0.35123038  0.66073424  1
  In  In12  1  0.32985680  0.67667637  0.67869077  1
  In  In13  1  0.00379907  0.04950672  0.68217876  1
  In  In14  1  0.18257372  0.70539776  0.19386610  1
  In  In15  1  0.35540351  0.84549166  0.49534202  1
  In  In16  1  0.01171763  0.83443127  0.84166407  1
  In  In17  1  0.66040378  0.15516507  0.83647936  1
  In  In18  1  0.49113573  0.32712526  0.16937203  1
  In  In19  1  0.48733844  0.01733655  0.49687119  1
  In  In20  1  0.15480413  0.68436513  0.48819583  1
  In  In21  1  0.48382386  0.84247433  -0.00259259  1
  In  In22  1  -0.00169026  0.48975277  0.18992269  1
  In  In23  1  0.16664522  0.83812736  0.69825633  1
  In  In24  1  0.82828517  -0.00262081  0.16997179  1
  In  In25  1  0.81387265  0.83437357  -0.00407443  1
  In  In26  1  0.84249576  0.81913859  0.34126137  1
  In  In27  1  0.00304353  0.50535156  0.51447255  1
  In  In28  1  0.19490637  0.51744363  0.34538825  1
  In  In29  1  0.16866502  0.16419880  0.69627060  1
  In  In30  1  0.82601212  0.34340141  0.15114988  1
  In  In31  1  0.34245790  0.84516979  0.16853790  1
  In  In32  1  0.84348159  0.16820762  0.32744528  1
  In  In33  1  0.34436272  0.16708128  0.50574986  1
  In  In34  1  0.82678319  0.66992300  0.49056605  1
  In  In35  1  0.18764286  -0.01655223  0.49585507  1
  In  In36  1  0.82922358  0.34542244  0.48693396  1
  In  In37  1  0.46841427  0.00037472  0.83041878  1
  In  In38  1  0.49663405  0.35259916  0.48373693  1
  In  In39  1  0.67208586  0.14585685  0.15622247  1
  In  In40  1  0.16672662  -0.02195540  0.17408643  1
  In  In41  1  0.02538765  -0.01297517  -0.01379832  1
  In  In42  1  0.17455295  0.29850865  0.13812446  1
  In  In43  1  0.64640479  0.67272615  0.01945012  1
  In  In44  1  0.48138073  0.64125533  0.18471107  1
  In  In45  1  0.66531505  0.21369349  0.48447461  1
  In  In46  1  0.02074220  0.65021713  0.02645320  1
  In  In47  1  0.18958699  0.34260345  0.82392673  1
  In  In48  1  0.66220121  0.35012741  0.35053521  1
  In  In49  1  0.82935745  0.67349450  0.82645314  1
  In  In50  1  0.63896106  0.49252054  0.81920569  1
  In  In51  1  0.83126374  -0.00145855  0.84695995  1
  In  In52  1  0.50988437  0.65572484  0.49845698  1
  In  In53  1  0.63687465  0.33060761  -0.03421694  1
  In  In54  1  0.32986561  0.32601614  0.32629637  1
  In  In55  1  0.18283418  0.34904291  0.53832863  1
  In  In56  1  0.18698152  0.14476288  0.32251644  1
  In  In57  1  0.67705826  0.83254950  0.47154238  1
  In  In58  1  0.65373403  0.01096421  0.33444717  1
  In  In59  1  0.01349606  0.29723287  -0.01309783  1
  In  In60  1  0.82194112  0.50950634  0.65777416  1
  In  In61  1  -0.00099936  0.84582198  0.49711974  1
  In  In62  1  0.88230135  0.29920867  0.79510440  1
  In  In63  1  0.84096441  0.15640219  0.01210177  1
  In  In64  1  0.29160717  0.70435261  -0.02190281  1
  In  In65  1  0.33037804  0.49293889  0.15926196  1
  In  In66  1  0.18927821  0.50292883  0.68703670  1
  In  In67  1  0.17562764  0.49113856  -0.00536102  1
  In  In68  1  0.65738558  0.53714383  0.20092447  1
  In  In69  1  -0.00599092  0.49815074  0.85263227  1
  In  In70  1  0.63654445  0.81539433  0.16662921  1
  In  In71  1  0.45819768  0.13800733  0.00999780  1
  Te  Te72  1  0.08925407  0.08276427  0.08305506  1
  Te  Te73  1  0.09249630  0.05455106  0.39916237  1
  Te  Te74  1  0.12105871  0.04428761  0.77874960  1
  Te  Te75  1  0.07048559  0.41399996  0.07745595  1
  Te  Te76  1  0.09249942  0.41894001  0.42362370  1
  Te  Te77  1  0.07762494  0.41884503  0.75441914  1
  Te  Te78  1  0.07922657  0.75992378  0.10441608  1
  Te  Te79  1  0.10932120  0.79692494  0.39229499  1
  Te  Te80  1  0.07452481  0.73787817  0.75145627  1
  Te  Te81  1  0.37634347  0.04838704  0.09869065  1
  Te  Te82  1  0.39997722  0.08328577  0.39721050  1
  Te  Te83  1  0.40173165  0.11942516  0.76887873  1
  Te  Te84  1  0.41244233  0.40707111  0.07450908  1
  Te  Te85  1  0.39206628  0.42796117  0.41167244  1
  Te  Te86  1  0.42008224  0.46141100  0.70865693  1
  Te  Te87  1  0.41255603  0.73234867  0.07633862  1
  Te  Te88  1  0.42453636  0.74324091  0.41424012  1
  Te  Te89  1  0.41077406  0.77226478  0.76448025  1
  Te  Te90  1  0.74026499  0.05352307  0.05789016  1
  Te  Te91  1  0.74514027  0.09872529  0.41892186  1
  Te  Te92  1  0.75053034  0.07887121  0.74130131  1
  Te  Te93  1  0.71315403  0.41124519  0.07596032  1
  Te  Te94  1  0.73529833  0.44885141  0.43474008  1
  Te  Te95  1  0.76226636  0.41535793  0.77024279  1
  Te  Te96  1  0.75331110  0.74137606  0.10067712  1
  Te  Te97  1  0.72468627  0.71444963  0.38033454  1
  Te  Te98  1  0.73922336  0.75559200  0.74619644  1
  Te  Te99  1  0.08812614  0.23475264  0.24613983  1
  Te  Te100  1  0.08289638  0.25716398  0.60368483  1
  Te  Te101  1  0.11617580  0.23210893  0.90204175  1
  Te  Te102  1  0.08506149  0.58925444  0.26805242  1
  Te  Te103  1  0.09996339  0.58769827  0.59415330  1
  Te  Te104  1  0.09800929  0.59224059  0.90978175  1
  Te  Te105  1  0.09709104  0.88742942  0.26589799  1
  Te  Te106  1  0.08153116  0.92680172  0.59511814  1
  Te  Te107  1  0.12074803  0.87844273  0.93797965  1
  Te  Te108  1  0.39959772  0.23399733  0.23788061  1
  Te  Te109  1  0.44324495  0.24994525  0.58399264  1
  Te  Te110  1  0.42466637  0.23268844  0.89190596  1
  Te  Te111  1  0.39946190  0.55530839  0.27337453  1
  Te  Te112  1  0.43250621  0.58789752  0.61317026  1
  Te  Te113  1  0.37338753  0.59608284  0.91694375  1
  Te  Te114  1  0.45271994  0.94580027  0.18330588  1
  Te  Te115  1  0.40506835  0.94629104  0.60198486  1
  Te  Te116  1  0.38294693  0.93397985  0.93466026  1
  Te  Te117  1  0.73977001  0.25503760  0.24834926  1
  Te  Te118  1  0.76566500  0.25162595  0.59195157  1
  Te  Te119  1  0.75602073  0.24291945  0.91971441  1
  Te  Te120  1  0.75857835  0.61421273  0.26659303  1
  Te  Te121  1  0.74304708  0.61840246  0.60072738  1
  Te  Te122  1  0.72990529  0.58486241  0.91584630  1
  Te  Te123  1  0.73601532  0.90956519  0.25460864  1
  Te  Te124  1  0.76675724  0.90789522  0.56812603  1
  Te  Te125  1  0.73036999  0.90818582  0.90191145  1
  Te  Te126  1  0.27718143  0.24192185  0.05197602  1
  Te  Te127  1  0.23255959  0.25012412  0.42970869  1
  Te  Te128  1  0.26926071  0.26886608  0.72355632  1
  Te  Te129  1  0.23449527  0.59557300  0.09276342  1
  Te  Te130  1  0.26240227  0.59361479  0.44878725  1
  Te  Te131  1  0.26553454  0.58897141  0.78053275  1
  Te  Te132  1  0.23654629  0.89201280  0.07573505  1
  Te  Te133  1  0.29374556  0.94247007  0.40052449  1
  Te  Te134  1  0.24414363  0.94427450  0.76982991  1
  Te  Te135  1  0.57700515  0.23395646  0.06813831  1
  Te  Te136  1  0.55539330  0.24763619  0.38880367  1
  Te  Te137  1  0.58996613  0.26252395  0.75194874  1
  Te  Te138  1  0.56315469  0.56453162  0.08102658  1
  Te  Te139  1  0.59098141  0.54131756  0.44858687  1
  Te  Te140  1  0.57347849  0.59648338  0.74060493  1
  Te  Te141  1  0.57986798  0.92280289  0.07991220  1
  Te  Te142  1  0.56414350  0.91527937  0.41307104  1
  Te  Te143  1  0.56739609  0.91445188  0.74854772  1
  Te  Te144  1  0.92710565  0.24209282  0.10269986  1
  Te  Te145  1  0.93662465  0.25506116  0.42033617  1
  Te  Te146  1  0.93946395  0.17795349  0.74354901  1
  Te  Te147  1  0.90884758  0.58132396  0.10543644  1
  Te  Te148  1  0.91690946  0.57460628  0.41190878  1
  Te  Te149  1  0.92188712  0.58276066  0.74845010  1
  Te  Te150  1  0.91517618  0.92031592  0.06974324  1
  Te  Te151  1  0.90804709  0.92644650  0.41524759  1
  Te  Te152  1  0.91852679  0.91732465  0.75012567  1
  Te  Te153  1  0.27090578  0.07877709  0.21896117  1
  Te  Te154  1  0.24766367  0.08602027  0.58945888  1
  Te  Te155  1  0.26496950  0.04190557  0.89089251  1
  Te  Te156  1  0.22224665  0.40510329  0.23749326  1
  Te  Te157  1  0.29020584  0.42472925  0.60803309  1
  Te  Te158  1  0.27598665  0.41874324  0.91626610  1
  Te  Te159  1  0.29342429  0.75434458  0.27498313  1
  Te  Te160  1  0.24857185  0.77145527  0.58025479  1
  Te  Te161  1  0.23101085  0.78972980  0.87252098  1
  Te  Te162  1  0.56872328  0.08965837  0.24351254  1
  Te  Te163  1  0.60315601  0.08801160  0.56855507  1
  Te  Te164  1  0.56695929  0.07324798  0.92221902  1
  Te  Te165  1  0.57093598  0.42726874  0.25738343  1
  Te  Te166  1  0.59519211  0.43603301  0.56486071  1
  Te  Te167  1  0.53475281  0.42563648  0.90627255  1
  Te  Te168  1  0.55303207  0.74289658  0.26241221  1
  Te  Te169  1  0.59903264  0.75448970  0.57600761  1
  Te  Te170  1  0.58053134  0.75783282  0.91511622  1
  Te  Te171  1  0.92337110  0.07746841  0.24653287  1
  Te  Te172  1  0.92966864  0.07494878  0.55815910  1
  Te  Te173  1  0.93443683  0.08814306  0.91458345  1
  Te  Te174  1  0.88552369  0.42048643  0.26706626  1
  Te  Te175  1  0.91733974  0.40912261  0.59449170  1
  Te  Te176  1  0.91079094  0.40784219  0.94259946  1
  Te  Te177  1  0.93551870  0.76719155  0.24076530  1
  Te  Te178  1  0.93740495  0.73178966  0.57572560  1
  Te  Te179  1  0.92021928  0.73453628  0.93206179  1
