# generated using pymatgen
data_In2Te3
_symmetry_space_group_name_H-M   'P 1'
_cell_length_a   18.76314972
_cell_length_b   18.76111655
_cell_length_c   18.76686808
_cell_angle_alpha   90.00293746
_cell_angle_beta   89.93936857
_cell_angle_gamma   89.98415229
_symmetry_Int_Tables_number   1
_chemical_formula_structural   In2Te3
_chemical_formula_sum   'In72 Te108'
_cell_volume   6606.26463075
_cell_formula_units_Z   36
loop_
 _symmetry_equiv_pos_site_id
 _symmetry_equiv_pos_as_xyz
  1  'x, y, z'
loop_
 _atom_site_type_symbol
 _atom_site_label
 _atom_site_symmetry_multiplicity
 _atom_site_fract_x
 _atom_site_fract_y
 _atom_site_fract_z
 _atom_site_occupancy
  In  In0  1  -0.00108348  -0.01415960  0.35415665  1
  In  In1  1  0.33104132  0.53009563  0.50930483  1
  In  In2  1  0.16275716  0.33566870  0.17601324  1
  In  In3  1  0.83950987  0.33095974  0.49764873  1
  In  In4  1  0.34369829  0.68211078  0.36268898  1
  In  In5  1  0.64734503  0.51153080  0.81398124  1
  In  In6  1  0.33341708  0.50286159  0.82622269  1
  In  In7  1  0.17581154  0.34219251  0.48379110  1
  In  In8  1  0.52150480  0.69866931  0.21232919  1
  In  In9  1  0.18038689  0.00607094  0.17837822  1
  In  In10  1  0.01572081  0.51627097  0.48897385  1
  In  In11  1  0.00220930  0.14964507  0.48943573  1
  In  In12  1  0.17581582  0.69973772  0.81234798  1
  In  In13  1  0.48339647  0.16333023  0.32901381  1
  In  In14  1  0.81952949  0.16209909  0.01647341  1
  In  In15  1  0.81060288  0.34608395  0.85195660  1
  In  In16  1  0.68276019  0.66725294  0.00557691  1
  In  In17  1  -0.02614599  0.52018461  0.81480570  1
  In  In18  1  0.35107337  0.00730502  -0.01212627  1
  In  In19  1  0.66254483  -0.01735453  0.33832545  1
  In  In20  1  0.16191846  0.67925962  0.49191339  1
  In  In21  1  0.32040007  -0.02609220  0.67763073  1
  In  In22  1  0.49193851  0.83808301  -0.00444689  1
  In  In23  1  0.29947404  0.68192536  -0.01223990  1
  In  In24  1  0.82066293  0.67068584  0.19680828  1
  In  In25  1  0.18650202  0.15353639  -0.00137965  1
  In  In26  1  0.01449277  0.66015274  0.01987359  1
  In  In27  1  0.16283023  0.67021382  0.16730900  1
  In  In28  1  -0.00471931  -0.02997988  -0.01590312  1
  In  In29  1  0.01657651  -0.04103980  0.63736047  1
  In  In30  1  0.49780757  0.67061414  0.80613424  1
  In  In31  1  -0.00591014  0.17038254  0.17653908  1
  In  In32  1  0.83662834  0.48554821  -0.00937613  1
  In  In33  1  0.33217537  0.17580258  0.51829728  1
  In  In34  1  0.14754059  0.32572084  0.82105030  1
  In  In35  1  0.67397551  0.51467783  0.17664003  1
  In  In36  1  0.83484472  0.66960445  0.50044209  1
  In  In37  1  0.66373435  0.52433984  0.49710990  1
  In  In38  1  0.33052089  0.33048558  0.31228953  1
  In  In39  1  0.01646084  0.16366877  0.81006651  1
  In  In40  1  0.35051117  0.69065560  0.65345581  1
  In  In41  1  0.67515036  0.34019037  0.31781907  1
  In  In42  1  0.65270774  0.12647500  0.49271249  1
  In  In43  1  0.81204364  0.14763994  0.67652881  1
  In  In44  1  0.64579013  0.28459242  0.02364638  1
  In  In45  1  0.31228402  -0.02670902  0.35509890  1
  In  In46  1  0.01584720  0.49815593  0.18970964  1
  In  In47  1  0.81364277  0.16432844  0.34947823  1
  In  In48  1  0.17959556  0.14939758  0.67029492  1
  In  In49  1  0.48743941  0.31947709  0.50855944  1
  In  In50  1  -0.00020658  0.82241810  0.15868644  1
  In  In51  1  -0.00202230  0.34793418  0.66032375  1
  In  In52  1  0.83594017  0.84117187  0.34211336  1
  In  In53  1  0.81020848  0.84705060  0.62565317  1
  In  In54  1  0.64877031  0.86681414  0.80951555  1
  In  In55  1  0.49494411  0.47843808  0.00401404  1
  In  In56  1  0.35857865  0.15326837  0.82859885  1
  In  In57  1  0.50939591  -0.03575271  0.50575790  1
  In  In58  1  0.01841863  0.82390621  0.81988983  1
  In  In59  1  0.16537486  0.51139826  0.01578029  1
  In  In60  1  0.48856369  -0.00254679  0.18297201  1
  In  In61  1  0.35396988  0.34124334  0.64226594  1
  In  In62  1  0.82681005  0.69913919  0.79776345  1
  In  In63  1  0.66135490  0.33123547  0.68494749  1
  In  In64  1  0.62406908  0.03061232  -0.00651723  1
  In  In65  1  0.51782219  0.50925054  0.34882000  1
  In  In66  1  0.82056382  -0.00163026  0.83390418  1
  In  In67  1  0.84144304  0.34219051  0.18101836  1
  In  In68  1  0.34412791  0.84099569  0.17565146  1
  In  In69  1  0.33013346  0.32581473  0.01657587  1
  In  In70  1  0.48591187  0.33136111  0.82887112  1
  In  In71  1  0.83447328  0.82111801  0.02177929  1
  Te  Te72  1  0.07838929  0.07361925  0.07773255  1
  Te  Te73  1  0.10231918  0.07550663  0.41104386  1
  Te  Te74  1  0.08925894  0.04874468  0.74168583  1
  Te  Te75  1  0.06993199  0.41095686  0.07671282  1
  Te  Te76  1  0.07533955  0.40988665  0.40196832  1
  Te  Te77  1  0.08892916  0.44019974  0.74142755  1
  Te  Te78  1  0.10970556  0.77029563  0.06343488  1
  Te  Te79  1  0.08530193  0.79330516  0.42732900  1
  Te  Te80  1  0.07775191  0.74351807  0.70971987  1
  Te  Te81  1  0.43254605  0.09319685  0.08088235  1
  Te  Te82  1  0.42168536  0.07440016  0.43661445  1
  Te  Te83  1  0.43135010  0.04673014  0.75112078  1
  Te  Te84  1  0.39857930  0.42617220  0.10166980  1
  Te  Te85  1  0.40843244  0.41806008  0.42173751  1
  Te  Te86  1  0.43470742  0.43711006  0.73205025  1
  Te  Te87  1  0.41917901  0.73962744  0.08747062  1
  Te  Te88  1  0.41838396  0.76886710  0.46290388  1
  Te  Te89  1  0.42556227  0.78329694  0.74449580  1
  Te  Te90  1  0.73247528  0.06732208  0.08704752  1
  Te  Te91  1  0.77390644  0.04510737  0.44270973  1
  Te  Te92  1  0.71373482  0.07584272  0.76394203  1
  Te  Te93  1  0.73671371  0.40786506  0.07705051  1
  Te  Te94  1  0.75390862  0.42687986  0.41431738  1
  Te  Te95  1  0.76056307  0.43477186  0.73969691  1
  Te  Te96  1  0.72856208  0.76276515  0.11560082  1
  Te  Te97  1  0.73770309  0.74990850  0.41317404  1
  Te  Te98  1  0.71702569  0.76550820  0.71510890  1
  Te  Te99  1  0.08517049  0.24448135  0.26452715  1
  Te  Te100  1  0.09075007  0.24538598  0.58941699  1
  Te  Te101  1  0.08101779  0.24033043  0.92792046  1
  Te  Te102  1  0.07472185  0.60793084  0.26865282  1
  Te  Te103  1  0.08982070  0.59445043  0.59135636  1
  Te  Te104  1  0.09168756  0.58916778  0.90556456  1
  Te  Te105  1  0.08698316  0.90945589  0.24982496  1
  Te  Te106  1  0.11675874  0.90238290  0.54055966  1
  Te  Te107  1  0.10417384  0.90833756  0.90723248  1
  Te  Te108  1  0.43340252  0.26022830  0.22671945  1
  Te  Te109  1  0.44343056  0.21821510  0.61423517  1
  Te  Te110  1  0.42676042  0.23941458  0.93580320  1
  Te  Te111  1  0.42275438  0.59402341  0.26227741  1
  Te  Te112  1  0.44398180  0.59078410  0.58667437  1
  Te  Te113  1  0.41873003  0.58965113  0.91923879  1
  Te  Te114  1  0.42973335  0.90089692  0.28678108  1
  Te  Te115  1  0.39425128  0.89084844  0.57077953  1
  Te  Te116  1  0.43658887  0.92966565  0.89369554  1
  Te  Te117  1  0.74450121  0.23501717  0.23148098  1
  Te  Te118  1  0.74055596  0.24151978  0.57584146  1
  Te  Te119  1  0.73382184  0.22908987  0.90828900  1
  Te  Te120  1  0.73701607  0.58805532  0.28711931  1
  Te  Te121  1  0.74518249  0.59703707  0.59618721  1
  Te  Te122  1  0.76138963  0.58746504  0.89912874  1
  Te  Te123  1  0.76241448  0.92595463  0.24442353  1
  Te  Te124  1  0.72764419  0.95281519  0.56386907  1
  Te  Te125  1  0.74460856  0.90662219  0.92984827  1
  Te  Te126  1  0.25546636  0.23019009  0.10930441  1
  Te  Te127  1  0.25055604  0.23517947  0.40403101  1
  Te  Te128  1  0.26586914  0.25823296  0.74939526  1
  Te  Te129  1  0.26850396  0.57966212  0.10112941  1
  Te  Te130  1  0.23679002  0.57717280  0.40101275  1
  Te  Te131  1  0.25655411  0.59420237  0.73480614  1
  Te  Te132  1  0.25977194  0.92121656  0.07695257  1
  Te  Te133  1  0.22342438  0.87437384  0.42507667  1
  Te  Te134  1  0.23929742  0.88257230  0.76203038  1
  Te  Te135  1  0.54104488  0.22164562  0.10366538  1
  Te  Te136  1  0.58970465  0.25181689  0.41281151  1
  Te  Te137  1  0.57809205  0.23259618  0.76153145  1
  Te  Te138  1  0.57618982  0.59089433  0.08496938  1
  Te  Te139  1  0.56312664  0.62394284  0.43757829  1
  Te  Te140  1  0.58928562  0.59988940  0.71110518  1
  Te  Te141  1  0.58024946  0.91403473  0.09306138  1
  Te  Te142  1  0.60083654  0.87363095  0.42440130  1
  Te  Te143  1  0.56091302  0.92932963  0.70865748  1
  Te  Te144  1  0.91881383  0.26078799  0.07693194  1
  Te  Te145  1  0.92849199  0.25234339  0.40196154  1
  Te  Te146  1  0.90887338  0.25496748  0.74696316  1
  Te  Te147  1  0.90103882  0.58332512  0.09011221  1
  Te  Te148  1  0.92298381  0.59681020  0.40477924  1
  Te  Te149  1  0.91940872  0.61596829  0.71765559  1
  Te  Te150  1  0.90645630  0.93025109  0.10140805  1
  Te  Te151  1  0.93092378  0.88919453  0.45046811  1
  Te  Te152  1  0.90657947  0.90901193  0.74522654  1
  Te  Te153  1  0.28130744  0.07959486  0.25685525  1
  Te  Te154  1  0.24572188  0.06082143  0.56761167  1
  Te  Te155  1  0.24582771  0.06894858  0.88861767  1
  Te  Te156  1  0.24263102  0.43342613  0.25406682  1
  Te  Te157  1  0.24249773  0.43082505  0.58838796  1
  Te  Te158  1  0.24606040  0.41185155  0.91559101  1
  Te  Te159  1  0.25169038  0.75482096  0.25994508  1
  Te  Te160  1  0.24934243  0.77137560  0.57538969  1
  Te  Te161  1  0.27726145  0.78821481  0.88231866  1
  Te  Te162  1  0.59277279  0.08826191  0.25331230  1
  Te  Te163  1  0.58949551  0.04839082  0.60715390  1
  Te  Te164  1  0.58272284  0.10932490  0.87761869  1
  Te  Te165  1  0.57120800  0.41727965  0.23729510  1
  Te  Te166  1  0.58906588  0.41097550  0.57626037  1
  Te  Te167  1  0.59715002  0.40714190  0.91492284  1
  Te  Te168  1  0.61645682  0.76492858  0.30298174  1
  Te  Te169  1  0.53589692  0.72980379  0.55217749  1
  Te  Te170  1  0.59391875  0.74780480  0.91007745  1
  Te  Te171  1  0.90893611  0.07871333  0.26390065  1
  Te  Te172  1  0.92278336  0.07487164  0.59620133  1
  Te  Te173  1  0.91937718  0.08874483  0.91164819  1
  Te  Te174  1  0.91241869  0.43229344  0.27248950  1
  Te  Te175  1  0.90761513  0.43774685  0.58031588  1
  Te  Te176  1  0.93889839  0.40515657  0.91021423  1
  Te  Te177  1  0.93475703  0.74050440  0.26903685  1
  Te  Te178  1  0.92527110  0.76956816  0.57006350  1
  Te  Te179  1  0.91979681  0.74222922  0.92131873  1
