# generated using pymatgen
data_In2Te3
_symmetry_space_group_name_H-M   'P 1'
_cell_length_a   18.96680249
_cell_length_b   18.96367863
_cell_length_c   18.95727261
_cell_angle_alpha   90.00980373
_cell_angle_beta   90.10936787
_cell_angle_gamma   90.02180673
_symmetry_Int_Tables_number   1
_chemical_formula_structural   In2Te3
_chemical_formula_sum   'In72 Te108'
_cell_volume   6818.54537334
_cell_formula_units_Z   36
loop_
 _symmetry_equiv_pos_site_id
 _symmetry_equiv_pos_as_xyz
  1  'x, y, z'
loop_
 _atom_site_type_symbol
 _atom_site_label
 _atom_site_symmetry_multiplicity
 _atom_site_fract_x
 _atom_site_fract_y
 _atom_site_fract_z
 _atom_site_occupancy
  In  In0  1  -0.00310987  0.68907651  0.68048682  1
  In  In1  1  0.16004516  0.00091872  0.84036792  1
  In  In2  1  0.65339483  0.66990454  0.66161104  1
  In  In3  1  0.34230850  0.02516310  0.66554205  1
  In  In4  1  0.66098527  0.31389080  -0.01724607  1
  In  In5  1  0.02295595  0.03801009  0.36771093  1
  In  In6  1  0.85499841  0.15665145  0.01465190  1
  In  In7  1  0.85296791  0.67788403  0.50314961  1
  In  In8  1  -0.01655406  0.66076349  0.00623082  1
  In  In9  1  0.84318302  0.67533520  0.15594806  1
  In  In10  1  0.18503260  0.33851312  0.83076437  1
  In  In11  1  0.51076502  0.03320487  0.18859704  1
  In  In12  1  0.82874384  0.15447668  0.63586018  1
  In  In13  1  0.17899743  0.51103806  0.32352334  1
  In  In14  1  0.15262454  0.31982498  0.51787413  1
  In  In15  1  0.81993360  0.16397017  0.36866157  1
  In  In16  1  0.49683315  0.47430699  -0.01553121  1
  In  In17  1  0.52884113  0.64445830  0.83699779  1
  In  In18  1  0.30988040  0.65156708  0.03357360  1
  In  In19  1  0.81667478  0.33074436  0.80649012  1
  In  In20  1  0.49443561  0.86078593  0.34374025  1
  In  In21  1  0.17258658  0.49652008  0.68023073  1
  In  In22  1  0.03654847  0.65811604  0.35190925  1
  In  In23  1  0.32532563  0.33064783  0.65705086  1
  In  In24  1  0.00518810  0.33604933  0.02263569  1
  In  In25  1  0.69329249  0.68865701  0.32291180  1
  In  In26  1  0.64594334  0.48384194  0.49472718  1
  In  In27  1  0.50274581  0.01485121  0.51037396  1
  In  In28  1  0.16603458  0.00440199  0.17879349  1
  In  In29  1  0.83434150  0.02153932  0.82009695  1
  In  In30  1  0.31484398  -0.01078625  0.01976257  1
  In  In31  1  0.35223575  0.32408436  -0.01345033  1
  In  In32  1  0.82300546  0.49068632  0.31840473  1
  In  In33  1  0.84331023  0.50551064  0.66374983  1
  In  In34  1  0.00696828  0.47849558  0.19880169  1
  In  In35  1  0.48731838  0.83519146  0.00983410  1
  In  In36  1  0.32588920  0.14868795  0.17058481  1
  In  In37  1  0.17721357  0.69669005  0.50755619  1
  In  In38  1  0.65411349  0.18300579  0.79918475  1
  In  In39  1  0.85486759  0.86465958  0.34496368  1
  In  In40  1  0.34379286  0.34949967  0.32477534  1
  In  In41  1  0.00539274  0.82312642  0.17597685  1
  In  In42  1  0.49450735  0.31626328  0.14393637  1
  In  In43  1  0.78499095  0.70142582  -0.03923063  1
  In  In44  1  0.81556078  0.87335500  0.63894990  1
  In  In45  1  0.01765435  0.28484890  0.33564187  1
  In  In46  1  0.65024157  0.47629045  0.13005820  1
  In  In47  1  0.48767139  0.83789938  0.64756456  1
  In  In48  1  0.65975532  0.15693082  0.51510445  1
  In  In49  1  0.32661063  0.82093413  0.82643059  1
  In  In50  1  0.03469830  -0.01618697  0.03890135  1
  In  In51  1  0.49672116  0.01301461  0.80719102  1
  In  In52  1  0.13895270  0.67858416  0.85881544  1
  In  In53  1  0.51273584  0.32057147  0.47675270  1
  In  In54  1  0.02530597  -0.01615544  0.64262226  1
  In  In55  1  0.30365792  -0.02106460  0.34724761  1
  In  In56  1  0.34188552  0.48438322  0.83625238  1
  In  In57  1  0.49600396  0.50396305  0.31888272  1
  In  In58  1  0.67623300  0.30878920  0.34338790  1
  In  In59  1  0.84223290  -0.00074488  0.18026624  1
  In  In60  1  0.00823423  0.48542711  0.51319441  1
  In  In61  1  0.16400090  0.14943063  0.01606056  1
  In  In62  1  0.47928061  0.67146716  0.48958881  1
  In  In63  1  0.67193634  0.83555084  0.81356049  1
  In  In64  1  -0.00249458  0.15980207  0.82685447  1
  In  In65  1  0.33298874  0.16603024  0.48654484  1
  In  In66  1  0.65665748  -0.01030604  -0.01051766  1
  In  In67  1  0.29014821  0.70127433  0.31335154  1
  In  In68  1  0.50220452  0.66214468  0.17718147  1
  In  In69  1  0.34011986  0.64287241  0.65506984  1
  In  In70  1  0.81907414  0.48878596  -0.01589612  1
  In  In71  1  0.01996014  0.49588089  0.82471900  1
  Te  Te72  1  0.06344107  0.11412200  0.12473817  1
  Te  Te73  1  0.11724546  0.09987721  0.46897209  1
  Te  Te74  1  0.09231802  0.08787077  0.73485886  1
  Te  Te75  1  0.09881382  0.40152102  0.11478249  1
  Te  Te76  1  0.08624366  0.41530178  0.40383320  1
  Te  Te77  1  0.07740478  0.39152093  0.73135329  1
  Te  Te78  1  0.07887685  0.75003190  0.07333010  1
  Te  Te79  1  0.08254530  0.77839390  0.42513544  1
  Te  Te80  1  0.09240241  0.76994677  0.75511735  1
  Te  Te81  1  0.42023735  0.08490785  0.07130631  1
  Te  Te82  1  0.41258400  0.07212743  0.39996293  1
  Te  Te83  1  0.40555360  0.11912784  0.76111089  1
  Te  Te84  1  0.40638252  0.42766440  0.09424609  1
  Te  Te85  1  0.41998037  0.43113309  0.42740628  1
  Te  Te86  1  0.42089762  0.40825699  0.74103588  1
  Te  Te87  1  0.40393395  0.75187008  0.10343206  1
  Te  Te88  1  0.39530572  0.76607581  0.40824142  1
  Te  Te89  1  0.43503503  0.74194735  0.75342460  1
  Te  Te90  1  0.74942289  0.07115063  0.08016020  1
  Te  Te91  1  0.74616705  0.05603308  0.44413192  1
  Te  Te92  1  0.73228580  0.07594072  0.72488702  1
  Te  Te93  1  0.75791927  0.38550419  0.07930512  1
  Te  Te94  1  0.75835856  0.40589700  0.42595944  1
  Te  Te95  1  0.74017625  0.43709105  0.74348900  1
  Te  Te96  1  0.74021594  0.75320177  0.08962644  1
  Te  Te97  1  0.75934930  0.77152430  0.42921013  1
  Te  Te98  1  0.76195335  0.75347076  0.72479594  1
  Te  Te99  1  0.10460659  0.20918517  0.24677268  1
  Te  Te100  1  0.05190207  0.21479211  0.54385777  1
  Te  Te101  1  0.08639514  0.24501415  0.91817494  1
  Te  Te102  1  0.09783081  0.60742355  0.22230496  1
  Te  Te103  1  0.08478341  0.59288238  0.58996182  1
  Te  Te104  1  0.08478993  0.56296744  0.94238655  1
  Te  Te105  1  0.06524273  0.93053008  0.26426197  1
  Te  Te106  1  0.11869267  0.92500533  0.54392789  1
  Te  Te107  1  0.09072989  0.90681746  0.92843236  1
  Te  Te108  1  0.41845597  0.24083749  0.25038306  1
  Te  Te109  1  0.42421403  0.24554399  0.57690122  1
  Te  Te110  1  0.42894662  0.25776866  0.88313915  1
  Te  Te111  1  0.39362023  0.59585116  0.25871558  1
  Te  Te112  1  0.44155201  0.56531112  0.58468309  1
  Te  Te113  1  0.41076830  0.59550304  0.92214695  1
  Te  Te114  1  0.40782547  0.93462627  0.24351942  1
  Te  Te115  1  0.39415795  0.92185412  0.56528824  1
  Te  Te116  1  0.41371727  0.92365257  0.90919563  1
  Te  Te117  1  0.73874697  0.21170416  0.24950252  1
  Te  Te118  1  0.73467107  0.26039740  0.58991286  1
  Te  Te119  1  0.76762680  0.22183291  0.90416574  1
  Te  Te120  1  0.72917421  0.57114122  0.22952440  1
  Te  Te121  1  0.74628914  0.58587898  0.56154292  1
  Te  Te122  1  0.73112393  0.57665654  0.90735147  1
  Te  Te123  1  0.74997044  0.91667966  0.25870498  1
  Te  Te124  1  0.72247809  0.94149095  0.54742019  1
  Te  Te125  1  0.76063976  0.91880346  0.90498083  1
  Te  Te126  1  0.25671386  0.24944634  0.08129432  1
  Te  Te127  1  0.24928239  0.26805006  0.41316422  1
  Te  Te128  1  0.23472504  0.24346092  0.73263647  1
  Te  Te129  1  0.22642969  0.59034270  0.13503357  1
  Te  Te130  1  0.25402478  0.59626199  0.42266327  1
  Te  Te131  1  0.24364968  0.59266423  0.77270198  1
  Te  Te132  1  0.24147633  0.89460071  0.10954512  1
  Te  Te133  1  0.20473131  0.89405273  0.41825784  1
  Te  Te134  1  0.25512882  0.92608747  0.74686400  1
  Te  Te135  1  0.58355358  0.22778781  0.07115548  1
  Te  Te136  1  0.57211175  0.20819296  0.39252235  1
  Te  Te137  1  0.55153949  0.28946771  0.79290873  1
  Te  Te138  1  0.57136633  0.58645712  0.06588235  1
  Te  Te139  1  0.58943901  0.59552978  0.39880897  1
  Te  Te140  1  0.57052403  0.56456042  0.72198723  1
  Te  Te141  1  0.57369502  0.92341928  0.09681727  1
  Te  Te142  1  0.59436927  0.92740240  0.43147627  1
  Te  Te143  1  0.58692698  0.92356249  0.72422697  1
  Te  Te144  1  0.91461069  0.25523972  0.10411549  1
  Te  Te145  1  0.92273898  0.24436759  0.44328331  1
  Te  Te146  1  0.91398629  0.24073807  0.73153409  1
  Te  Te147  1  0.90725469  0.55017791  0.09878747  1
  Te  Te148  1  0.91782548  0.57034661  0.41013872  1
  Te  Te149  1  0.91865741  0.59110679  0.76525344  1
  Te  Te150  1  0.91363397  0.90425434  0.08528735  1
  Te  Te151  1  0.92722718  0.94958404  0.44439252  1
  Te  Te152  1  0.91800711  0.92557887  0.74053408  1
  Te  Te153  1  0.23033174  0.10075771  0.27964799  1
  Te  Te154  1  0.24058279  0.08448411  0.57120422  1
  Te  Te155  1  0.25927806  0.08763091  0.91707586  1
  Te  Te156  1  0.24613432  0.41485367  0.23571248  1
  Te  Te157  1  0.24687961  0.42905031  0.56909879  1
  Te  Te158  1  0.24648052  0.42589810  0.93719741  1
  Te  Te159  1  0.22467363  0.80918314  0.24007359  1
  Te  Te160  1  0.26634740  0.75788910  0.60597471  1
  Te  Te161  1  0.24763545  0.75399380  0.93575868  1
  Te  Te162  1  0.61094973  0.11012181  0.26157842  1
  Te  Te163  1  0.55455276  0.11190616  0.60793254  1
  Te  Te164  1  0.58531818  0.09023746  0.90293870  1
  Te  Te165  1  0.58617989  0.40124000  0.25287299  1
  Te  Te166  1  0.60160822  0.37458116  0.58313906  1
  Te  Te167  1  0.59861683  0.41665560  0.89492790  1
  Te  Te168  1  0.57993021  0.76459961  0.25710151  1
  Te  Te169  1  0.58243860  0.75768512  0.56055606  1
  Te  Te170  1  0.58339963  0.76408511  0.91495268  1
  Te  Te171  1  0.91602475  0.09346017  0.27265647  1
  Te  Te172  1  0.91821663  0.05702365  0.56518632  1
  Te  Te173  1  0.94329340  0.06181358  0.93003343  1
  Te  Te174  1  0.91255786  0.38096147  0.26631651  1
  Te  Te175  1  0.91824110  0.40265276  0.59107652  1
  Te  Te176  1  0.92058833  0.40278619  0.90392239  1
  Te  Te177  1  0.91715824  0.73366291  0.27310749  1
  Te  Te178  1  0.92887218  0.78072852  0.58110838  1
  Te  Te179  1  0.91365389  0.74556149  0.91019921  1
