# generated using pymatgen
data_In2Te3
_symmetry_space_group_name_H-M   'P 1'
_cell_length_a   18.81144521
_cell_length_b   18.82043255
_cell_length_c   18.81933093
_cell_angle_alpha   89.89267390
_cell_angle_beta   89.94302098
_cell_angle_gamma   89.99765507
_symmetry_Int_Tables_number   1
_chemical_formula_structural   In2Te3
_chemical_formula_sum   'In72 Te108'
_cell_volume   6662.77219751
_cell_formula_units_Z   36
loop_
 _symmetry_equiv_pos_site_id
 _symmetry_equiv_pos_as_xyz
  1  'x, y, z'
loop_
 _atom_site_type_symbol
 _atom_site_label
 _atom_site_symmetry_multiplicity
 _atom_site_fract_x
 _atom_site_fract_y
 _atom_site_fract_z
 _atom_site_occupancy
  In  In0  1  0.85115083  0.49137620  0.68041808  1
  In  In1  1  0.15457277  0.84855679  0.34410893  1
  In  In2  1  0.12777527  0.80977395  0.67148421  1
  In  In3  1  0.85282155  0.50291559  0.01265304  1
  In  In4  1  0.12962313  -0.04648602  0.84792726  1
  In  In5  1  0.85806211  -0.00488848  0.51500826  1
  In  In6  1  0.68311910  0.16416232  0.50403812  1
  In  In7  1  0.31887148  0.00634064  0.67279454  1
  In  In8  1  0.46598841  -0.01569290  0.84353401  1
  In  In9  1  0.16489399  0.35456051  0.81061593  1
  In  In10  1  0.67617297  0.49915265  0.17594833  1
  In  In11  1  0.00925211  0.67974224  0.34952674  1
  In  In12  1  0.84358169  0.35592725  0.17075024  1
  In  In13  1  0.15605751  0.66542031  0.87531558  1
  In  In14  1  0.01482621  0.17048692  0.17616170  1
  In  In15  1  0.83259339  0.82269275  0.01077649  1
  In  In16  1  0.31002117  0.84524110  0.49369512  1
  In  In17  1  0.66775405  0.81430251  0.81081964  1
  In  In18  1  0.82727403  0.33175633  0.83139371  1
  In  In19  1  0.48227044  0.16733440  0.32614554  1
  In  In20  1  0.52926593  0.31873031  0.83014054  1
  In  In21  1  0.15998089  0.17010955  0.64896499  1
  In  In22  1  -0.01407562  0.00262709  0.64275559  1
  In  In23  1  0.85821143  0.32284213  0.50559387  1
  In  In24  1  0.51580178  0.51191109  0.65624723  1
  In  In25  1  0.33384708  0.65959963  0.33105549  1
  In  In26  1  0.87342972  -0.01808293  0.84078878  1
  In  In27  1  -0.01035937  0.15514351  0.83904534  1
  In  In28  1  0.16850907  0.17037050  0.01025784  1
  In  In29  1  0.47921600  0.84500537  0.00417891  1
  In  In30  1  0.65822019  -0.00616758  0.33210737  1
  In  In31  1  0.35028746  0.13646764  0.85367909  1
  In  In32  1  0.50667562  0.69406489  0.18247100  1
  In  In33  1  0.00053433  0.83139477  0.17294242  1
  In  In34  1  0.32516303  0.50317991  0.15700596  1
  In  In35  1  0.52650921  0.19229034  0.02937810  1
  In  In36  1  0.66201262  0.18994055  0.83472714  1
  In  In37  1  0.32185844  0.32287598  0.34943837  1
  In  In38  1  0.85528470  0.65676941  0.84859699  1
  In  In39  1  0.15552406  0.51586839  0.34105460  1
  In  In40  1  0.48270286  0.02137445  0.16261631  1
  In  In41  1  0.49978744  0.49309443  -0.01567577  1
  In  In42  1  0.51470623  0.81620958  0.63943637  1
  In  In43  1  0.67219199  0.01295005  0.65302691  1
  In  In44  1  0.13672493  0.53070737  0.64636591  1
  In  In45  1  0.83903788  0.19667345  0.32964286  1
  In  In46  1  0.33578056  0.85203573  0.16131892  1
  In  In47  1  0.66317533  0.65997735  0.65111307  1
  In  In48  1  0.31241767  0.31852104  0.01762121  1
  In  In49  1  0.83424102  0.80342945  0.38001901  1
  In  In50  1  0.17383618  0.31689467  0.46218601  1
  In  In51  1  0.66401639  0.35196884  0.32270168  1
  In  In52  1  0.86578321  0.49587787  0.32425199  1
  In  In53  1  0.86396309  0.82036705  0.62564969  1
  In  In54  1  0.15696907  0.66647040  0.15391428  1
  In  In55  1  0.48607608  0.65257794  0.80727588  1
  In  In56  1  0.67569324  0.80139589  0.17029445  1
  In  In57  1  0.66541640  0.52687286  0.48021360  1
  In  In58  1  0.32858463  0.32434223  0.66162311  1
  In  In59  1  0.66759195  0.00474300  0.00780967  1
  In  In60  1  0.49230546  0.34501834  0.50145394  1
  In  In61  1  0.32644319  0.50916808  0.49684068  1
  In  In62  1  0.67527107  0.66954196  -0.00802801  1
  In  In63  1  0.31283800  0.18173384  0.46117195  1
  In  In64  1  0.50666075  0.83660831  0.31998477  1
  In  In65  1  0.83951972  0.15573656  0.67570433  1
  In  In66  1  0.18453961  0.03157277  0.18200274  1
  In  In67  1  0.33191588  0.65334215  0.66275018  1
  In  In68  1  0.34039738  -0.00333545  0.01754631  1
  In  In69  1  0.00390959  0.35234842  0.01557861  1
  In  In70  1  0.33260968  0.48541772  0.84703338  1
  In  In71  1  0.82199358  0.02151628  0.18495222  1
  Te  Te72  1  0.07610729  0.07011617  0.07644798  1
  Te  Te73  1  0.03204080  0.02900291  0.47761819  1
  Te  Te74  1  0.08363798  0.07447794  0.74644436  1
  Te  Te75  1  0.07669435  0.46704865  0.07568813  1
  Te  Te76  1  0.07542589  0.41842556  0.41794647  1
  Te  Te77  1  0.06763865  0.44399321  0.74656008  1
  Te  Te78  1  0.08956409  0.77126264  0.06824829  1
  Te  Te79  1  0.07513217  0.77381625  0.44785692  1
  Te  Te80  1  0.06653072  0.70479225  0.75910549  1
  Te  Te81  1  0.39814950  0.11974499  0.08388991  1
  Te  Te82  1  0.41396737  0.08069818  0.42336368  1
  Te  Te83  1  0.43217942  0.08957541  0.73470185  1
  Te  Te84  1  0.41883297  0.40691381  0.08147287  1
  Te  Te85  1  0.41774035  0.43202187  0.40284282  1
  Te  Te86  1  0.42137496  0.41994662  0.73998291  1
  Te  Te87  1  0.39967383  0.73951052  0.08234621  1
  Te  Te88  1  0.41154876  0.75930458  0.41408807  1
  Te  Te89  1  0.40950152  0.76241751  0.73768787  1
  Te  Te90  1  0.74676105  0.10037151  0.08522573  1
  Te  Te91  1  0.76881713  0.07749053  0.41094973  1
  Te  Te92  1  0.75776404  0.06495894  0.76921214  1
  Te  Te93  1  0.74341951  0.41177662  0.06923200  1
  Te  Te94  1  0.76376890  0.41448138  0.41875509  1
  Te  Te95  1  0.74174754  0.41247026  0.74234360  1
  Te  Te96  1  0.77655730  0.71052870  0.09800045  1
  Te  Te97  1  0.73711064  0.73279406  0.46334984  1
  Te  Te98  1  0.77424304  0.74075575  0.73435849  1
  Te  Te99  1  0.11513996  0.25516563  0.24494900  1
  Te  Te100  1  0.08883716  0.27647919  0.57830073  1
  Te  Te101  1  0.08573181  0.25590330  0.91187591  1
  Te  Te102  1  0.06186443  0.58442800  0.24037467  1
  Te  Te103  1  0.04017051  0.59561655  0.55242842  1
  Te  Te104  1  0.06830548  0.57203825  0.95517741  1
  Te  Te105  1  0.07831208  0.93936461  0.24940094  1
  Te  Te106  1  0.09675740  0.92340216  0.57438819  1
  Te  Te107  1  0.04711905  0.86977714  0.93539627  1
  Te  Te108  1  0.40682518  0.26370065  0.24380774  1
  Te  Te109  1  0.41160328  0.23697391  0.57138526  1
  Te  Te110  1  0.41348367  0.26112650  0.91549102  1
  Te  Te111  1  0.42700456  0.57829496  0.24547372  1
  Te  Te112  1  0.43309498  0.59812346  0.56237422  1
  Te  Te113  1  0.40411339  0.59702359  0.92234012  1
  Te  Te114  1  0.40475338  0.93885022  0.26372738  1
  Te  Te115  1  0.41066346  0.91584001  0.58712637  1
  Te  Te116  1  0.36397792  0.88356283  0.90653568  1
  Te  Te117  1  0.73654266  0.25211238  0.23064042  1
  Te  Te118  1  0.75354813  0.25688747  0.60043790  1
  Te  Te119  1  0.76961293  0.23046329  0.92395706  1
  Te  Te120  1  0.77415577  0.58297022  0.24748323  1
  Te  Te121  1  0.76953127  0.58037919  0.57790860  1
  Te  Te122  1  0.75163195  0.56633130  0.91172503  1
  Te  Te123  1  0.75460041  0.89663401  0.26140325  1
  Te  Te124  1  0.74716417  0.90662849  0.57389617  1
  Te  Te125  1  0.74077671  0.90251467  0.91494288  1
  Te  Te126  1  0.21210132  0.26702866  0.11754572  1
  Te  Te127  1  0.17569880  0.18206422  0.37439111  1
  Te  Te128  1  0.25689416  0.23381203  0.76237291  1
  Te  Te129  1  0.25190259  0.59369231  0.06702921  1
  Te  Te130  1  0.23105241  0.60998312  0.43318013  1
  Te  Te131  1  0.24393912  0.57294801  0.75827641  1
  Te  Te132  1  0.22662318  0.91893436  0.08129363  1
  Te  Te133  1  0.24784468  0.94591840  0.40499845  1
  Te  Te134  1  0.22833415  0.90456906  0.74263227  1
  Te  Te135  1  0.61374282  0.26759542  0.11572457  1
  Te  Te136  1  0.58720866  0.25173483  0.41741285  1
  Te  Te137  1  0.58201636  0.23620842  0.72067186  1
  Te  Te138  1  0.57680612  0.59375396  0.08150356  1
  Te  Te139  1  0.58071722  0.59778552  0.38594896  1
  Te  Te140  1  0.60608542  0.57232586  0.76429609  1
  Te  Te141  1  0.58116566  0.90755653  0.10562484  1
  Te  Te142  1  0.57295363  0.91810805  0.42447687  1
  Te  Te143  1  0.57577202  0.91847788  0.74819076  1
  Te  Te144  1  0.91769802  0.24892465  0.08708011  1
  Te  Te145  1  0.94821772  0.26887690  0.39761158  1
  Te  Te146  1  0.93077000  0.25675991  0.74319215  1
  Te  Te147  1  0.96293335  0.58270820  0.07302022  1
  Te  Te148  1  0.92787156  0.58145718  0.43125697  1
  Te  Te149  1  0.94108694  0.59980427  0.74044640  1
  Te  Te150  1  0.90375603  0.92481036  0.09673271  1
  Te  Te151  1  0.93061055  0.91274125  0.41048456  1
  Te  Te152  1  0.93879824  0.89071577  0.74193730  1
  Te  Te153  1  0.26837184  0.11351315  0.27161643  1
  Te  Te154  1  0.24470215  0.08080498  0.56295665  1
  Te  Te155  1  0.23104717  0.06295182  0.91280138  1
  Te  Te156  1  0.24554279  0.42385467  0.26011522  1
  Te  Te157  1  0.23917247  0.42326380  0.58756326  1
  Te  Te158  1  0.22950575  0.41690489  0.93537304  1
  Te  Te159  1  0.24530557  0.75825403  0.25233256  1
  Te  Te160  1  0.23750303  0.74333563  0.58516227  1
  Te  Te161  1  0.25285229  0.77087939  0.90064641  1
  Te  Te162  1  0.59001037  0.09451896  0.24122114  1
  Te  Te163  1  0.57965675  0.07102822  0.55541280  1
  Te  Te164  1  0.56381234  0.07903759  0.92309717  1
  Te  Te165  1  0.56650271  0.41963526  0.23579316  1
  Te  Te166  1  0.60221633  0.41752627  0.57598936  1
  Te  Te167  1  0.60159407  0.41159363  0.91654841  1
  Te  Te168  1  0.61537433  0.71889255  0.29163534  1
  Te  Te169  1  0.59858190  0.73942147  0.54016087  1
  Te  Te170  1  0.56986861  0.75293771  0.91370100  1
  Te  Te171  1  0.92942417  0.08618796  0.27142482  1
  Te  Te172  1  0.93641029  0.12800314  0.55892538  1
  Te  Te173  1  0.92195834  0.07509169  0.94239760  1
  Te  Te174  1  0.95362701  0.39222085  0.26300839  1
  Te  Te175  1  0.93971839  0.41426868  0.58833272  1
  Te  Te176  1  0.92633523  0.42379146  0.90477414  1
  Te  Te177  1  0.90694709  0.74431355  0.25692852  1
  Te  Te178  1  0.95928788  0.73057455  0.55645248  1
  Te  Te179  1  0.93780677  0.75584186  0.92568923  1
