# generated using pymatgen
data_In2Te3
_symmetry_space_group_name_H-M   'P 1'
_cell_length_a   18.77229950
_cell_length_b   18.77554611
_cell_length_c   18.76447112
_cell_angle_alpha   90.04561241
_cell_angle_beta   89.92830718
_cell_angle_gamma   90.06117133
_symmetry_Int_Tables_number   1
_chemical_formula_structural   In2Te3
_chemical_formula_sum   'In72 Te108'
_cell_volume   6613.71773357
_cell_formula_units_Z   36
loop_
 _symmetry_equiv_pos_site_id
 _symmetry_equiv_pos_as_xyz
  1  'x, y, z'
loop_
 _atom_site_type_symbol
 _atom_site_label
 _atom_site_symmetry_multiplicity
 _atom_site_fract_x
 _atom_site_fract_y
 _atom_site_fract_z
 _atom_site_occupancy
  In  In0  1  0.32609300  0.52450705  0.83760412  1
  In  In1  1  0.85937339  0.70344950  0.17986909  1
  In  In2  1  0.17169488  0.49800449  0.70123031  1
  In  In3  1  0.00157495  0.00014182  0.33776722  1
  In  In4  1  0.50327103  0.67437535  0.18544051  1
  In  In5  1  0.50188278  0.33161380  0.48955106  1
  In  In6  1  -0.00058927  0.16736510  0.83395604  1
  In  In7  1  0.65438876  0.15905867  0.18044807  1
  In  In8  1  0.83601507  0.51234729  0.64980527  1
  In  In9  1  0.48448195  0.49267157  -0.00050169  1
  In  In10  1  0.69237975  -0.01678001  0.62823427  1
  In  In11  1  0.49856591  0.83525830  0.66402132  1
  In  In12  1  0.32979310  0.50383323  0.48337570  1
  In  In13  1  -0.00983679  0.82527205  0.49080253  1
  In  In14  1  -0.05389667  -0.03292323  0.69024072  1
  In  In15  1  0.51324333  -0.00677646  0.16040564  1
  In  In16  1  0.69240028  0.50631208  0.49149041  1
  In  In17  1  0.35271357  -0.00605625  0.02178602  1
  In  In18  1  0.83841582  0.33806785  0.83842844  1
  In  In19  1  0.82745236  0.66919392  0.50428226  1
  In  In20  1  0.16420574  0.16692137  0.64049866  1
  In  In21  1  0.49150803  -0.00394894  0.84846560  1
  In  In22  1  -0.00284734  0.16484119  0.48237040  1
  In  In23  1  0.81796016  0.32178781  0.17615736  1
  In  In24  1  -0.00983798  0.67405678  -0.00119626  1
  In  In25  1  0.16735484  0.15237813  0.02068691  1
  In  In26  1  0.81896713  0.67909649  0.82739301  1
  In  In27  1  0.83698653  0.16274512  0.00918057  1
  In  In28  1  -0.00553986  -0.01789019  0.01751033  1
  In  In29  1  0.83871029  0.50854504  0.31792393  1
  In  In30  1  -0.02068327  0.33743833  0.00305362  1
  In  In31  1  0.31818907  0.68621711  -0.01152446  1
  In  In32  1  0.66972463  0.70327913  0.33878238  1
  In  In33  1  0.83683112  -0.01676246  0.19602782  1
  In  In34  1  0.49864769  0.69080936  0.50579413  1
  In  In35  1  0.34496485  0.66635427  0.67784908  1
  In  In36  1  0.01354893  0.67934962  0.67717959  1
  In  In37  1  0.17359224  0.50566201  0.33047074  1
  In  In38  1  0.52464383  0.50544743  0.69773379  1
  In  In39  1  0.16257029  -0.01717579  0.18229831  1
  In  In40  1  0.00272272  0.50100970  0.14954876  1
  In  In41  1  0.67066750  0.12577269  0.47325006  1
  In  In42  1  0.81974384  0.15572033  0.65537756  1
  In  In43  1  0.33942461  -0.03907651  0.66661299  1
  In  In44  1  0.67511194  0.32354800  0.33321875  1
  In  In45  1  0.15058958  0.30947055  0.20490945  1
  In  In46  1  0.66335795  -0.02613922  -0.01093085  1
  In  In47  1  0.34327467  0.84013323  0.48237165  1
  In  In48  1  0.14431334  0.69643014  0.48032115  1
  In  In49  1  0.33545164  0.33165613  0.01984101  1
  In  In50  1  0.64830083  0.52633629  0.83387914  1
  In  In51  1  0.48657035  0.51051649  0.32160310  1
  In  In52  1  0.67447651  0.82875161  0.83454819  1
  In  In53  1  0.33113215  0.00525786  0.33489578  1
  In  In54  1  0.14871142  0.36017533  0.81757534  1
  In  In55  1  0.68877743  0.69407306  0.01161376  1
  In  In56  1  0.48746672  0.29011831  0.18622636  1
  In  In57  1  0.15360482  0.53172601  0.00358947  1
  In  In58  1  0.32442829  0.83589433  0.16417604  1
  In  In59  1  0.15994401  -0.00883492  0.48462629  1
  In  In60  1  0.34433514  0.16966952  0.83866583  1
  In  In61  1  0.16901854  0.30364568  0.47043215  1
  In  In62  1  0.34186856  0.17351050  0.47275963  1
  In  In63  1  0.68426347  0.49027673  0.14669917  1
  In  In64  1  0.50224874  0.33678590  0.83181672  1
  In  In65  1  -0.00752651  0.49674892  0.50333987  1
  In  In66  1  0.15055778  -0.01747654  0.82929525  1
  In  In67  1  0.16280421  0.83411939  0.68257503  1
  In  In68  1  0.32808222  0.32925208  0.63374104  1
  In  In69  1  0.68325519  0.31223611  0.66052434  1
  In  In70  1  0.66602290  0.14567845  0.83581992  1
  In  In71  1  0.16815946  0.67626444  0.15792946  1
  Te  Te72  1  0.06694908  0.08214235  0.10857131  1
  Te  Te73  1  0.11049483  0.10251927  0.39530714  1
  Te  Te74  1  0.07702385  0.07867134  0.73350569  1
  Te  Te75  1  0.10248033  0.40489182  0.08125045  1
  Te  Te76  1  0.07998716  0.41297603  0.40882475  1
  Te  Te77  1  0.04779176  0.42136668  0.73023793  1
  Te  Te78  1  0.07988515  0.76258455  0.07701377  1
  Te  Te79  1  0.06180259  0.76319348  0.37188648  1
  Te  Te80  1  0.06926194  0.77191335  0.78046149  1
  Te  Te81  1  0.42346150  0.09602186  0.09937187  1
  Te  Te82  1  0.43048528  0.06378784  0.42952012  1
  Te  Te83  1  0.41340578  0.07537534  0.74187932  1
  Te  Te84  1  0.42227742  0.41446752  0.11407397  1
  Te  Te85  1  0.40476644  0.40397147  0.39616785  1
  Te  Te86  1  0.39889628  0.41546301  0.74682987  1
  Te  Te87  1  0.42032466  0.75296651  0.07917720  1
  Te  Te88  1  0.42849426  0.75651665  0.39474562  1
  Te  Te89  1  0.43005256  0.74979369  0.76452735  1
  Te  Te90  1  0.74732541  0.06769335  0.08900621  1
  Te  Te91  1  0.76135047  0.03374090  0.39401558  1
  Te  Te92  1  0.75854283  0.05816741  0.75386642  1
  Te  Te93  1  0.77744901  0.41048491  0.06500481  1
  Te  Te94  1  0.77637942  0.40609784  0.41427509  1
  Te  Te95  1  0.73951793  0.42501914  0.74965634  1
  Te  Te96  1  0.76729987  0.78941424  0.09777573  1
  Te  Te97  1  0.74799972  0.78132668  0.44017132  1
  Te  Te98  1  0.75449353  0.76644719  0.72520080  1
  Te  Te99  1  0.05286892  0.23280628  0.28899866  1
  Te  Te100  1  0.06920001  0.26697969  0.58126580  1
  Te  Te101  1  0.09402731  0.24875351  0.92312450  1
  Te  Te102  1  0.07544826  0.59090146  0.24778704  1
  Te  Te103  1  0.09455116  0.58994024  0.57934281  1
  Te  Te104  1  0.06188393  0.58294446  0.90291360  1
  Te  Te105  1  0.05576045  0.89563728  0.24385819  1
  Te  Te106  1  0.07483595  0.91854563  0.58861517  1
  Te  Te107  1  0.07938814  0.89817391  0.92751292  1
  Te  Te108  1  0.40589251  0.23035819  0.29232299  1
  Te  Te109  1  0.43279727  0.23319898  0.58594610  1
  Te  Te110  1  0.43234776  0.24742891  0.93591837  1
  Te  Te111  1  0.39348356  0.59911140  0.25088313  1
  Te  Te112  1  0.42603656  0.56844218  0.58276540  1
  Te  Te113  1  0.43155099  0.60264157  0.90995226  1
  Te  Te114  1  0.42122478  0.91104563  0.25484990  1
  Te  Te115  1  0.44241475  0.93075962  0.55584957  1
  Te  Te116  1  0.42042897  0.89796418  0.93230252  1
  Te  Te117  1  0.76449833  0.21497005  0.27300101  1
  Te  Te118  1  0.75480068  0.24046476  0.54736942  1
  Te  Te119  1  0.74577887  0.24696904  0.91975651  1
  Te  Te120  1  0.73929353  0.59993015  0.24595762  1
  Te  Te121  1  0.72470426  0.60478017  0.60199350  1
  Te  Te122  1  0.75400315  0.58294943  0.92839116  1
  Te  Te123  1  0.72699994  0.91762847  0.27596867  1
  Te  Te124  1  0.78659944  0.90721957  0.54284592  1
  Te  Te125  1  0.77560184  0.91374654  0.90936253  1
  Te  Te126  1  0.25614703  0.23767170  0.10995142  1
  Te  Te127  1  0.26818580  0.25272808  0.36782693  1
  Te  Te128  1  0.24753402  0.24949869  0.74650909  1
  Te  Te129  1  0.27094120  0.57789610  0.08459166  1
  Te  Te130  1  0.25367096  0.61241959  0.40997413  1
  Te  Te131  1  0.22544279  0.62646291  0.77649454  1
  Te  Te132  1  0.23298967  0.91005380  0.06623108  1
  Te  Te133  1  0.23163114  0.89494927  0.39377663  1
  Te  Te134  1  0.26816467  0.89135290  0.78173689  1
  Te  Te135  1  0.59975319  0.26616915  0.09482244  1
  Te  Te136  1  0.57616088  0.23189781  0.40307781  1
  Te  Te137  1  0.58030432  0.23659033  0.74607898  1
  Te  Te138  1  0.58340718  0.58628395  0.07988358  1
  Te  Te139  1  0.58675719  0.58512290  0.41358784  1
  Te  Te140  1  0.57826765  0.63090244  0.75467612  1
  Te  Te141  1  0.59042874  0.88867200  0.08577680  1
  Te  Te142  1  0.62664193  0.96530976  0.38898090  1
  Te  Te143  1  0.58947368  0.93362378  0.74741321  1
  Te  Te144  1  0.93026379  0.23715191  0.10393902  1
  Te  Te145  1  0.93085432  0.24712737  0.37991662  1
  Te  Te146  1  0.91198089  0.24782628  0.73897964  1
  Te  Te147  1  0.89565989  0.58817115  0.08613032  1
  Te  Te148  1  0.92371112  0.59683766  0.40979422  1
  Te  Te149  1  0.91814060  0.58667780  0.75332475  1
  Te  Te150  1  0.90025058  0.89182070  0.09399814  1
  Te  Te151  1  0.89949221  0.93178926  0.43090631  1
  Te  Te152  1  0.89298070  0.87627236  0.79619020  1
  Te  Te153  1  0.25760828  0.08416656  0.23378534  1
  Te  Te154  1  0.26028535  0.06588492  0.57831190  1
  Te  Te155  1  0.24730158  0.07647347  0.91225479  1
  Te  Te156  1  0.24674812  0.41736462  0.23734255  1
  Te  Te157  1  0.22879397  0.42521634  0.56869641  1
  Te  Te158  1  0.25331054  0.41678095  0.92036217  1
  Te  Te159  1  0.24702265  0.75153369  0.25833081  1
  Te  Te160  1  0.25515644  0.75375042  0.58271905  1
  Te  Te161  1  0.23114653  0.74088613  0.88454205  1
  Te  Te162  1  0.57458854  0.07273254  0.27438556  1
  Te  Te163  1  0.59343026  0.08621301  0.59269117  1
  Te  Te164  1  0.57236808  0.08772714  0.94158723  1
  Te  Te165  1  0.59286008  0.42124268  0.25017745  1
  Te  Te166  1  0.59150109  0.41662067  0.58121606  1
  Te  Te167  1  0.59346275  0.41432707  0.92574301  1
  Te  Te168  1  0.58941954  0.78312645  0.24251866  1
  Te  Te169  1  0.59829375  0.77865835  0.56863299  1
  Te  Te170  1  0.58499340  0.75868045  0.92932966  1
  Te  Te171  1  0.91651895  0.09377375  0.25734574  1
  Te  Te172  1  0.91988391  0.07312878  0.57622677  1
  Te  Te173  1  0.91595267  0.07131247  0.91508191  1
  Te  Te174  1  0.92762735  0.40886722  0.24539263  1
  Te  Te175  1  0.89827615  0.40452349  0.57092762  1
  Te  Te176  1  0.92726348  0.43518285  0.90731006  1
  Te  Te177  1  0.92724573  0.77410265  0.28940584  1
  Te  Te178  1  0.90812659  0.75850592  0.60185213  1
  Te  Te179  1  0.90355014  0.76862687  0.91566949  1
