# generated using pymatgen
data_In2Te3
_symmetry_space_group_name_H-M   'P 1'
_cell_length_a   18.75105560
_cell_length_b   18.74503351
_cell_length_c   18.74911146
_cell_angle_alpha   89.96295410
_cell_angle_beta   90.06403804
_cell_angle_gamma   89.94381841
_symmetry_Int_Tables_number   1
_chemical_formula_structural   In2Te3
_chemical_formula_sum   'In72 Te108'
_cell_volume   6590.10087622
_cell_formula_units_Z   36
loop_
 _symmetry_equiv_pos_site_id
 _symmetry_equiv_pos_as_xyz
  1  'x, y, z'
loop_
 _atom_site_type_symbol
 _atom_site_label
 _atom_site_symmetry_multiplicity
 _atom_site_fract_x
 _atom_site_fract_y
 _atom_site_fract_z
 _atom_site_occupancy
  In  In0  1  0.81117378  0.48688768  -0.01062855  1
  In  In1  1  0.68355480  0.34955691  0.32052937  1
  In  In2  1  0.51671001  0.50775348  -0.01262179  1
  In  In3  1  0.83114972  0.84874970  0.65913096  1
  In  In4  1  0.14297916  0.02076267  0.17866743  1
  In  In5  1  0.67369856  0.82231591  0.18882714  1
  In  In6  1  -0.01231817  0.83442842  0.84847123  1
  In  In7  1  0.49192707  0.33776752  0.50607800  1
  In  In8  1  0.31999035  0.31625167  0.31886361  1
  In  In9  1  0.32251433  0.49231533  0.85155237  1
  In  In10  1  0.84189130  0.67627474  0.19588235  1
  In  In11  1  0.31914781  -0.01307851  0.33398870  1
  In  In12  1  0.65800895  0.66185496  0.66417849  1
  In  In13  1  0.53004507  0.66228950  0.15320009  1
  In  In14  1  0.51217796  0.33906664  0.84371191  1
  In  In15  1  0.32087218  0.02562203  -0.02444025  1
  In  In16  1  0.15894705  0.49216033  0.67891729  1
  In  In17  1  0.32644562  0.66321815  0.34703320  1
  In  In18  1  -0.01461687  0.34923077  0.34371110  1
  In  In19  1  -0.00449906  0.49556447  0.50337571  1
  In  In20  1  0.29803871  0.31164228  0.68853409  1
  In  In21  1  0.33527968  0.83428928  0.50591810  1
  In  In22  1  0.84023839  0.83580239  0.01659470  1
  In  In23  1  0.18541631  0.84114467  0.66067387  1
  In  In24  1  0.66074099  0.34328134  0.67069744  1
  In  In25  1  0.50983916  0.50580700  0.66604088  1
  In  In26  1  0.33758667  0.51280868  0.50127283  1
  In  In27  1  0.68131635  0.01417260  0.01393754  1
  In  In28  1  -0.01722187  0.00789908  0.00780460  1
  In  In29  1  0.82954080  0.67252349  0.48852148  1
  In  In30  1  0.14205197  0.02339868  0.81998252  1
  In  In31  1  0.82986664  0.50253290  0.32546137  1
  In  In32  1  0.51012812  0.65059953  0.49258370  1
  In  In33  1  0.47254642  0.01620369  0.80935872  1
  In  In34  1  -0.01639787  0.63573380  0.66844163  1
  In  In35  1  0.33747795  0.64364360  0.00354088  1
  In  In36  1  0.32926263  0.48554526  0.16368754  1
  In  In37  1  0.33201250  0.84378359  0.16947645  1
  In  In38  1  -0.00023500  0.19310082  0.86615312  1
  In  In39  1  0.33103402  0.17605304  0.50705997  1
  In  In40  1  0.52563657  0.50949408  0.32724295  1
  In  In41  1  0.16128901  0.80990598  0.02722492  1
  In  In42  1  -0.00168061  0.47293206  0.82410784  1
  In  In43  1  0.85276801  0.00251882  0.48551830  1
  In  In44  1  0.50410822  -0.01445821  0.51699763  1
  In  In45  1  0.68674343  0.18721407  0.15047381  1
  In  In46  1  -0.02267500  0.18922461  0.13640232  1
  In  In47  1  0.49210093  0.17830203  0.31823585  1
  In  In48  1  0.66034482  0.00374886  0.68512463  1
  In  In49  1  0.83396019  0.18478595  0.68470553  1
  In  In50  1  0.68448914  -0.01421916  0.32674875  1
  In  In51  1  0.01266678  0.49234109  0.16607323  1
  In  In52  1  0.00704500  0.21446257  0.51574597  1
  In  In53  1  0.67931017  0.15324912  0.50901748  1
  In  In54  1  0.16893549  0.65037290  0.16616624  1
  In  In55  1  -0.01567197  -0.00175425  0.32097845  1
  In  In56  1  0.66334582  0.82317649  0.84500034  1
  In  In57  1  0.01559201  0.00755971  0.68860869  1
  In  In58  1  0.02560202  0.80991278  0.45989578  1
  In  In59  1  0.52100049  0.81177241  -0.03324086  1
  In  In60  1  0.67698245  0.19441070  0.85992716  1
  In  In61  1  0.51347976  0.18760271  -0.00090341  1
  In  In62  1  0.16709238  0.33752667  0.15691866  1
  In  In63  1  0.49111893  -0.00119070  0.15768752  1
  In  In64  1  0.35840360  0.80961848  0.80103009  1
  In  In65  1  0.66817253  0.80020169  0.50004938  1
  In  In66  1  0.15763123  0.66383559  0.83171148  1
  In  In67  1  0.31751749  0.32640063  -0.01289884  1
  In  In68  1  0.16203707  0.15600316  0.33602688  1
  In  In69  1  0.00318366  0.66029956  0.00131044  1
  In  In70  1  0.83305381  0.47911273  0.67864339  1
  In  In71  1  0.17829978  0.01367268  0.51653574  1
  Te  Te72  1  0.08569703  0.10618990  0.06581694  1
  Te  Te73  1  0.06786154  0.08310504  0.43200915  1
  Te  Te74  1  0.09907140  0.13506892  0.71375438  1
  Te  Te75  1  0.07079026  0.40121034  0.06331969  1
  Te  Te76  1  0.09067492  0.41173997  0.42575030  1
  Te  Te77  1  0.05903578  0.38516123  0.71609712  1
  Te  Te78  1  0.04773426  0.75243258  0.11786744  1
  Te  Te79  1  0.08525318  0.70264521  0.37890636  1
  Te  Te80  1  0.07104786  0.75621389  0.74537394  1
  Te  Te81  1  0.41223188  0.09970183  0.07612941  1
  Te  Te82  1  0.41508952  0.08126155  0.41763795  1
  Te  Te83  1  0.37603511  0.09597272  0.73433577  1
  Te  Te84  1  0.41917616  0.41517557  0.06289481  1
  Te  Te85  1  0.41411553  0.41978299  0.40149514  1
  Te  Te86  1  0.41194021  0.41510641  0.74653368  1
  Te  Te87  1  0.41691811  0.75283600  0.07923168  1
  Te  Te88  1  0.42911793  0.75442329  0.41359591  1
  Te  Te89  1  0.45391710  0.73024383  0.72704920  1
  Te  Te90  1  0.78264488  0.09066435  0.08887671  1
  Te  Te91  1  0.76616797  0.09427714  0.39774617  1
  Te  Te92  1  0.75157687  0.08923855  0.77141137  1
  Te  Te93  1  0.75596524  0.37359484  0.07327279  1
  Te  Te94  1  0.75986755  0.41896885  0.42617171  1
  Te  Te95  1  0.74407470  0.40808566  0.77604486  1
  Te  Te96  1  0.74634351  0.73810979  0.08520216  1
  Te  Te97  1  0.75381550  0.75342592  0.38964136  1
  Te  Te98  1  0.75631605  0.74899600  0.74577445  1
  Te  Te99  1  0.07407131  0.24703892  0.24991604  1
  Te  Te100  1  0.11398879  0.25058405  0.60975832  1
  Te  Te101  1  0.11108425  0.27811631  0.91692112  1
  Te  Te102  1  0.07380654  0.59021763  0.26727229  1
  Te  Te103  1  0.09570278  0.59204710  0.57953043  1
  Te  Te104  1  0.08592018  0.56179384  0.91726524  1
  Te  Te105  1  0.08949294  0.91175782  0.26190111  1
  Te  Te106  1  0.06751937  0.91379724  0.57711008  1
  Te  Te107  1  0.09002663  0.91455946  0.92940871  1
  Te  Te108  1  0.42114441  0.26640806  0.22356405  1
  Te  Te109  1  0.41862378  0.25257247  0.60762416  1
  Te  Te110  1  0.41035728  0.24001175  0.89875711  1
  Te  Te111  1  0.41256307  0.59054216  0.23773195  1
  Te  Te112  1  0.40954877  0.60420104  0.60100860  1
  Te  Te113  1  0.42953211  0.59425129  0.89300388  1
  Te  Te114  1  0.43204459  0.90772951  0.26559802  1
  Te  Te115  1  0.40261887  0.92343284  0.60383941  1
  Te  Te116  1  0.41114659  0.91428458  0.92001130  1
  Te  Te117  1  0.77218131  0.25078592  0.25398689  1
  Te  Te118  1  0.75674597  0.26475773  0.57936823  1
  Te  Te119  1  0.76702921  0.26217763  0.95786100  1
  Te  Te120  1  0.73803067  0.57845656  0.23504773  1
  Te  Te121  1  0.75892126  0.57809770  0.58451397  1
  Te  Te122  1  0.71504590  0.58065985  0.92335282  1
  Te  Te123  1  0.77342356  0.92676065  0.22355594  1
  Te  Te124  1  0.73711056  0.93309200  0.56948423  1
  Te  Te125  1  0.75708465  0.92028550  0.91806419  1
  Te  Te126  1  0.26052781  0.24138920  0.09442622  1
  Te  Te127  1  0.22981040  0.25863257  0.42870930  1
  Te  Te128  1  0.22048849  0.23672034  0.79228114  1
  Te  Te129  1  0.23168871  0.55397516  0.06471918  1
  Te  Te130  1  0.23112411  0.57562721  0.41803181  1
  Te  Te131  1  0.25936258  0.58765339  0.74818762  1
  Te  Te132  1  0.24579592  0.93648907  0.08316746  1
  Te  Te133  1  0.22614368  0.90429903  0.41890456  1
  Te  Te134  1  0.24739215  0.91839032  0.77368361  1
  Te  Te135  1  0.60028593  0.28356630  0.07312737  1
  Te  Te136  1  0.58303698  0.24476416  0.42285452  1
  Te  Te137  1  0.58011877  0.23850806  0.74928574  1
  Te  Te138  1  0.61249535  0.55489014  0.09329498  1
  Te  Te139  1  0.61734795  0.58479743  0.41523768  1
  Te  Te140  1  0.61144375  0.55866240  0.76214256  1
  Te  Te141  1  0.58542549  0.90766208  0.07786559  1
  Te  Te142  1  0.58899611  0.90796228  0.41695677  1
  Te  Te143  1  0.56877808  0.90673901  0.75619135  1
  Te  Te144  1  0.89773530  0.27993856  0.04552245  1
  Te  Te145  1  0.90576220  0.24562629  0.41489971  1
  Te  Te146  1  0.92076298  0.27317365  0.76669961  1
  Te  Te147  1  0.90478201  0.57439355  0.08277132  1
  Te  Te148  1  0.92753734  0.59162855  0.40484790  1
  Te  Te149  1  0.89721987  0.58039193  0.77856339  1
  Te  Te150  1  0.91898959  0.92044327  0.11043719  1
  Te  Te151  1  0.90531055  0.88755390  0.40162559  1
  Te  Te152  1  0.90455763  0.93219622  0.76417075  1
  Te  Te153  1  0.26552054  0.09485367  0.24128475  1
  Te  Te154  1  0.27903097  0.07499670  0.61108944  1
  Te  Te155  1  0.22717989  0.11911485  0.90441821  1
  Te  Te156  1  0.23005110  0.42860755  0.26430562  1
  Te  Te157  1  0.25184704  0.41423568  0.58321420  1
  Te  Te158  1  0.21458359  0.39783223  0.89877128  1
  Te  Te159  1  0.24226431  0.75404616  0.25317626  1
  Te  Te160  1  0.24385973  0.73825830  0.57450204  1
  Te  Te161  1  0.25344215  0.74711592  0.91869471  1
  Te  Te162  1  0.58890377  0.08404075  0.24212316  1
  Te  Te163  1  0.57105207  0.09538824  0.60036698  1
  Te  Te164  1  0.57886259  0.07378758  0.91317552  1
  Te  Te165  1  0.57650112  0.40693550  0.23464099  1
  Te  Te166  1  0.59623851  0.43271521  0.56258873  1
  Te  Te167  1  0.61657182  0.43139434  0.89991203  1
  Te  Te168  1  0.57774199  0.74252368  0.26738234  1
  Te  Te169  1  0.55904873  0.76287534  0.60104970  1
  Te  Te170  1  0.60943557  0.70053267  0.91685988  1
  Te  Te171  1  0.91409347  0.09792559  0.23634202  1
  Te  Te172  1  0.91730648  0.08992486  0.59312528  1
  Te  Te173  1  0.90693984  0.08613896  0.90787481  1
  Te  Te174  1  0.90281622  0.40705145  0.22909281  1
  Te  Te175  1  0.92698186  0.39895443  0.59509155  1
  Te  Te176  1  0.92317722  0.39907824  0.93221731  1
  Te  Te177  1  0.94764164  0.76908437  0.23824214  1
  Te  Te178  1  0.92426667  0.75524229  0.58115570  1
  Te  Te179  1  0.89760391  0.73222542  0.91539714  1
