# generated using pymatgen
data_In2Te3
_symmetry_space_group_name_H-M   'P 1'
_cell_length_a   18.91496318
_cell_length_b   18.91132593
_cell_length_c   18.93336471
_cell_angle_alpha   89.66073221
_cell_angle_beta   89.86106647
_cell_angle_gamma   90.00773975
_symmetry_Int_Tables_number   1
_chemical_formula_structural   In2Te3
_chemical_formula_sum   'In72 Te108'
_cell_volume   6772.45900967
_cell_formula_units_Z   36
loop_
 _symmetry_equiv_pos_site_id
 _symmetry_equiv_pos_as_xyz
  1  'x, y, z'
loop_
 _atom_site_type_symbol
 _atom_site_label
 _atom_site_symmetry_multiplicity
 _atom_site_fract_x
 _atom_site_fract_y
 _atom_site_fract_z
 _atom_site_occupancy
  In  In0  1  -0.02077735  0.30717895  0.32381785  1
  In  In1  1  0.80571476  0.70303051  0.47629135  1
  In  In2  1  0.49305957  0.81603453  0.64319904  1
  In  In3  1  0.66516072  -0.01677358  -0.00501143  1
  In  In4  1  0.63971544  0.16918291  0.14243300  1
  In  In5  1  0.16459484  0.16490238  0.31326710  1
  In  In6  1  -0.02203399  0.49967238  0.52001300  1
  In  In7  1  0.17881545  0.01863083  0.49842305  1
  In  In8  1  0.18530426  0.66940287  0.84371936  1
  In  In9  1  0.36240017  0.34288625  0.37986062  1
  In  In10  1  0.83430098  0.31401655  0.16358127  1
  In  In11  1  0.82105547  -0.00517325  0.52123256  1
  In  In12  1  0.03482764  0.19399476  0.07271410  1
  In  In13  1  0.33674409  0.52063640  0.18626445  1
  In  In14  1  0.83406104  0.47512284  0.00294699  1
  In  In15  1  0.33217855  0.85396417  0.49413777  1
  In  In16  1  0.50725414  0.16290814  0.32873012  1
  In  In17  1  0.36392993  0.47202517  0.51888118  1
  In  In18  1  0.65292900  0.67603406  -0.00632849  1
  In  In19  1  0.32561234  0.01245133  -0.02914609  1
  In  In20  1  0.12374179  0.22888482  0.73616672  1
  In  In21  1  0.66618268  0.82056768  0.83481395  1
  In  In22  1  0.17480131  0.86281085  0.66378615  1
  In  In23  1  0.68567551  -0.05451385  0.36193702  1
  In  In24  1  0.14787277  0.49794148  -0.00263533  1
  In  In25  1  0.82238683  0.51469086  0.65750773  1
  In  In26  1  0.33059683  0.01071340  0.71095824  1
  In  In27  1  0.51002780  0.48757128  -0.01459793  1
  In  In28  1  0.52304156  0.51687077  0.67800325  1
  In  In29  1  0.17864750  0.67476817  0.16554534  1
  In  In30  1  0.86059150  0.02185881  0.84305846  1
  In  In31  1  0.50881813  0.34922684  0.53102305  1
  In  In32  1  0.48718370  -0.00977749  0.14681364  1
  In  In33  1  0.51843478  0.82707892  0.32776436  1
  In  In34  1  0.48174188  0.31820598  0.15814998  1
  In  In35  1  0.82061323  0.49545274  0.34688341  1
  In  In36  1  0.81898024  0.82771342  0.68672730  1
  In  In37  1  0.35010500  0.84356486  0.81958182  1
  In  In38  1  0.00579618  0.65443151  0.30534015  1
  In  In39  1  0.33117524  0.14103629  0.14364168  1
  In  In40  1  0.32870307  0.50469310  0.85060152  1
  In  In41  1  -0.02250707  0.36332351  0.70391131  1
  In  In42  1  0.34330670  0.31718947  -0.02735175  1
  In  In43  1  -0.00470511  0.82274492  0.45887685  1
  In  In44  1  0.81246536  0.67350799  0.15866999  1
  In  In45  1  0.34572336  0.64316468  0.33459270  1
  In  In46  1  0.52998017  0.65212837  0.49503761  1
  In  In47  1  0.17001769  0.36995439  0.14120406  1
  In  In48  1  0.66540948  0.34535753  0.34934835  1
  In  In49  1  0.52829419  -0.00206060  0.82852571  1
  In  In50  1  0.00699613  0.83000111  0.85588851  1
  In  In51  1  0.00810211  -0.02424401  0.29983137  1
  In  In52  1  -0.01962478  0.66330985  0.68244239  1
  In  In53  1  0.14020465  0.66608951  0.51737433  1
  In  In54  1  0.33610057  0.02062357  0.33689350  1
  In  In55  1  0.15306194  0.35443772  0.51405658  1
  In  In56  1  0.70145258  0.17538051  0.81685680  1
  In  In57  1  -0.01907232  0.83176394  0.13240186  1
  In  In58  1  0.38033000  0.68195029  0.02797866  1
  In  In59  1  -0.02332128  0.17844269  0.49203805  1
  In  In60  1  0.66147207  0.49381292  0.83691339  1
  In  In61  1  0.52159598  0.04453999  0.53768092  1
  In  In62  1  -0.02213165  0.64938525  -0.01262975  1
  In  In63  1  0.16648419  0.51382561  0.34199857  1
  In  In64  1  0.83257297  -0.01533905  0.18628668  1
  In  In65  1  0.34292479  0.32691397  0.71402318  1
  In  In66  1  0.32647787  0.20487356  0.53447401  1
  In  In67  1  -0.00453489  0.02731544  0.65084190  1
  In  In68  1  0.68577236  0.49584041  0.17987101  1
  In  In69  1  0.82715733  0.14041792  0.33114667  1
  In  In70  1  0.83374526  0.33398061  0.84747415  1
  In  In71  1  0.17347503  0.85847571  -0.00140547  1
  Te  Te72  1  0.11078010  0.06662369  0.05746418  1
  Te  Te73  1  0.06945794  0.08951542  0.40992661  1
  Te  Te74  1  0.08611339  0.08133620  0.75245594  1
  Te  Te75  1  0.05009927  0.40287682  0.05984339  1
  Te  Te76  1  0.05975979  0.41662320  0.40772695  1
  Te  Te77  1  0.11015925  0.37374805  0.76291777  1
  Te  Te78  1  0.08752379  0.73389554  0.05854463  1
  Te  Te79  1  0.10160784  0.73932797  0.38896153  1
  Te  Te80  1  0.09204919  0.75461489  0.74329338  1
  Te  Te81  1  0.43575728  0.09409344  0.04780738  1
  Te  Te82  1  0.40502229  0.10734142  0.43956011  1
  Te  Te83  1  0.43440364  0.09893995  0.76922064  1
  Te  Te84  1  0.39878551  0.42273613  0.07900068  1
  Te  Te85  1  0.46500034  0.45637432  0.40376232  1
  Te  Te86  1  0.43623917  0.42960585  0.77100283  1
  Te  Te87  1  0.47541277  0.76616552  0.10436985  1
  Te  Te88  1  0.41904164  0.74922734  0.42587557  1
  Te  Te89  1  0.40134383  0.74081608  0.72989186  1
  Te  Te90  1  0.74233115  0.07001420  0.09296258  1
  Te  Te91  1  0.72916273  0.07619359  0.42757120  1
  Te  Te92  1  0.75552904  0.05682088  0.74381324  1
  Te  Te93  1  0.73279791  0.39164430  0.08039193  1
  Te  Te94  1  0.72544373  0.43952811  0.44761173  1
  Te  Te95  1  0.75021545  0.41048427  0.74622562  1
  Te  Te96  1  0.74718797  0.76443107  0.06493266  1
  Te  Te97  1  0.73491289  0.79978944  0.38993288  1
  Te  Te98  1  0.74152234  0.72004025  0.75329187  1
  Te  Te99  1  0.08643368  0.26208474  0.22559859  1
  Te  Te100  1  0.07854002  0.24245741  0.58375985  1
  Te  Te101  1  0.08346448  0.21127613  0.93116060  1
  Te  Te102  1  0.08964940  0.56161438  0.21971299  1
  Te  Te103  1  0.07921130  0.56314580  0.61143815  1
  Te  Te104  1  0.07296112  0.57748436  0.89143886  1
  Te  Te105  1  0.08839241  0.88866389  0.21630769  1
  Te  Te106  1  0.07410192  0.91648676  0.56067476  1
  Te  Te107  1  0.06059197  0.93783400  0.94265726  1
  Te  Te108  1  0.39483300  0.23637217  0.25647023  1
  Te  Te109  1  0.43953695  0.24812275  0.62254463  1
  Te  Te110  1  0.40160206  0.23359674  0.86659336  1
  Te  Te111  1  0.45243017  0.59706359  0.23959673  1
  Te  Te112  1  0.42375314  0.59137360  0.58899546  1
  Te  Te113  1  0.43354638  0.59785700  0.91350689  1
  Te  Te114  1  0.41363012  0.91676526  0.25914518  1
  Te  Te115  1  0.40435545  0.94255361  0.59434181  1
  Te  Te116  1  0.43628487  0.91617647  0.91849100  1
  Te  Te117  1  0.72998740  0.23769204  0.25365329  1
  Te  Te118  1  0.66745292  0.22995755  0.58634367  1
  Te  Te119  1  0.77055595  0.23155495  0.93606852  1
  Te  Te120  1  0.73915887  0.60186075  0.27418081  1
  Te  Te121  1  0.74748203  0.61263941  0.57608704  1
  Te  Te122  1  0.75192218  0.57550538  0.92734131  1
  Te  Te123  1  0.73728052  0.88208449  0.23872422  1
  Te  Te124  1  0.73601910  0.89046624  0.58218766  1
  Te  Te125  1  0.76472035  0.91614064  0.90249872  1
  Te  Te126  1  0.25353214  0.25752108  0.08126144  1
  Te  Te127  1  0.23019787  0.25283503  0.41878305  1
  Te  Te128  1  0.26756715  0.21659238  0.78341041  1
  Te  Te129  1  0.25867784  0.58242925  0.06407790  1
  Te  Te130  1  0.25185771  0.57447811  0.44921144  1
  Te  Te131  1  0.25442075  0.58193315  0.74953274  1
  Te  Te132  1  0.28419534  0.91501901  0.07460458  1
  Te  Te133  1  0.23469456  0.92040403  0.39822439  1
  Te  Te134  1  0.22719873  0.92995908  0.78874837  1
  Te  Te135  1  0.56131556  0.25534243  0.05219857  1
  Te  Te136  1  0.57737994  0.24848571  0.43095490  1
  Te  Te137  1  0.60734828  0.24570912  0.72154849  1
  Te  Te138  1  0.59095167  0.56822259  0.08401619  1
  Te  Te139  1  0.58980449  0.54695730  0.41338318  1
  Te  Te140  1  0.60839337  0.60872641  0.75702891  1
  Te  Te141  1  0.58283660  0.89445065  0.08437073  1
  Te  Te142  1  0.55043188  0.93686243  0.43352333  1
  Te  Te143  1  0.58666869  0.90039019  0.73088102  1
  Te  Te144  1  0.88864450  0.22122969  0.06113881  1
  Te  Te145  1  0.87020564  0.25926077  0.41858409  1
  Te  Te146  1  0.91611063  0.23891971  0.76133235  1
  Te  Te147  1  0.90664368  0.57199356  0.09715995  1
  Te  Te148  1  0.91871931  0.59841313  0.42039895  1
  Te  Te149  1  0.91523009  0.55905874  0.76212006  1
  Te  Te150  1  0.91019169  0.94328521  0.06764752  1
  Te  Te151  1  0.90817177  0.93408351  0.40649289  1
  Te  Te152  1  0.93211917  0.91577859  0.74061915  1
  Te  Te153  1  0.23322466  0.06027811  0.22943837  1
  Te  Te154  1  0.24975975  0.09406632  0.60594078  1
  Te  Te155  1  0.21008751  0.10771756  0.95152222  1
  Te  Te156  1  0.26404951  0.41735551  0.27384861  1
  Te  Te157  1  0.25904885  0.40579069  0.60733109  1
  Te  Te158  1  0.23194783  0.40326075  0.91128779  1
  Te  Te159  1  0.27889854  0.74221223  0.24690532  1
  Te  Te160  1  0.24582963  0.75905577  0.57883324  1
  Te  Te161  1  0.27630406  0.75419195  0.93188943  1
  Te  Te162  1  0.58190482  0.06652052  0.24259517  1
  Te  Te163  1  0.62516824  0.09380611  0.63674405  1
  Te  Te164  1  0.60604070  0.09594483  0.91247655  1
  Te  Te165  1  0.57681172  0.40346752  0.23964919  1
  Te  Te166  1  0.61114318  0.43262236  0.59359563  1
  Te  Te167  1  0.58434991  0.38831201  0.90810898  1
  Te  Te168  1  0.55874698  0.72595071  0.22903682  1
  Te  Te169  1  0.60478586  0.75540105  0.56798269  1
  Te  Te170  1  0.55820684  0.75472355  0.91166317  1
  Te  Te171  1  0.93457343  0.09311822  0.23681674  1
  Te  Te172  1  0.88346492  0.11393725  0.59404201  1
  Te  Te173  1  0.96653678  0.12689202  0.86399578  1
  Te  Te174  1  0.90711492  0.41847049  0.24828817  1
  Te  Te175  1  0.89474383  0.39184231  0.58231126  1
  Te  Te176  1  0.93904180  0.40046868  0.92946380  1
  Te  Te177  1  0.91142251  0.75463009  0.24586572  1
  Te  Te178  1  0.92041584  0.75418181  0.57402033  1
  Te  Te179  1  0.90012012  0.74810965  0.91186566  1
