# generated using pymatgen
data_In2Te3
_symmetry_space_group_name_H-M   'P 1'
_cell_length_a   18.76474367
_cell_length_b   18.76573446
_cell_length_c   18.76520269
_cell_angle_alpha   90.04418412
_cell_angle_beta   89.96074123
_cell_angle_gamma   89.94794920
_symmetry_Int_Tables_number   1
_chemical_formula_structural   In2Te3
_chemical_formula_sum   'In72 Te108'
_cell_volume   6607.86333220
_cell_formula_units_Z   36
loop_
 _symmetry_equiv_pos_site_id
 _symmetry_equiv_pos_as_xyz
  1  'x, y, z'
loop_
 _atom_site_type_symbol
 _atom_site_label
 _atom_site_symmetry_multiplicity
 _atom_site_fract_x
 _atom_site_fract_y
 _atom_site_fract_z
 _atom_site_occupancy
  In  In0  1  0.65883962  0.14374174  0.16524315  1
  In  In1  1  0.82508117  0.46267153  0.34633725  1
  In  In2  1  0.00885986  0.85773004  0.50073957  1
  In  In3  1  0.18402234  0.85498488  0.67421226  1
  In  In4  1  0.84438109  0.66180604  0.84136228  1
  In  In5  1  0.66573202  0.00757922  0.66548712  1
  In  In6  1  0.01841832  0.14044847  0.81999860  1
  In  In7  1  0.17641368  0.49197476  0.67659912  1
  In  In8  1  0.34637694  0.18200082  0.52644805  1
  In  In9  1  0.00593760  0.66026831  0.32442273  1
  In  In10  1  0.50953141  0.50148922  0.35210616  1
  In  In11  1  0.67006216  0.15679147  0.51945504  1
  In  In12  1  0.34202414  0.51114846  0.51366021  1
  In  In13  1  0.33793608  0.00314319  0.33496036  1
  In  In14  1  0.83381439  0.00146533  0.15250299  1
  In  In15  1  -0.00539848  0.31810049  0.67055967  1
  In  In16  1  0.00996452  0.17080143  0.15479862  1
  In  In17  1  0.48827052  0.14820975  0.00800663  1
  In  In18  1  0.18153667  0.31425172  0.15033419  1
  In  In19  1  0.49486216  0.67044143  0.15737020  1
  In  In20  1  0.50913845  0.49265929  0.65701996  1
  In  In21  1  0.49913180  0.16085936  0.32645201  1
  In  In22  1  0.48533549  0.01598174  0.83268763  1
  In  In23  1  0.82457377  0.49320977  -0.02658805  1
  In  In24  1  0.67216305  0.85010904  0.15085903  1
  In  In25  1  0.85651204  0.86306685  0.67469287  1
  In  In26  1  0.17930141  0.69170832  0.17148128  1
  In  In27  1  0.65427290  0.84957313  0.51726223  1
  In  In28  1  -0.00881259  0.15196642  0.51564908  1
  In  In29  1  0.64532175  0.65889431  0.35087175  1
  In  In30  1  0.17071649  -0.01351984  0.14377655  1
  In  In31  1  0.32560420  0.50971582  0.14684085  1
  In  In32  1  0.65913684  0.50241815  0.18303663  1
  In  In33  1  0.49628062  0.49380587  -0.02934152  1
  In  In34  1  0.16536387  0.31628782  0.81347899  1
  In  In35  1  0.67343072  0.29988946  -0.00787473  1
  In  In36  1  0.15421614  0.30424419  0.50345936  1
  In  In37  1  0.17863363  0.68985715  0.84926551  1
  In  In38  1  0.67990131  0.82389181  0.84662297  1
  In  In39  1  -0.02255052  0.30679141  0.32813487  1
  In  In40  1  0.02036674  0.84429046  0.15422639  1
  In  In41  1  0.83502722  0.66475771  0.14817974  1
  In  In42  1  0.48738697  0.68254156  0.80760307  1
  In  In43  1  0.33658465  0.31973527  0.35499250  1
  In  In44  1  0.33195991  0.69566202  0.34053268  1
  In  In45  1  0.80828255  0.66086212  0.52150255  1
  In  In46  1  0.67156403  0.17263300  0.82168121  1
  In  In47  1  0.35047715  0.50883989  0.81421603  1
  In  In48  1  0.83239163  0.15397310  0.36050997  1
  In  In49  1  0.17756690  0.01872918  0.50369000  1
  In  In50  1  0.83943348  0.00356989  0.83607796  1
  In  In51  1  0.34149254  0.14052260  0.16110604  1
  In  In52  1  0.66569793  0.32363495  0.35669511  1
  In  In53  1  0.33056145  0.33453286  0.00524634  1
  In  In54  1  0.47469787  0.85455345  0.65977855  1
  In  In55  1  -0.02664692  0.48647162  0.51918801  1
  In  In56  1  0.15322648  0.50392300  0.32700907  1
  In  In57  1  0.51776389  0.32625835  0.82425169  1
  In  In58  1  -0.00264995  0.65628942  0.68446635  1
  In  In59  1  0.84807530  0.33167188  0.17040042  1
  In  In60  1  0.49170268  0.84837974  0.00080614  1
  In  In61  1  0.18069605  0.69727288  0.52925814  1
  In  In62  1  0.83777295  0.83669701  0.01218676  1
  In  In63  1  0.31370168  0.13650309  0.82846430  1
  In  In64  1  0.15439838  0.50497602  -0.00339462  1
  In  In65  1  -0.01857903  0.66563235  -0.02089600  1
  In  In66  1  0.68040752  0.33531947  0.68194329  1
  In  In67  1  -0.01045911  0.32533939  -0.01653725  1
  In  In68  1  0.49097290  0.85403792  0.35020601  1
  In  In69  1  0.65293608  0.65705863  0.67540854  1
  In  In70  1  0.85182425  0.86037735  0.35155247  1
  In  In71  1  0.17866743  0.86351283  0.32747836  1
  Te  Te72  1  0.08434957  0.07908650  0.06559436  1
  Te  Te73  1  0.08060897  0.08776468  0.41492712  1
  Te  Te74  1  0.11917221  0.05819734  0.74568034  1
  Te  Te75  1  0.07858295  0.40458845  0.08289478  1
  Te  Te76  1  0.07568239  0.41123757  0.42135993  1
  Te  Te77  1  0.06990190  0.42186331  0.75807568  1
  Te  Te78  1  0.08497227  0.74435929  0.06025246  1
  Te  Te79  1  0.09404625  0.75664308  0.40781748  1
  Te  Te80  1  0.08523036  0.76136229  0.75025859  1
  Te  Te81  1  0.40430117  0.04275922  0.06901008  1
  Te  Te82  1  0.42094156  0.08320664  0.43311514  1
  Te  Te83  1  0.40388909  0.07610293  0.72352339  1
  Te  Te84  1  0.43104082  0.41628371  0.08647937  1
  Te  Te85  1  0.42726230  0.40618157  0.44031734  1
  Te  Te86  1  0.40546095  0.39174943  0.73476080  1
  Te  Te87  1  0.40472531  0.75766976  0.08170865  1
  Te  Te88  1  0.44136263  0.73857208  0.42787546  1
  Te  Te89  1  0.39081313  0.79091480  0.76961348  1
  Te  Te90  1  0.75455834  0.09173129  0.06571227  1
  Te  Te91  1  0.71627990  0.07383022  0.40276119  1
  Te  Te92  1  0.77096576  0.09444591  0.73370836  1
  Te  Te93  1  0.74383514  0.41147127  0.08980989  1
  Te  Te94  1  0.72395652  0.42734510  0.44716482  1
  Te  Te95  1  0.76729515  0.44833417  0.72861826  1
  Te  Te96  1  0.73148620  0.73776599  0.06436466  1
  Te  Te97  1  0.75061171  0.76170770  0.41679877  1
  Te  Te98  1  0.75974627  0.75705628  0.73164874  1
  Te  Te99  1  0.09728151  0.24458483  0.25910838  1
  Te  Te100  1  0.09265800  0.21664141  0.61059727  1
  Te  Te101  1  0.09668791  0.23653048  0.92079071  1
  Te  Te102  1  0.08232872  0.58129999  0.21596894  1
  Te  Te103  1  0.08531888  0.57866376  0.57471566  1
  Te  Te104  1  0.07528022  0.58178626  0.89106597  1
  Te  Te105  1  0.06894350  0.94094397  0.26093678  1
  Te  Te106  1  0.08027460  0.94502577  0.60205018  1
  Te  Te107  1  0.14413923  0.91011112  0.92706135  1
  Te  Te108  1  0.41101452  0.25321480  0.23928631  1
  Te  Te109  1  0.39684862  0.29032163  0.61238886  1
  Te  Te110  1  0.41508580  0.24690781  0.90892223  1
  Te  Te111  1  0.40851368  0.57829785  0.25852964  1
  Te  Te112  1  0.41255642  0.59625754  0.61100776  1
  Te  Te113  1  0.40526090  0.60424381  0.91865689  1
  Te  Te114  1  0.41925153  0.92263963  0.24002575  1
  Te  Te115  1  0.37871191  0.91074769  0.56176296  1
  Te  Te116  1  0.40340320  0.90346072  0.88897274  1
  Te  Te117  1  0.75173478  0.24615167  0.25335808  1
  Te  Te118  1  0.76302476  0.23982499  0.60083085  1
  Te  Te119  1  0.77160395  0.26196096  0.88746949  1
  Te  Te120  1  0.75983214  0.58940431  0.26057869  1
  Te  Te121  1  0.74594076  0.55629074  0.61004643  1
  Te  Te122  1  0.73666845  0.59905739  0.91978931  1
  Te  Te123  1  0.74962012  0.92796201  0.25827660  1
  Te  Te124  1  0.77203603  0.93595453  0.56978369  1
  Te  Te125  1  0.74409524  0.92988376  0.93334160  1
  Te  Te126  1  0.25143728  0.21549644  0.05911448  1
  Te  Te127  1  0.24325445  0.21759039  0.41461774  1
  Te  Te128  1  0.26066344  0.23885210  0.73158996  1
  Te  Te129  1  0.25020958  0.60682835  0.05987776  1
  Te  Te130  1  0.24239205  0.59094020  0.41611175  1
  Te  Te131  1  0.25469007  0.60441812  0.74287647  1
  Te  Te132  1  0.23731946  0.88948241  0.05218541  1
  Te  Te133  1  0.27286164  0.90343348  0.44318923  1
  Te  Te134  1  0.23321881  0.95714389  0.77591900  1
  Te  Te135  1  0.57043248  0.24736700  0.09116211  1
  Te  Te136  1  0.56522275  0.24396296  0.43621893  1
  Te  Te137  1  0.56855488  0.22561690  0.72421536  1
  Te  Te138  1  0.58156282  0.57585469  0.07471214  1
  Te  Te139  1  0.58426026  0.57693790  0.45531902  1
  Te  Te140  1  0.58007349  0.56532305  0.77257958  1
  Te  Te141  1  0.58147586  0.94010587  0.07749706  1
  Te  Te142  1  0.58852937  0.94150367  0.42208278  1
  Te  Te143  1  0.58840994  0.90915359  0.75641436  1
  Te  Te144  1  0.89912139  0.23334075  0.06700070  1
  Te  Te145  1  0.89696852  0.26156783  0.44635576  1
  Te  Te146  1  0.91422073  0.23148693  0.76147081  1
  Te  Te147  1  0.91999045  0.56296339  0.07404904  1
  Te  Te148  1  0.90825201  0.58784182  0.41934580  1
  Te  Te149  1  0.89755427  0.56168374  0.74180277  1
  Te  Te150  1  0.94254231  0.93764751  0.06150107  1
  Te  Te151  1  0.92888729  0.96453743  0.42899345  1
  Te  Te152  1  0.94964238  0.92628480  0.76924025  1
  Te  Te153  1  0.23564437  0.07818678  0.25075078  1
  Te  Te154  1  0.26700450  0.08226453  0.60655259  1
  Te  Te155  1  0.22250820  0.04900306  0.90955152  1
  Te  Te156  1  0.25415170  0.41295169  0.25223953  1
  Te  Te157  1  0.24761248  0.40310942  0.57555550  1
  Te  Te158  1  0.25274090  0.42328285  0.90657806  1
  Te  Te159  1  0.27676675  0.79102678  0.23456012  1
  Te  Te160  1  0.28925573  0.77346028  0.59898394  1
  Te  Te161  1  0.25502245  0.79474282  0.92325418  1
  Te  Te162  1  0.56274887  0.05894484  0.23875279  1
  Te  Te163  1  0.56229420  0.07591721  0.58615858  1
  Te  Te164  1  0.59331627  0.08221852  0.91727859  1
  Te  Te165  1  0.57503832  0.40037489  0.25745544  1
  Te  Te166  1  0.59578062  0.40279038  0.57788252  1
  Te  Te167  1  0.61086824  0.41303590  0.90687840  1
  Te  Te168  1  0.58839303  0.75517525  0.24690666  1
  Te  Te169  1  0.56617060  0.74834831  0.58913285  1
  Te  Te170  1  0.57359956  0.74372922  0.91854789  1
  Te  Te171  1  0.91461528  0.09180874  0.24759618  1
  Te  Te172  1  0.89887367  0.04869992  0.56658771  1
  Te  Te173  1  0.93687870  0.07321454  0.92562670  1
  Te  Te174  1  0.93670100  0.43002366  0.24685845  1
  Te  Te175  1  0.88735912  0.39807048  0.60049581  1
  Te  Te176  1  0.90894279  0.40617919  0.88967193  1
  Te  Te177  1  0.91065470  0.76471337  0.23783335  1
  Te  Te178  1  0.92766727  0.75125634  0.57635757  1
  Te  Te179  1  0.92347599  0.78068839  0.89711379  1
