# generated using pymatgen
data_In2Te3
_symmetry_space_group_name_H-M   'P 1'
_cell_length_a   18.75331924
_cell_length_b   18.75683532
_cell_length_c   18.74961341
_cell_angle_alpha   89.99972276
_cell_angle_beta   90.02673503
_cell_angle_gamma   89.89698016
_symmetry_Int_Tables_number   1
_chemical_formula_structural   In2Te3
_chemical_formula_sum   'In72 Te108'
_cell_volume   6595.21989575
_cell_formula_units_Z   36
loop_
 _symmetry_equiv_pos_site_id
 _symmetry_equiv_pos_as_xyz
  1  'x, y, z'
loop_
 _atom_site_type_symbol
 _atom_site_label
 _atom_site_symmetry_multiplicity
 _atom_site_fract_x
 _atom_site_fract_y
 _atom_site_fract_z
 _atom_site_occupancy
  In  In0  1  0.49968191  0.32415818  0.14803240  1
  In  In1  1  0.33451651  0.47179008  0.50430407  1
  In  In2  1  -0.02296898  0.63995869  0.34998020  1
  In  In3  1  0.83031126  0.84265808  0.67938235  1
  In  In4  1  0.68794943  0.49493293  0.49935079  1
  In  In5  1  0.15719699  0.32582369  0.49102911  1
  In  In6  1  -0.00234581  0.66545012  0.66800019  1
  In  In7  1  0.01653848  0.68445006  -0.02667972  1
  In  In8  1  0.15832342  0.46222032  0.32187673  1
  In  In9  1  0.52248614  0.49477210  0.71301526  1
  In  In10  1  0.36458939  0.88310578  0.51811268  1
  In  In11  1  0.18919848  0.45610196  -0.02736679  1
  In  In12  1  0.50142202  0.69607170  0.16613121  1
  In  In13  1  0.65300809  0.15621412  0.50001802  1
  In  In14  1  0.51294343  0.66537914  0.52371256  1
  In  In15  1  0.19528992  0.18416208  0.68963945  1
  In  In16  1  0.49716968  0.31127199  0.50470941  1
  In  In17  1  0.82805068  0.65504031  0.84231791  1
  In  In18  1  0.17226334  0.17823582  0.00360653  1
  In  In19  1  0.81681997  0.49239149  0.67242394  1
  In  In20  1  0.32999782  0.01790390  0.32811154  1
  In  In21  1  -0.00789779  0.47711660  0.14695831  1
  In  In22  1  0.36288251  0.63996781  -0.01049353  1
  In  In23  1  -0.01070284  0.02104107  0.33308481  1
  In  In24  1  0.68054744  0.49656892  0.16369913  1
  In  In25  1  0.80396092  0.83847739  0.33162879  1
  In  In26  1  0.15608457  0.01206862  0.47760398  1
  In  In27  1  0.48478003  0.00661058  0.51899348  1
  In  In28  1  0.34370490  0.16697315  0.15987437  1
  In  In29  1  0.83823130  0.83475352  0.01314239  1
  In  In30  1  0.82176650  0.49183515  -0.01046924  1
  In  In31  1  0.00202547  0.34013372  -0.00432865  1
  In  In32  1  0.13659176  0.84070134  0.31442743  1
  In  In33  1  0.16647801  0.84558540  0.65419231  1
  In  In34  1  0.64883271  0.86471638  0.15806071  1
  In  In35  1  0.66529609  0.83010744  0.50399418  1
  In  In36  1  0.18580136  0.86195288  -0.01813763  1
  In  In37  1  -0.00536827  0.32554551  0.67738950  1
  In  In38  1  0.16864379  0.64691343  0.52797470  1
  In  In39  1  0.83569272  0.48475679  0.33791394  1
  In  In40  1  0.33261989  0.17928403  0.50223900  1
  In  In41  1  0.64532177  0.02614244  -0.01694974  1
  In  In42  1  0.49744404  0.85636114  0.32851223  1
  In  In43  1  0.01189511  0.18050759  0.16566831  1
  In  In44  1  0.48977213  0.30818533  0.83951941  1
  In  In45  1  0.82793779  0.31717004  0.17523568  1
  In  In46  1  0.36433279  0.03400058  0.69116664  1
  In  In47  1  0.83705098  0.00387987  0.82775490  1
  In  In48  1  0.51436550  0.47880186  -0.01247048  1
  In  In49  1  0.64196752  0.85655671  0.81085243  1
  In  In50  1  0.15463385  0.00781501  0.83726536  1
  In  In51  1  0.33385431  0.67342823  0.69327229  1
  In  In52  1  0.34803909  0.85975055  0.17034544  1
  In  In53  1  0.17408097  0.67078276  0.16431066  1
  In  In54  1  0.83633211  0.64529352  0.18218285  1
  In  In55  1  0.50441014  0.47510777  0.34788768  1
  In  In56  1  0.35983604  0.01172052  -0.00239369  1
  In  In57  1  0.82655492  0.01885750  0.50187607  1
  In  In58  1  0.82499581  -0.00427234  0.15560283  1
  In  In59  1  0.64954509  0.16444554  0.16669788  1
  In  In60  1  0.83007340  0.15490964  0.66898152  1
  In  In61  1  0.35522156  0.65074839  0.34208869  1
  In  In62  1  -0.00148470  0.82385139  0.51726488  1
  In  In63  1  0.16685209  0.48714922  0.67294736  1
  In  In64  1  0.64765320  0.33514836  0.67802282  1
  In  In65  1  -0.00755947  0.16855940  0.83509643  1
  In  In66  1  0.33117770  0.46818275  0.16931194  1
  In  In67  1  0.35245652  0.83247607  0.84036482  1
  In  In68  1  0.66540003  0.68006478  -0.02280417  1
  In  In69  1  0.85137010  0.30393090  0.47509944  1
  In  In70  1  0.15825438  0.65292130  0.82159965  1
  In  In71  1  -0.00331872  0.86912529  0.17624227  1
  Te  Te72  1  0.07554895  0.08704186  0.06886416  1
  Te  Te73  1  0.08089283  0.11981031  0.40284246  1
  Te  Te74  1  0.08035642  0.09205034  0.73528034  1
  Te  Te75  1  0.10841147  0.39687029  0.09165221  1
  Te  Te76  1  0.06754932  0.42941543  0.43255327  1
  Te  Te77  1  0.08374434  0.40607254  0.76439466  1
  Te  Te78  1  0.08220914  0.76686911  0.08770780  1
  Te  Te79  1  0.08758268  0.73750369  0.42387562  1
  Te  Te80  1  0.07971795  0.76423121  0.75078413  1
  Te  Te81  1  0.44864147  0.10495536  0.07173311  1
  Te  Te82  1  0.42835416  0.09953368  0.41077761  1
  Te  Te83  1  0.43440195  0.10590103  0.80287729  1
  Te  Te84  1  0.40248877  0.39745102  0.05259340  1
  Te  Te85  1  0.39684759  0.38311491  0.39882375  1
  Te  Te86  1  0.41361014  0.40091605  0.74666675  1
  Te  Te87  1  0.41275389  0.76618984  0.06532082  1
  Te  Te88  1  0.42510930  0.76165316  0.42698994  1
  Te  Te89  1  0.44397725  0.74248265  0.76282904  1
  Te  Te90  1  0.74992157  0.09694184  0.06888508  1
  Te  Te91  1  0.75754347  0.10628725  0.40495056  1
  Te  Te92  1  0.73445310  0.09176041  0.76417374  1
  Te  Te93  1  0.73792566  0.39006703  0.06957013  1
  Te  Te94  1  0.74045452  0.38605809  0.40513262  1
  Te  Te95  1  0.74605070  0.40176834  0.76685631  1
  Te  Te96  1  0.74583346  0.74600641  0.09910895  1
  Te  Te97  1  0.75379838  0.73839683  0.42586923  1
  Te  Te98  1  0.73985992  0.74773955  0.75725198  1
  Te  Te99  1  0.05963892  0.26179649  0.27958627  1
  Te  Te100  1  0.08572566  0.23527283  0.59343529  1
  Te  Te101  1  0.09431244  0.26174615  0.90054108  1
  Te  Te102  1  0.07643540  0.58198459  0.24324590  1
  Te  Te103  1  0.06106489  0.55540498  0.58137967  1
  Te  Te104  1  0.08487336  0.55951583  0.91807417  1
  Te  Te105  1  0.09938105  0.96504187  0.23700895  1
  Te  Te106  1  0.06984948  0.94115214  0.58393014  1
  Te  Te107  1  0.06782758  0.91318557  0.90967773  1
  Te  Te108  1  0.43436254  0.24290977  0.25229690  1
  Te  Te109  1  0.41792041  0.23979205  0.60657622  1
  Te  Te110  1  0.38563420  0.21724026  0.90277330  1
  Te  Te111  1  0.43068227  0.56866759  0.23078157  1
  Te  Te112  1  0.40376469  0.57863855  0.58870242  1
  Te  Te113  1  0.44736720  0.57114137  0.88752263  1
  Te  Te114  1  0.44820162  0.96407173  0.22830955  1
  Te  Te115  1  0.45171917  0.90658710  0.64421497  1
  Te  Te116  1  0.44407970  0.92905748  0.90543293  1
  Te  Te117  1  0.74042413  0.23571070  0.26265928  1
  Te  Te118  1  0.74285396  0.25946910  0.58198912  1
  Te  Te119  1  0.69359195  0.27124828  0.94858672  1
  Te  Te120  1  0.73430695  0.58530264  0.27519544  1
  Te  Te121  1  0.72833831  0.58964342  0.60453551  1
  Te  Te122  1  0.71476927  0.55771494  0.89344783  1
  Te  Te123  1  0.72346780  0.94930354  0.26309993  1
  Te  Te124  1  0.74135664  0.93222620  0.59249270  1
  Te  Te125  1  0.73999055  0.91069546  0.92396686  1
  Te  Te126  1  0.26123790  0.26723230  0.08204956  1
  Te  Te127  1  0.24035153  0.23834601  0.40291316  1
  Te  Te128  1  0.27303457  0.26515828  0.78874148  1
  Te  Te129  1  0.25112313  0.57243130  0.07466720  1
  Te  Te130  1  0.24265660  0.56960486  0.41384043  1
  Te  Te131  1  0.26571086  0.55947563  0.76796998  1
  Te  Te132  1  0.24992412  0.94568857  0.09041629  1
  Te  Te133  1  0.24898066  0.90732462  0.41046819  1
  Te  Te134  1  0.25724786  0.92075585  0.75216777  1
  Te  Te135  1  0.58019856  0.23803949  0.04655456  1
  Te  Te136  1  0.57899766  0.24236497  0.40326688  1
  Te  Te137  1  0.58970586  0.22143757  0.75963078  1
  Te  Te138  1  0.58594398  0.58662073  0.08132440  1
  Te  Te139  1  0.58433706  0.58441991  0.41533444  1
  Te  Te140  1  0.59191132  0.59274809  0.79650986  1
  Te  Te141  1  0.56339198  0.92124960  0.05257391  1
  Te  Te142  1  0.58479094  0.93496425  0.42558190  1
  Te  Te143  1  0.57764276  0.95961005  0.72343806  1
  Te  Te144  1  0.90838573  0.24425505  0.06758899  1
  Te  Te145  1  0.95702768  0.23522500  0.39548162  1
  Te  Te146  1  0.88814250  0.25852374  0.76656409  1
  Te  Te147  1  0.91999618  0.59577570  0.06363974  1
  Te  Te148  1  0.88974964  0.57206324  0.44600414  1
  Te  Te149  1  0.92481228  0.56994909  0.76141429  1
  Te  Te150  1  0.93404205  0.94486656  0.05882770  1
  Te  Te151  1  0.91955268  0.90705952  0.41171928  1
  Te  Te152  1  0.93177982  0.92893417  0.74176193  1
  Te  Te153  1  0.24022866  0.10479784  0.25070822  1
  Te  Te154  1  0.25362791  0.06892527  0.58489566  1
  Te  Te155  1  0.25963336  0.09088772  0.90761644  1
  Te  Te156  1  0.24903762  0.37332206  0.24709134  1
  Te  Te157  1  0.25421897  0.38540776  0.59827361  1
  Te  Te158  1  0.28481929  0.39479377  0.87818764  1
  Te  Te159  1  0.26754114  0.75629375  0.25419000  1
  Te  Te160  1  0.26577137  0.75771426  0.57666119  1
  Te  Te161  1  0.24911820  0.73556462  0.92059077  1
  Te  Te162  1  0.57936832  0.05374909  0.23594074  1
  Te  Te163  1  0.58087173  0.08092150  0.60930070  1
  Te  Te164  1  0.57577721  0.10609864  0.87553718  1
  Te  Te165  1  0.59172433  0.40283462  0.24513545  1
  Te  Te166  1  0.56687177  0.43131179  0.57430251  1
  Te  Te167  1  0.60537918  0.38923105  0.90217194  1
  Te  Te168  1  0.59644694  0.75802212  0.26486179  1
  Te  Te169  1  0.58961099  0.75618232  0.60948140  1
  Te  Te170  1  0.56747271  0.76460715  0.90523681  1
  Te  Te171  1  0.89815754  0.09870230  0.24087900  1
  Te  Te172  1  0.92757742  0.09894985  0.57299365  1
  Te  Te173  1  0.89852345  0.09853407  0.92486962  1
  Te  Te174  1  0.93239739  0.39435648  0.26046782  1
  Te  Te175  1  0.90407421  0.40180698  0.57984026  1
  Te  Te176  1  0.91044887  0.41215849  0.90314920  1
  Te  Te177  1  0.92187725  0.75654387  0.25087894  1
  Te  Te178  1  0.89296989  0.73790728  0.58329850  1
  Te  Te179  1  0.91492044  0.76917131  0.89715282  1
