# generated using pymatgen
data_In2Te3
_symmetry_space_group_name_H-M   'P 1'
_cell_length_a   18.78850925
_cell_length_b   18.79046149
_cell_length_c   18.79632391
_cell_angle_alpha   89.99243193
_cell_angle_beta   90.04136507
_cell_angle_gamma   90.10813051
_symmetry_Int_Tables_number   1
_chemical_formula_structural   In2Te3
_chemical_formula_sum   'In72 Te108'
_cell_volume   6635.93004698
_cell_formula_units_Z   36
loop_
 _symmetry_equiv_pos_site_id
 _symmetry_equiv_pos_as_xyz
  1  'x, y, z'
loop_
 _atom_site_type_symbol
 _atom_site_label
 _atom_site_symmetry_multiplicity
 _atom_site_fract_x
 _atom_site_fract_y
 _atom_site_fract_z
 _atom_site_occupancy
  In  In0  1  0.19293847  0.33346244  0.16824640  1
  In  In1  1  0.80770485  -0.01324999  0.16090358  1
  In  In2  1  0.02653987  0.84773783  0.49888127  1
  In  In3  1  0.33014398  0.01337282  0.00849386  1
  In  In4  1  0.19414268  0.66019903  0.15580812  1
  In  In5  1  0.47873656  0.84401965  0.67807099  1
  In  In6  1  0.65317662  0.17050271  0.48259083  1
  In  In7  1  0.01066612  0.47616500  0.19389088  1
  In  In8  1  0.00026254  0.80989397  0.15739524  1
  In  In9  1  0.18084910  0.51620587  0.34566192  1
  In  In10  1  0.16708045  0.50375820  0.66539754  1
  In  In11  1  0.82139970  0.03908693  0.48787999  1
  In  In12  1  0.04521542  0.67275850  0.66656929  1
  In  In13  1  0.83188863  0.83247507  0.01378496  1
  In  In14  1  0.34272575  0.50257451  0.47887150  1
  In  In15  1  0.68089590  0.30969995  -0.03693047  1
  In  In16  1  0.63596875  0.48454673  0.82471746  1
  In  In17  1  0.47061348  0.66316783  0.18649041  1
  In  In18  1  0.02693961  0.20537932  0.49900323  1
  In  In19  1  0.00273282  0.16586026  0.14339598  1
  In  In20  1  0.17814232  0.17449964  0.35082054  1
  In  In21  1  0.65031079  0.33298946  0.65846991  1
  In  In22  1  0.49880341  0.18309807  0.32561226  1
  In  In23  1  0.86381639  0.64930995  0.47085374  1
  In  In24  1  0.33881837  0.34246834  0.00854519  1
  In  In25  1  0.50155102  0.34623576  0.81791661  1
  In  In26  1  -0.00008248  0.36635960  0.32438656  1
  In  In27  1  0.33588367  0.15998098  0.80652222  1
  In  In28  1  0.03401495  -0.02203540  -0.03985982  1
  In  In29  1  0.19379935  0.01827195  0.52578379  1
  In  In30  1  0.81838714  0.83003283  0.31303593  1
  In  In31  1  0.32139971  0.66858543  0.66365282  1
  In  In32  1  0.63428263  0.50078136  0.49930539  1
  In  In33  1  0.17047308  -0.00436651  0.15530694  1
  In  In34  1  0.84028244  0.33180445  0.18475581  1
  In  In35  1  0.03849887  -0.00565847  0.66343156  1
  In  In36  1  0.49946669  0.02225245  0.82693122  1
  In  In37  1  0.83000479  0.36624921  0.51241945  1
  In  In38  1  0.01553427  0.68428637  0.01820092  1
  In  In39  1  0.00080178  0.49759752  0.81524606  1
  In  In40  1  0.82550848  0.00573882  0.83515858  1
  In  In41  1  0.50881961  0.82280105  0.00595696  1
  In  In42  1  0.80960279  0.17741096  0.33403713  1
  In  In43  1  0.66451353  0.15923282  0.16819877  1
  In  In44  1  0.48456924  0.82028535  0.33431638  1
  In  In45  1  0.34532367  -0.00914906  0.32483315  1
  In  In46  1  0.17913286  0.31743567  0.52506224  1
  In  In47  1  0.49481189  0.67066050  0.48353740  1
  In  In48  1  0.48744737  0.35139267  0.16732136  1
  In  In49  1  0.81071899  0.47905391  0.66351540  1
  In  In50  1  0.64343021  0.50621618  0.17402655  1
  In  In51  1  0.83952688  0.66844972  0.84276225  1
  In  In52  1  0.65675584  0.64890473  0.68142322  1
  In  In53  1  0.01897774  0.16260635  0.82691078  1
  In  In54  1  0.65958741  0.67449043  0.00630569  1
  In  In55  1  0.01204231  0.31545295  -0.01702907  1
  In  In56  1  0.17269184  0.80535039  0.33612831  1
  In  In57  1  0.64836279  -0.00717193  0.00550983  1
  In  In58  1  0.82301556  0.66616753  0.17298016  1
  In  In59  1  0.31587502  0.83681211  0.83108153  1
  In  In60  1  0.32816418  0.34561388  0.33503876  1
  In  In61  1  0.83499434  0.48531150  0.00614701  1
  In  In62  1  0.17802274  0.68392740  0.83781946  1
  In  In63  1  0.46762059  -0.00893208  0.52607320  1
  In  In64  1  0.84602752  0.15214580  0.67166599  1
  In  In65  1  0.48586487  0.15143797  0.01453794  1
  In  In66  1  0.19545875  0.50166902  -0.00745121  1
  In  In67  1  0.65184101  0.01853157  0.66561974  1
  In  In68  1  0.01450477  0.33127280  0.65304979  1
  In  In69  1  0.66700037  0.83715922  0.49336390  1
  In  In70  1  -0.02085575  -0.00868436  0.33921316  1
  In  In71  1  0.83731407  0.82661227  0.67514333  1
  Te  Te72  1  0.09594295  0.08473878  0.05548681  1
  Te  Te73  1  0.07857880  0.07466598  0.42118139  1
  Te  Te74  1  0.12294844  0.07376684  0.75793607  1
  Te  Te75  1  0.08966424  0.41588771  0.07757591  1
  Te  Te76  1  0.10292134  0.41147345  0.42651167  1
  Te  Te77  1  0.10199642  0.40017388  0.75906105  1
  Te  Te78  1  0.12291459  0.77612068  0.07222995  1
  Te  Te79  1  0.08075429  0.73202523  0.42602853  1
  Te  Te80  1  0.07432978  0.77046096  0.77516777  1
  Te  Te81  1  0.42625356  0.06051438  0.11480299  1
  Te  Te82  1  0.41697011  0.08731200  0.41860272  1
  Te  Te83  1  0.39855923  0.05326156  0.71926462  1
  Te  Te84  1  0.40656273  0.44842010  0.08817433  1
  Te  Te85  1  0.43868523  0.40762727  0.41430534  1
  Te  Te86  1  0.39259976  0.43631185  0.77040647  1
  Te  Te87  1  0.40504823  0.73433715  0.06941988  1
  Te  Te88  1  0.38418314  0.74822929  0.42031762  1
  Te  Te89  1  0.41620875  0.73765754  0.76569251  1
  Te  Te90  1  0.75427102  0.09079648  0.06532806  1
  Te  Te91  1  0.71381975  0.06856493  0.38471305  1
  Te  Te92  1  0.73239214  0.10939225  0.76568164  1
  Te  Te93  1  0.73709849  0.40776080  0.09064869  1
  Te  Te94  1  0.72234885  0.40832328  0.42331101  1
  Te  Te95  1  0.74412782  0.39158576  0.76701253  1
  Te  Te96  1  0.73020697  0.76753532  0.10576875  1
  Te  Te97  1  0.74769090  0.73697540  0.41378501  1
  Te  Te98  1  0.73801023  0.75163137  0.76388578  1
  Te  Te99  1  0.07942306  0.24789609  0.24978565  1
  Te  Te100  1  0.11548533  0.21789302  0.62306536  1
  Te  Te101  1  0.11464401  0.24888009  0.90229542  1
  Te  Te102  1  0.09002797  0.59452854  0.24861519  1
  Te  Te103  1  0.11135361  0.59453630  0.56162878  1
  Te  Te104  1  0.07716928  0.58109605  0.91976081  1
  Te  Te105  1  0.07580271  0.91059242  0.25380054  1
  Te  Te106  1  0.13153120  0.88763991  0.60186227  1
  Te  Te107  1  0.13233380  0.89756913  0.88264156  1
  Te  Te108  1  0.39400627  0.25036779  0.23557088  1
  Te  Te109  1  0.37176318  0.23725083  0.61865171  1
  Te  Te110  1  0.42154284  0.24437598  0.91256048  1
  Te  Te111  1  0.37084400  0.57356700  0.25110888  1
  Te  Te112  1  0.42061204  0.58392518  0.58479089  1
  Te  Te113  1  0.45218398  0.51341311  0.88306419  1
  Te  Te114  1  0.40956659  0.89696517  0.23093784  1
  Te  Te115  1  0.37223854  0.88457707  0.57839240  1
  Te  Te116  1  0.42269970  0.92364313  0.91467067  1
  Te  Te117  1  0.71872251  0.27226614  0.25929385  1
  Te  Te118  1  0.76070598  0.23694158  0.57633588  1
  Te  Te119  1  0.76544473  0.22264778  0.88465128  1
  Te  Te120  1  0.72984474  0.59282596  0.26007602  1
  Te  Te121  1  0.75321049  0.59305304  0.57681995  1
  Te  Te122  1  0.74510185  0.57062311  0.91442630  1
  Te  Te123  1  0.71752558  0.92121669  0.25639711  1
  Te  Te124  1  0.75393256  0.93072113  0.59135525  1
  Te  Te125  1  0.74125171  0.90725276  0.91672703  1
  Te  Te126  1  0.25837049  0.23754573  0.08004018  1
  Te  Te127  1  0.28102597  0.24213528  0.43911539  1
  Te  Te128  1  0.28186398  0.27556439  0.72827888  1
  Te  Te129  1  0.29145540  0.59469947  0.05937646  1
  Te  Te130  1  0.27046584  0.61628716  0.41408633  1
  Te  Te131  1  0.25709489  0.57502257  0.76787189  1
  Te  Te132  1  0.25252251  0.90416277  0.07491346  1
  Te  Te133  1  0.23283743  0.93002917  0.40948284  1
  Te  Te134  1  0.23307794  0.94744630  0.77434256  1
  Te  Te135  1  0.57979293  0.25661653  0.08102400  1
  Te  Te136  1  0.55817209  0.27107408  0.43080607  1
  Te  Te137  1  0.56605492  0.24001353  0.73684640  1
  Te  Te138  1  0.55871673  0.58712682  0.07704737  1
  Te  Te139  1  0.57585914  0.58791290  0.39174794  1
  Te  Te140  1  0.54527496  0.57938583  0.75309386  1
  Te  Te141  1  0.57242862  0.91468853  0.10403149  1
  Te  Te142  1  0.56234948  0.92292304  0.42704963  1
  Te  Te143  1  0.58850846  0.91621925  0.75868542  1
  Te  Te144  1  0.90002869  0.25120798  0.06973265  1
  Te  Te145  1  0.91160471  0.26219205  0.41017610  1
  Te  Te146  1  0.92194380  0.25768699  0.75012002  1
  Te  Te147  1  0.92232828  0.58056149  0.08821038  1
  Te  Te148  1  0.92781318  0.53843927  0.40092496  1
  Te  Te149  1  0.91277849  0.59170859  0.73305574  1
  Te  Te150  1  0.93269700  0.93088597  0.08445211  1
  Te  Te151  1  0.89407748  0.90529585  0.43287374  1
  Te  Te152  1  0.92510258  0.92909048  0.74723868  1
  Te  Te153  1  0.24920787  0.08892616  0.24753981  1
  Te  Te154  1  0.29318738  0.10215977  0.59794219  1
  Te  Te155  1  0.24934342  0.08332262  0.90472521  1
  Te  Te156  1  0.26957122  0.45443857  0.23146125  1
  Te  Te157  1  0.27081531  0.42131302  0.58916781  1
  Te  Te158  1  0.24856447  0.39821583  0.90264069  1
  Te  Te159  1  0.27503648  0.74430294  0.24873609  1
  Te  Te160  1  0.25430904  0.77825311  0.59224336  1
  Te  Te161  1  0.28394904  0.73028083  0.93266532  1
  Te  Te162  1  0.55683232  0.08004608  0.23333644  1
  Te  Te163  1  0.55822022  0.10356740  0.58372251  1
  Te  Te164  1  0.59210546  0.10310520  0.91631060  1
  Te  Te165  1  0.55558539  0.43378654  0.27067778  1
  Te  Te166  1  0.55351549  0.42513985  0.59692718  1
  Te  Te167  1  0.56916594  0.41969530  0.94702722  1
  Te  Te168  1  0.57933153  0.72816012  0.26502668  1
  Te  Te169  1  0.58050942  0.75736745  0.59233111  1
  Te  Te170  1  0.57744134  0.74003694  0.90379765  1
  Te  Te171  1  0.90861998  0.09114414  0.24719773  1
  Te  Te172  1  0.94243276  0.08218350  0.57492267  1
  Te  Te173  1  0.92680366  0.08115355  0.92065491  1
  Te  Te174  1  0.87648443  0.45408209  0.27484497  1
  Te  Te175  1  0.93958234  0.44439476  0.58340320  1
  Te  Te176  1  0.91501578  0.40661952  0.90397022  1
  Te  Te177  1  0.92712334  0.73357666  0.26667781  1
  Te  Te178  1  0.92701337  0.74628330  0.58142485  1
  Te  Te179  1  0.93044899  0.76547505  0.91836276  1
