# generated using pymatgen
data_In2Te3
_symmetry_space_group_name_H-M   'P 1'
_cell_length_a   19.00726359
_cell_length_b   18.95190836
_cell_length_c   18.97370898
_cell_angle_alpha   89.77005199
_cell_angle_beta   90.04472843
_cell_angle_gamma   90.22146154
_symmetry_Int_Tables_number   1
_chemical_formula_structural   In2Te3
_chemical_formula_sum   'In72 Te108'
_cell_volume   6834.67568281
_cell_formula_units_Z   36
loop_
 _symmetry_equiv_pos_site_id
 _symmetry_equiv_pos_as_xyz
  1  'x, y, z'
loop_
 _atom_site_type_symbol
 _atom_site_label
 _atom_site_symmetry_multiplicity
 _atom_site_fract_x
 _atom_site_fract_y
 _atom_site_fract_z
 _atom_site_occupancy
  In  In0  1  0.48672903  -0.01562396  0.83791239  1
  In  In1  1  0.47659053  0.82696302  -0.01612479  1
  In  In2  1  0.00479071  0.15510071  0.17585795  1
  In  In3  1  -0.01877933  0.84424995  0.50738542  1
  In  In4  1  0.15931149  0.01768152  0.79926035  1
  In  In5  1  0.33198781  0.50354970  0.17020073  1
  In  In6  1  0.50330654  0.34489565  0.80818249  1
  In  In7  1  0.49334509  0.65781265  0.80019423  1
  In  In8  1  -0.01969619  0.65546316  0.33012295  1
  In  In9  1  0.51394631  0.03195636  0.17142407  1
  In  In10  1  0.50837154  0.66859985  0.17635026  1
  In  In11  1  0.81704527  0.51944758  0.66072169  1
  In  In12  1  0.49345946  0.49211630  -0.01376648  1
  In  In13  1  0.14968180  0.72973434  -0.10616664  1
  In  In14  1  0.33398827  0.00708868  -0.00684125  1
  In  In15  1  0.66737897  -0.03190271  -0.01420678  1
  In  In16  1  0.69949338  0.31477457  0.01667869  1
  In  In17  1  0.16044229  0.33340315  0.17055288  1
  In  In18  1  0.51481430  0.83977137  0.31642639  1
  In  In19  1  0.16644051  0.83774430  0.33572142  1
  In  In20  1  0.30879066  0.48911255  0.48481960  1
  In  In21  1  0.64537159  0.51410195  0.82934792  1
  In  In22  1  0.95091554  0.17304569  0.63421841  1
  In  In23  1  0.00806961  0.48554899  0.49456037  1
  In  In24  1  -0.01111697  0.65215415  0.01561953  1
  In  In25  1  0.69158609  0.83748415  0.82046922  1
  In  In26  1  0.82063783  -0.01593306  0.16794854  1
  In  In27  1  0.67856922  0.18069740  0.84727686  1
  In  In28  1  0.34235905  0.14774197  0.82645785  1
  In  In29  1  -0.01317389  0.48025688  0.17029964  1
  In  In30  1  0.34410902  0.18386157  0.49392139  1
  In  In31  1  0.49084673  0.66338198  0.48428616  1
  In  In32  1  0.66778762  0.35946731  0.66239406  1
  In  In33  1  0.00308904  0.83057941  0.83314385  1
  In  In34  1  0.49949359  0.18938805  0.00148343  1
  In  In35  1  0.14762043  0.64359569  0.15944993  1
  In  In36  1  -0.00245867  0.82575766  0.18490518  1
  In  In37  1  0.15717744  0.16619098  0.34135607  1
  In  In38  1  0.15545870  0.50265934  0.67273499  1
  In  In39  1  0.02955339  -0.02903068  -0.00744923  1
  In  In40  1  0.16395178  0.00801168  0.50347190  1
  In  In41  1  0.69251739  0.18638628  0.19252371  1
  In  In42  1  0.83329856  0.82351297  0.66768090  1
  In  In43  1  0.15881364  0.19371003  0.64018985  1
  In  In44  1  0.78754394  0.50016591  0.32956379  1
  In  In45  1  0.33502298  0.31792216  0.31825479  1
  In  In46  1  0.49940161  0.85106885  0.63815152  1
  In  In47  1  0.32193271  0.67084400  0.64946966  1
  In  In48  1  0.81493843  0.79001521  0.33869630  1
  In  In49  1  0.85822270  0.14453630  0.00935401  1
  In  In50  1  -0.02657098  0.02094418  0.34628507  1
  In  In51  1  0.32611143  0.65310836  0.34975238  1
  In  In52  1  0.83994564  0.33611360  0.50995478  1
  In  In53  1  0.82997402  0.66171128  0.83565506  1
  In  In54  1  0.00686003  0.35324014  -0.01633367  1
  In  In55  1  0.65363078  0.80566095  0.16685059  1
  In  In56  1  0.85428936  0.03012209  0.81052097  1
  In  In57  1  0.00541107  0.50288429  0.82979288  1
  In  In58  1  0.64835472  0.06450350  0.42268634  1
  In  In59  1  0.51558988  0.22039714  0.37160684  1
  In  In60  1  0.19122939  0.00872437  0.17397819  1
  In  In61  1  0.17017959  0.34692484  0.84630280  1
  In  In62  1  0.34406032  0.34989418  0.66865922  1
  In  In63  1  0.74927622  0.06414194  0.59672658  1
  In  In64  1  0.32720738  0.86576398  0.51580521  1
  In  In65  1  0.53589631  0.46421298  0.34205974  1
  In  In66  1  0.66939193  0.81476522  0.49132645  1
  In  In67  1  0.82349898  0.32562759  0.19198092  1
  In  In68  1  0.30956156  0.34577554  0.01413027  1
  In  In69  1  0.63739228  0.66256684  0.00601569  1
  In  In70  1  0.17961080  0.82576487  0.68033028  1
  In  In71  1  0.35139367  0.83463206  0.17568810  1
  Te  Te72  1  0.09294802  0.07835303  0.08117826  1
  Te  Te73  1  0.06078156  0.09961449  0.44032634  1
  Te  Te74  1  0.06569347  0.10525093  0.72105610  1
  Te  Te75  1  0.09594928  0.43272241  0.07612511  1
  Te  Te76  1  0.07387775  0.36357433  0.44701295  1
  Te  Te77  1  0.07073591  0.39677156  0.74346119  1
  Te  Te78  1  0.08522376  0.75826236  0.08288497  1
  Te  Te79  1  0.06261755  0.75762779  0.40865542  1
  Te  Te80  1  0.08608067  0.73135671  0.75342580  1
  Te  Te81  1  0.40888769  0.10116031  0.08607284  1
  Te  Te82  1  0.42828326  0.10662030  0.40250062  1
  Te  Te83  1  0.44370029  0.08674239  0.74265989  1
  Te  Te84  1  0.42261084  0.40986551  0.09351742  1
  Te  Te85  1  0.41455926  0.40632492  0.41481712  1
  Te  Te86  1  0.42213452  0.45019568  0.74549474  1
  Te  Te87  1  0.40799329  0.73155573  0.08043995  1
  Te  Te88  1  0.40796344  0.77089471  0.40670237  1
  Te  Te89  1  0.41237839  0.76435916  0.72838560  1
  Te  Te90  1  0.73566628  0.07923036  0.07486885  1
  Te  Te91  1  0.79336012  0.11191968  0.44985964  1
  Te  Te92  1  0.72418934  0.07268484  0.75258417  1
  Te  Te93  1  0.75854270  0.41961151  0.09828911  1
  Te  Te94  1  0.73545868  0.43670873  0.46216494  1
  Te  Te95  1  0.75391654  0.42968395  0.76677886  1
  Te  Te96  1  0.73807294  0.75361325  0.06179103  1
  Te  Te97  1  0.77410708  0.71480086  0.45975771  1
  Te  Te98  1  0.73561819  0.72248748  0.73341829  1
  Te  Te99  1  0.06506808  0.26076010  0.26477891  1
  Te  Te100  1  0.05082310  0.26696949  0.56029375  1
  Te  Te101  1  0.08337544  0.25093978  0.91552824  1
  Te  Te102  1  0.07819193  0.56148514  0.26395494  1
  Te  Te103  1  0.09362146  0.58277306  0.56617408  1
  Te  Te104  1  0.08945250  0.59213874  0.92197557  1
  Te  Te105  1  0.07247996  0.93822292  0.25764790  1
  Te  Te106  1  0.08610874  0.91315698  0.59171604  1
  Te  Te107  1  0.12473098  0.89587132  0.90133913  1
  Te  Te108  1  0.45079027  0.26279523  0.24730889  1
  Te  Te109  1  0.43093504  0.25875698  0.59071120  1
  Te  Te110  1  0.41028692  0.26570557  0.90609960  1
  Te  Te111  1  0.43102492  0.57468098  0.27363915  1
  Te  Te112  1  0.40374908  0.57264766  0.56962121  1
  Te  Te113  1  0.41851258  0.59967832  0.91633626  1
  Te  Te114  1  0.42105941  0.94256531  0.25498132  1
  Te  Te115  1  0.43032222  0.95631835  0.56362894  1
  Te  Te116  1  0.37568619  0.89788480  0.89679710  1
  Te  Te117  1  0.73265938  0.27632463  0.30505858  1
  Te  Te118  1  0.78321177  0.25995543  0.63386098  1
  Te  Te119  1  0.79419039  0.24901669  0.91587048  1
  Te  Te120  1  0.70841918  0.60137845  0.25858842  1
  Te  Te121  1  0.71058148  0.54770258  0.56124704  1
  Te  Te122  1  0.73982144  0.58109127  0.92711403  1
  Te  Te123  1  0.73610436  0.89643644  0.25633790  1
  Te  Te124  1  0.73696874  0.90830534  0.58900842  1
  Te  Te125  1  0.78361541  0.92435075  0.90390893  1
  Te  Te126  1  0.24763648  0.24281501  0.09673414  1
  Te  Te127  1  0.23722078  0.26506168  0.42431680  1
  Te  Te128  1  0.25390438  0.24771016  0.74976038  1
  Te  Te129  1  0.25462347  0.58736243  0.07940319  1
  Te  Te130  1  0.21742389  0.58520058  0.42007472  1
  Te  Te131  1  0.24832714  0.59098225  0.75348136  1
  Te  Te132  1  0.25695514  0.90827331  0.08275357  1
  Te  Te133  1  0.25395495  0.94020358  0.40242501  1
  Te  Te134  1  0.25901176  0.93897225  0.72823962  1
  Te  Te135  1  0.58941862  0.25634301  0.10366550  1
  Te  Te136  1  0.61539729  0.25826539  0.47493228  1
  Te  Te137  1  0.59320690  0.24576087  0.74117899  1
  Te  Te138  1  0.57713355  0.55880007  0.09815179  1
  Te  Te139  1  0.59041280  0.55887580  0.44584938  1
  Te  Te140  1  0.55960228  0.55555035  0.71664003  1
  Te  Te141  1  0.55899869  0.91020373  0.08358848  1
  Te  Te142  1  0.58594590  0.92024612  0.42128498  1
  Te  Te143  1  0.58682422  0.91700541  0.74585110  1
  Te  Te144  1  0.92372886  0.25475219  0.09235499  1
  Te  Te145  1  0.86895785  0.23593084  0.40431995  1
  Te  Te146  1  0.88126505  0.23654617  0.74518878  1
  Te  Te147  1  0.89838211  0.57097064  0.09657138  1
  Te  Te148  1  0.90203111  0.56542286  0.41969976  1
  Te  Te149  1  0.92554197  0.59591001  0.74021544  1
  Te  Te150  1  0.92079359  0.91110322  0.08336682  1
  Te  Te151  1  0.89095678  0.90787468  0.40357159  1
  Te  Te152  1  0.92900627  0.91960592  0.73718643  1
  Te  Te153  1  0.25936253  0.10955277  0.25353329  1
  Te  Te154  1  0.25770693  0.09434253  0.58487406  1
  Te  Te155  1  0.23433185  0.08950297  0.91461329  1
  Te  Te156  1  0.24171179  0.42393202  0.26205112  1
  Te  Te157  1  0.23198619  0.40469549  0.58453358  1
  Te  Te158  1  0.26257721  0.43810586  0.91234208  1
  Te  Te159  1  0.24657782  0.74527247  0.24622010  1
  Te  Te160  1  0.23452721  0.75418155  0.55713967  1
  Te  Te161  1  0.28726677  0.69231711  0.86809315  1
  Te  Te162  1  0.61854217  0.07850859  0.26956846  1
  Te  Te163  1  0.61074361  0.11208053  0.55735197  1
  Te  Te164  1  0.57748799  0.08224780  0.92680751  1
  Te  Te165  1  0.65939824  0.41957323  0.27163579  1
  Te  Te166  1  0.55477807  0.36395486  0.56466831  1
  Te  Te167  1  0.59742330  0.39465390  0.92359056  1
  Te  Te168  1  0.60625397  0.71426921  0.28976931  1
  Te  Te169  1  0.57905566  0.73499434  0.58439866  1
  Te  Te170  1  0.57901477  0.75788682  0.89595773  1
  Te  Te171  1  0.88438665  0.09540938  0.24857591  1
  Te  Te172  1  0.89579657  0.05336502  0.56588073  1
  Te  Te173  1  0.95553435  0.07889910  0.91384291  1
  Te  Te174  1  0.90819436  0.41391244  0.28062751  1
  Te  Te175  1  0.91939469  0.42473381  0.60508893  1
  Te  Te176  1  0.90925243  0.44039435  0.92108481  1
  Te  Te177  1  0.89277476  0.72486845  0.22658899  1
  Te  Te178  1  0.90445298  0.73528760  0.57292660  1
  Te  Te179  1  0.91305822  0.75086242  0.92541130  1
