# generated using pymatgen
data_In2Te3
_symmetry_space_group_name_H-M   'P 1'
_cell_length_a   18.81239007
_cell_length_b   18.82879367
_cell_length_c   18.81850737
_cell_angle_alpha   90.04022537
_cell_angle_beta   89.98035691
_cell_angle_gamma   89.96705316
_symmetry_Int_Tables_number   1
_chemical_formula_structural   In2Te3
_chemical_formula_sum   'In72 Te108'
_cell_volume   6665.78713202
_cell_formula_units_Z   36
loop_
 _symmetry_equiv_pos_site_id
 _symmetry_equiv_pos_as_xyz
  1  'x, y, z'
loop_
 _atom_site_type_symbol
 _atom_site_label
 _atom_site_symmetry_multiplicity
 _atom_site_fract_x
 _atom_site_fract_y
 _atom_site_fract_z
 _atom_site_occupancy
  In  In0  1  0.17298684  0.15084508  0.02146826  1
  In  In1  1  0.49573588  -0.00814174  0.84190929  1
  In  In2  1  0.31723517  -0.01044316  -0.01145618  1
  In  In3  1  0.85136336  0.50566761  0.00941100  1
  In  In4  1  0.68068578  0.15937447  0.14997564  1
  In  In5  1  0.19013378  0.50360221  0.66201869  1
  In  In6  1  0.65440885  0.51348918  0.81736879  1
  In  In7  1  0.00199313  0.32857482  0.01080577  1
  In  In8  1  0.15157908  0.48483671  0.00668698  1
  In  In9  1  -0.00583355  -0.01101651  0.68518716  1
  In  In10  1  0.85123297  0.65458413  0.16358768  1
  In  In11  1  0.01386172  0.66488225  0.33803124  1
  In  In12  1  0.28834837  0.70176099  -0.01656381  1
  In  In13  1  0.51726512  0.15702621  0.68254011  1
  In  In14  1  0.18247080  0.67683213  0.49196881  1
  In  In15  1  0.66955842  0.83717480  0.50924348  1
  In  In16  1  0.50186463  -0.00716060  0.16357784  1
  In  In17  1  0.68264908  0.32183395  -0.00486997  1
  In  In18  1  0.82686636  0.17525520  0.33296116  1
  In  In19  1  0.64188466  0.47622442  0.21070697  1
  In  In20  1  0.33380584  -0.01624441  0.67844332  1
  In  In21  1  0.51412317  0.84252817  -0.00464133  1
  In  In22  1  0.16153220  0.82346863  0.30724030  1
  In  In23  1  0.30815137  0.82823235  0.14832369  1
  In  In24  1  0.32043026  0.17397482  0.47731191  1
  In  In25  1  0.67726427  0.66316312  0.67147266  1
  In  In26  1  0.83614870  0.00776671  0.49941290  1
  In  In27  1  0.35046582  0.49829764  0.17197365  1
  In  In28  1  0.47506558  0.17967398  0.33600898  1
  In  In29  1  0.83516872  0.48119345  0.31541741  1
  In  In30  1  0.87485430  0.85568860  -0.00262105  1
  In  In31  1  0.16942440  0.35482310  0.83285999  1
  In  In32  1  0.49729786  0.81716683  0.33084893  1
  In  In33  1  0.00391496  0.16802902  0.50359802  1
  In  In34  1  0.32689200  0.49716892  0.83986372  1
  In  In35  1  0.15687435  0.51102560  0.34548087  1
  In  In36  1  0.13537777  0.16822199  0.68329275  1
  In  In37  1  0.36188409  0.51309495  0.51801749  1
  In  In38  1  0.68090492  0.01581216  0.67453019  1
  In  In39  1  0.48113855  0.32010586  0.83363046  1
  In  In40  1  0.66444638  0.34033067  0.65368136  1
  In  In41  1  0.82813256  0.83075546  0.33007858  1
  In  In42  1  0.00576996  0.17363706  0.15806898  1
  In  In43  1  0.84195128  -0.00619247  0.82737208  1
  In  In44  1  0.17063487  0.70586142  0.14101541  1
  In  In45  1  -0.00733526  0.48510925  0.49888201  1
  In  In46  1  0.30701320  0.03632859  0.30489751  1
  In  In47  1  0.48909854  0.48784841  0.02056075  1
  In  In48  1  0.49127194  0.67450655  0.83165422  1
  In  In49  1  -0.01595991  0.15874481  0.83911118  1
  In  In50  1  0.01319018  0.52272948  0.82229369  1
  In  In51  1  0.67912520  0.68159517  0.00509677  1
  In  In52  1  0.51798829  0.68097545  0.17595505  1
  In  In53  1  0.85371847  0.33494424  0.16806138  1
  In  In54  1  0.17040133  0.00073466  0.50290291  1
  In  In55  1  0.67007187  -0.02666746  0.32088479  1
  In  In56  1  0.31669076  0.32500018  0.32686417  1
  In  In57  1  0.49403863  0.17406793  0.00595062  1
  In  In58  1  0.16620295  0.83005846  0.67755454  1
  In  In59  1  0.84893651  0.69690742  0.83000988  1
  In  In60  1  0.63977130  0.18576097  0.50944952  1
  In  In61  1  0.83494035  0.33439796  0.49831117  1
  In  In62  1  0.66711718  -0.00602215  0.00174488  1
  In  In63  1  0.49008596  0.32634773  0.49134001  1
  In  In64  1  0.49550428  0.81691957  0.67235220  1
  In  In65  1  0.82690737  0.67710607  0.51984278  1
  In  In66  1  0.33947698  0.81898735  0.48918651  1
  In  In67  1  0.83328120  0.30777807  0.82961098  1
  In  In68  1  0.63971856  0.52756570  0.46484080  1
  In  In69  1  0.31071187  0.33945591  0.65844261  1
  In  In70  1  -0.00042505  0.68131306  0.67057201  1
  In  In71  1  -0.00017505  -0.00551150  0.31840950  1
  Te  Te72  1  0.04506448  0.07627852  0.04844271  1
  Te  Te73  1  0.08779291  0.08458164  0.40600415  1
  Te  Te74  1  0.08904800  0.06035085  0.78036548  1
  Te  Te75  1  0.08469693  0.40139731  0.10918187  1
  Te  Te76  1  0.06941197  0.40613767  0.40144130  1
  Te  Te77  1  0.07997166  0.42064505  0.72931151  1
  Te  Te78  1  0.05965571  0.77645138  0.06594715  1
  Te  Te79  1  0.08172419  0.76961470  0.42583941  1
  Te  Te80  1  0.08406780  0.74862038  0.77303797  1
  Te  Te81  1  0.40512951  0.07715205  0.08406102  1
  Te  Te82  1  0.41108776  0.06855917  0.41769562  1
  Te  Te83  1  0.40847048  0.08914140  0.76367689  1
  Te  Te84  1  0.41574572  0.38759264  0.09761535  1
  Te  Te85  1  0.42111836  0.42070162  0.39381020  1
  Te  Te86  1  0.41287978  0.41831116  0.73922919  1
  Te  Te87  1  0.42208363  0.74676931  0.07441974  1
  Te  Te88  1  0.43396656  0.72032189  0.42756060  1
  Te  Te89  1  0.39274497  0.76074628  0.76297540  1
  Te  Te90  1  0.76944599  0.06307238  0.08389418  1
  Te  Te91  1  0.73371437  0.08749385  0.41883305  1
  Te  Te92  1  0.75788386  0.10013413  0.76617052  1
  Te  Te93  1  0.74719062  0.42470688  0.08900809  1
  Te  Te94  1  0.73908535  0.41766910  0.41411386  1
  Te  Te95  1  0.75247724  0.41718823  0.75201933  1
  Te  Te96  1  0.77863476  0.76235219  0.08289042  1
  Te  Te97  1  0.73707033  0.74010008  0.41242953  1
  Te  Te98  1  0.74716448  0.76578593  0.74931749  1
  Te  Te99  1  0.11638676  0.23313273  0.24009371  1
  Te  Te100  1  0.09284162  0.25988638  0.57755927  1
  Te  Te101  1  0.09101610  0.25137128  0.91434659  1
  Te  Te102  1  0.10031503  0.59897387  0.23421340  1
  Te  Te103  1  0.08691518  0.58945202  0.57323183  1
  Te  Te104  1  0.10379348  0.59058457  0.91616092  1
  Te  Te105  1  0.09974247  0.93235406  0.22458619  1
  Te  Te106  1  0.07797516  0.91153005  0.58176196  1
  Te  Te107  1  0.12690958  0.89109721  0.97379380  1
  Te  Te108  1  0.38841644  0.23440370  0.23060366  1
  Te  Te109  1  0.41758978  0.23869905  0.59217158  1
  Te  Te110  1  0.39343396  0.24529994  0.92376931  1
  Te  Te111  1  0.44320106  0.58085925  0.26033996  1
  Te  Te112  1  0.43369411  0.59016370  0.61714636  1
  Te  Te113  1  0.41269716  0.58881440  0.93305301  1
  Te  Te114  1  0.40141257  0.91302406  0.24643558  1
  Te  Te115  1  0.42190616  0.91377139  0.57699767  1
  Te  Te116  1  0.40069772  0.89141130  0.90582891  1
  Te  Te117  1  0.74177771  0.26492583  0.24466977  1
  Te  Te118  1  0.75710720  0.23677631  0.58934226  1
  Te  Te119  1  0.75906144  0.21893531  0.92215188  1
  Te  Te120  1  0.74179552  0.58335210  0.25079015  1
  Te  Te121  1  0.74285203  0.56385925  0.57648050  1
  Te  Te122  1  0.75401935  0.58230906  0.91233486  1
  Te  Te123  1  0.77867221  0.93157834  0.23258413  1
  Te  Te124  1  0.76675900  0.91413805  0.59787500  1
  Te  Te125  1  0.75244111  0.90374964  0.91483148  1
  Te  Te126  1  0.23312659  0.23696411  0.12968999  1
  Te  Te127  1  0.21604321  0.24500686  0.40337939  1
  Te  Te128  1  0.24695121  0.24582026  0.75781788  1
  Te  Te129  1  0.25717307  0.58671704  0.08180552  1
  Te  Te130  1  0.27223037  0.58502980  0.41273882  1
  Te  Te131  1  0.24464544  0.59341530  0.76439585  1
  Te  Te132  1  0.21865725  0.93742861  0.09356582  1
  Te  Te133  1  0.25110494  0.91377218  0.40534271  1
  Te  Te134  1  0.23339151  0.92688460  0.76961863  1
  Te  Te135  1  0.58174915  0.26271755  0.09421746  1
  Te  Te136  1  0.59054127  0.26659011  0.39066620  1
  Te  Te137  1  0.60017446  0.25343237  0.76385709  1
  Te  Te138  1  0.59698388  0.57791747  0.08445258  1
  Te  Te139  1  0.54194735  0.60344435  0.38237214  1
  Te  Te140  1  0.54813960  0.57630610  0.72566396  1
  Te  Te141  1  0.60485838  0.89741375  0.10474388  1
  Te  Te142  1  0.57254125  0.91670176  0.42208555  1
  Te  Te143  1  0.58651688  0.91705798  0.74632120  1
  Te  Te144  1  0.89586376  0.23406800  0.06394394  1
  Te  Te145  1  0.93024322  0.26010861  0.40304383  1
  Te  Te146  1  0.93560888  0.25410413  0.73807674  1
  Te  Te147  1  0.95223335  0.57861675  0.08674733  1
  Te  Te148  1  0.90438395  0.58862079  0.41195534  1
  Te  Te149  1  0.90147754  0.58546436  0.73973473  1
  Te  Te150  1  0.97129005  0.90162825  0.10130527  1
  Te  Te151  1  0.92279780  0.91126823  0.42059930  1
  Te  Te152  1  0.93084955  0.88822655  0.77195936  1
  Te  Te153  1  0.20935326  0.10791719  0.21700397  1
  Te  Te154  1  0.24997213  0.09267404  0.59492638  1
  Te  Te155  1  0.24953309  0.09354883  0.90874437  1
  Te  Te156  1  0.23737646  0.42617068  0.24385923  1
  Te  Te157  1  0.24503045  0.41684095  0.54669457  1
  Te  Te158  1  0.26424198  0.40300517  0.94319601  1
  Te  Te159  1  0.27068953  0.72963911  0.26011159  1
  Te  Te160  1  0.26681251  0.74228121  0.59956663  1
  Te  Te161  1  0.20717446  0.79091889  0.89655537  1
  Te  Te162  1  0.58042802  0.08707487  0.25444324  1
  Te  Te163  1  0.57415123  0.06595045  0.57490265  1
  Te  Te164  1  0.58491871  0.09020642  0.91641712  1
  Te  Te165  1  0.53867388  0.40716799  0.28726276  1
  Te  Te166  1  0.57472878  0.42669815  0.56726225  1
  Te  Te167  1  0.58278184  0.41711468  0.91315202  1
  Te  Te168  1  0.61092379  0.77154572  0.24642356  1
  Te  Te169  1  0.58045855  0.73345773  0.57576431  1
  Te  Te170  1  0.59935081  0.75870792  0.90012315  1
  Te  Te171  1  0.90753548  0.08677315  0.23913101  1
  Te  Te172  1  0.91529334  0.08958217  0.60001602  1
  Te  Te173  1  0.93466021  0.05209497  0.93200400  1
  Te  Te174  1  0.94845805  0.42224975  0.24056746  1
  Te  Te175  1  0.90767859  0.41637135  0.59670335  1
  Te  Te176  1  0.92521473  0.41744751  0.90704128  1
  Te  Te177  1  0.93259256  0.75568584  0.24702971  1
  Te  Te178  1  0.91801017  0.77047510  0.58574323  1
  Te  Te179  1  0.93569727  0.72757797  0.94611920  1
