# generated using pymatgen
data_In2Te3
_symmetry_space_group_name_H-M   'P 1'
_cell_length_a   18.93024608
_cell_length_b   18.94433854
_cell_length_c   18.94478171
_cell_angle_alpha   90.00689210
_cell_angle_beta   90.11901568
_cell_angle_gamma   89.86989722
_symmetry_Int_Tables_number   1
_chemical_formula_structural   In2Te3
_chemical_formula_sum   'In72 Te108'
_cell_volume   6793.96416275
_cell_formula_units_Z   36
loop_
 _symmetry_equiv_pos_site_id
 _symmetry_equiv_pos_as_xyz
  1  'x, y, z'
loop_
 _atom_site_type_symbol
 _atom_site_label
 _atom_site_symmetry_multiplicity
 _atom_site_fract_x
 _atom_site_fract_y
 _atom_site_fract_z
 _atom_site_occupancy
  In  In0  1  0.13577051  0.33818442  0.49326612  1
  In  In1  1  0.52101424  0.64405289  0.47990473  1
  In  In2  1  0.83321818  0.01535889  0.83263670  1
  In  In3  1  0.35081470  0.66960821  0.33322341  1
  In  In4  1  0.31429400  0.65302938  0.66635922  1
  In  In5  1  0.83300906  0.15630855  0.00972262  1
  In  In6  1  0.15008042  0.33652268  0.80975237  1
  In  In7  1  0.75186368  0.63715451  0.38410303  1
  In  In8  1  0.51152292  0.87248291  0.66044928  1
  In  In9  1  0.00946408  0.66181662  0.01287825  1
  In  In10  1  0.30318442  0.01566054  0.34862671  1
  In  In11  1  0.52713888  0.64506576  0.17319965  1
  In  In12  1  0.69834753  0.20049626  0.52038634  1
  In  In13  1  0.68456283  0.70413052  0.01954148  1
  In  In14  1  0.30549729  0.83874374  0.17251793  1
  In  In15  1  0.15639060  0.33118445  0.15917561  1
  In  In16  1  0.68457747  0.84597829  0.17389725  1
  In  In17  1  0.32647331  0.16592591  0.83015867  1
  In  In18  1  0.14743693  -0.02128076  0.18926884  1
  In  In19  1  0.53176579  -0.01945693  0.18129807  1
  In  In20  1  0.52491937  0.82757535  0.02904075  1
  In  In21  1  0.13877849  0.01891872  0.47420021  1
  In  In22  1  0.35986711  0.36785308  0.03742749  1
  In  In23  1  0.33225716  0.83697822  0.82751505  1
  In  In24  1  0.82693102  0.50697178  -0.00877404  1
  In  In25  1  0.33654522  0.33251011  0.32761378  1
  In  In26  1  0.50099032  0.33542671  0.48672793  1
  In  In27  1  0.32454217  0.00541968  0.67752828  1
  In  In28  1  0.66973107  0.32763119  0.30771666  1
  In  In29  1  0.32093212  0.66028889  0.01868159  1
  In  In30  1  0.85148366  -0.00934658  0.49621720  1
  In  In31  1  0.32639300  0.51854324  0.84450677  1
  In  In32  1  0.32127149  0.34329476  0.65478427  1
  In  In33  1  0.32345298  0.03248320  -0.02778167  1
  In  In34  1  0.14111591  0.83416501  0.65950655  1
  In  In35  1  0.33226671  0.16992537  0.49829914  1
  In  In36  1  0.85263605  0.66724873  0.81277372  1
  In  In37  1  0.00190392  0.17726022  0.17489401  1
  In  In38  1  0.83951185  0.34136260  0.80052896  1
  In  In39  1  -0.00330064  0.65431368  0.67207996  1
  In  In40  1  0.00592442  0.49550135  0.81796783  1
  In  In41  1  0.32413045  0.46980504  0.48624113  1
  In  In42  1  0.84595701  0.02297178  0.17002503  1
  In  In43  1  0.01058801  0.83437211  0.49947548  1
  In  In44  1  0.82676221  0.85288154  0.65951919  1
  In  In45  1  0.00413185  0.16442139  0.81393719  1
  In  In46  1  0.16866098  0.49117363  0.00447234  1
  In  In47  1  0.49593855  0.82213082  0.32423277  1
  In  In48  1  0.67336164  0.01827761  0.34245372  1
  In  In49  1  0.67343984  0.31618790  0.01394935  1
  In  In50  1  0.52061606  0.30885565  0.84650292  1
  In  In51  1  0.14741104  0.65952375  0.51782175  1
  In  In52  1  0.51764142  0.03927199  0.50218012  1
  In  In53  1  0.52474738  0.16567259  0.00334652  1
  In  In54  1  0.14033943  0.82428411  0.33566858  1
  In  In55  1  0.67850609  0.47550981  0.84260768  1
  In  In56  1  0.67266782  0.62766328  0.64826811  1
  In  In57  1  0.68666871  0.17365013  0.78801584  1
  In  In58  1  0.51108651  0.00763012  0.85137679  1
  In  In59  1  0.14189217  0.16686540  0.00589514  1
  In  In60  1  -0.02382063  0.18061302  0.50337480  1
  In  In61  1  0.15947360  0.81044473  0.00655422  1
  In  In62  1  0.69366011  0.83619782  0.85976923  1
  In  In63  1  0.14493010  0.49549214  0.33323360  1
  In  In64  1  0.34270662  0.15410677  0.16720096  1
  In  In65  1  0.84067753  0.33519568  0.18682728  1
  In  In66  1  0.45972753  0.65462493  0.83995211  1
  In  In67  1  -0.02057783  0.49634281  0.18636180  1
  In  In68  1  0.00234531  0.83175677  0.84744658  1
  In  In69  1  0.49983883  0.48410860  0.66841143  1
  In  In70  1  0.70538487  0.48752711  0.48402557  1
  In  In71  1  0.67099685  0.81152729  0.48749008  1
  Te  Te72  1  0.06817098  0.06642945  0.09041883  1
  Te  Te73  1  0.04505309  0.10031794  0.39348234  1
  Te  Te74  1  0.10942140  0.07726930  0.76385071  1
  Te  Te75  1  0.06168553  0.41738528  0.07869082  1
  Te  Te76  1  0.05086257  0.44749894  0.43822552  1
  Te  Te77  1  0.05529759  0.40048004  0.71783565  1
  Te  Te78  1  0.06641322  0.76011525  0.10695006  1
  Te  Te79  1  0.05867975  0.72046336  0.40968347  1
  Te  Te80  1  0.08605147  0.73728341  0.76140355  1
  Te  Te81  1  0.43649809  0.06297285  0.07867287  1
  Te  Te82  1  0.42079828  0.09794204  0.39873436  1
  Te  Te83  1  0.43077655  0.08812175  0.75036603  1
  Te  Te84  1  0.44284100  0.42786971  0.14164259  1
  Te  Te85  1  0.43566407  0.43373994  0.39189212  1
  Te  Te86  1  0.40920205  0.40994721  0.76479081  1
  Te  Te87  1  0.41549837  0.75458284  0.10370551  1
  Te  Te88  1  0.42214136  0.75397741  0.43745821  1
  Te  Te89  1  0.41865154  0.76196867  0.72767043  1
  Te  Te90  1  0.73723227  0.10839347  0.11117857  1
  Te  Te91  1  0.76776212  0.09940991  0.42748530  1
  Te  Te92  1  0.77579639  0.08154953  0.71314199  1
  Te  Te93  1  0.75348497  0.41988603  0.09055062  1
  Te  Te94  1  0.77881680  0.38457131  0.40254829  1
  Te  Te95  1  0.73622102  0.41517596  0.72207866  1
  Te  Te96  1  0.79027005  0.77490937  0.09587265  1
  Te  Te97  1  0.79648904  0.78081964  0.41466504  1
  Te  Te98  1  0.74245686  0.74811952  0.73937634  1
  Te  Te99  1  0.07726830  0.26894190  0.26711100  1
  Te  Te100  1  0.08713927  0.23571895  0.58459541  1
  Te  Te101  1  0.06887218  0.26363258  0.91615743  1
  Te  Te102  1  0.07840813  0.58945745  0.24223087  1
  Te  Te103  1  0.04164266  0.56519956  0.56206363  1
  Te  Te104  1  0.08955975  0.58147699  0.91111260  1
  Te  Te105  1  0.04136432  0.89898624  0.25378559  1
  Te  Te106  1  0.06787269  0.94504603  0.58800399  1
  Te  Te107  1  0.08234562  0.91383958  0.93788791  1
  Te  Te108  1  0.42348821  0.23941590  0.25390667  1
  Te  Te109  1  0.42273989  0.25289415  0.58727090  1
  Te  Te110  1  0.41100568  0.24388981  0.93139339  1
  Te  Te111  1  0.41585098  0.57533156  0.23948745  1
  Te  Te112  1  0.41652423  0.57371014  0.57648417  1
  Te  Te113  1  0.42204957  0.56507693  0.95647274  1
  Te  Te114  1  0.39885470  0.92447082  0.25884792  1
  Te  Te115  1  0.41427683  0.94189968  0.57037791  1
  Te  Te116  1  0.42238047  0.90855340  0.92595826  1
  Te  Te117  1  0.75242393  0.22580216  0.23435080  1
  Te  Te118  1  0.78526648  0.28083265  0.61670008  1
  Te  Te119  1  0.76040581  0.25404355  0.90381491  1
  Te  Te120  1  0.77538071  0.55657012  0.25716049  1
  Te  Te121  1  0.78095433  0.59522531  0.55525392  1
  Te  Te122  1  0.74151302  0.60107033  0.90382667  1
  Te  Te123  1  0.76846444  0.92832134  0.26781446  1
  Te  Te124  1  0.72849679  0.92441211  0.57125872  1
  Te  Te125  1  0.78042833  0.92532860  0.94267393  1
  Te  Te126  1  0.25419614  0.24369955  0.07432364  1
  Te  Te127  1  0.23976781  0.25418764  0.41416138  1
  Te  Te128  1  0.23933037  0.24083409  0.73026525  1
  Te  Te129  1  0.23145827  0.58148063  0.10153394  1
  Te  Te130  1  0.25066877  0.58659937  0.42184904  1
  Te  Te131  1  0.22806737  0.56890806  0.74742977  1
  Te  Te132  1  0.25050412  0.93666753  0.07183972  1
  Te  Te133  1  0.23206052  0.90684127  0.42469488  1
  Te  Te134  1  0.22785085  0.91795601  0.75538127  1
  Te  Te135  1  0.56522058  0.26780442  0.10415815  1
  Te  Te136  1  0.59503364  0.24387938  0.41397543  1
  Te  Te137  1  0.58622156  0.26205703  0.72581066  1
  Te  Te138  1  0.61633789  0.58740626  0.07375125  1
  Te  Te139  1  0.60937273  0.56684981  0.39021175  1
  Te  Te140  1  0.57377901  0.57903853  0.76216732  1
  Te  Te141  1  0.61919887  0.93762629  0.06494393  1
  Te  Te142  1  0.57557132  0.91553460  0.41563433  1
  Te  Te143  1  0.60605045  0.92478348  0.76466614  1
  Te  Te144  1  0.91957837  0.25984544  0.07757023  1
  Te  Te145  1  0.88824617  0.26966251  0.41664581  1
  Te  Te146  1  0.91258715  0.23861702  0.72136365  1
  Te  Te147  1  0.90160559  0.59029628  0.09222693  1
  Te  Te148  1  0.88936167  0.56712907  0.35199490  1
  Te  Te149  1  0.89537053  0.55235104  0.72705625  1
  Te  Te150  1  0.87471157  0.92025262  0.06812315  1
  Te  Te151  1  0.94270165  0.92243294  0.40051981  1
  Te  Te152  1  0.92453995  0.92125764  0.75220785  1
  Te  Te153  1  0.22612271  0.09711786  0.24752567  1
  Te  Te154  1  0.23994577  0.08004224  0.57573981  1
  Te  Te155  1  0.20397600  0.08416559  0.88557200  1
  Te  Te156  1  0.24461614  0.42070658  0.24462022  1
  Te  Te157  1  0.22209291  0.43446821  0.58915181  1
  Te  Te158  1  0.25110008  0.40022377  0.91467189  1
  Te  Te159  1  0.23685379  0.73581598  0.25590483  1
  Te  Te160  1  0.24639866  0.75870394  0.58010224  1
  Te  Te161  1  0.25161687  0.73685044  0.90646316  1
  Te  Te162  1  0.57933511  0.09382151  0.25811532  1
  Te  Te163  1  0.60465209  0.10931444  0.59526332  1
  Te  Te164  1  0.61910674  0.09767665  0.90659109  1
  Te  Te165  1  0.57918300  0.40026847  0.21350145  1
  Te  Te166  1  0.59437721  0.42195016  0.56906203  1
  Te  Te167  1  0.57788219  0.41445524  0.93689968  1
  Te  Te168  1  0.60663789  0.74404915  0.25727829  1
  Te  Te169  1  0.57983969  0.74015659  0.59000888  1
  Te  Te170  1  0.56813854  0.75072433  0.90525332  1
  Te  Te171  1  0.92987796  0.09236147  0.27306418  1
  Te  Te172  1  0.90761168  0.08452860  0.59642587  1
  Te  Te173  1  0.93350385  0.08271251  0.92397179  1
  Te  Te174  1  0.95405575  0.37769376  0.27597714  1
  Te  Te175  1  0.88308365  0.36035221  0.53775312  1
  Te  Te176  1  0.91528156  0.41524052  0.91046823  1
  Te  Te177  1  0.85796584  0.70529670  0.28988450  1
  Te  Te178  1  0.91695695  0.75475428  0.58828025  1
  Te  Te179  1  0.90871044  0.74449046  0.92777903  1
