# generated using pymatgen
data_In2Te3
_symmetry_space_group_name_H-M   'P 1'
_cell_length_a   18.98896637
_cell_length_b   19.01817546
_cell_length_c   19.00618682
_cell_angle_alpha   90.00357279
_cell_angle_beta   90.22448106
_cell_angle_gamma   90.02165382
_symmetry_Int_Tables_number   1
_chemical_formula_structural   In2Te3
_chemical_formula_sum   'In72 Te108'
_cell_volume   6863.75548569
_cell_formula_units_Z   36
loop_
 _symmetry_equiv_pos_site_id
 _symmetry_equiv_pos_as_xyz
  1  'x, y, z'
loop_
 _atom_site_type_symbol
 _atom_site_label
 _atom_site_symmetry_multiplicity
 _atom_site_fract_x
 _atom_site_fract_y
 _atom_site_fract_z
 _atom_site_occupancy
  In  In0  1  -0.01336537  0.30192623  0.01232935  1
  In  In1  1  0.14348972  0.15324756  -0.00765627  1
  In  In2  1  0.67495346  0.48082992  0.13407492  1
  In  In3  1  0.01299465  0.85145048  0.83980573  1
  In  In4  1  0.16231439  0.52394070  0.36510955  1
  In  In5  1  0.01890604  -0.02556333  0.31272841  1
  In  In6  1  0.34391074  0.10942462  0.49314846  1
  In  In7  1  0.01005449  0.35632674  0.63909573  1
  In  In8  1  0.34808589  -0.01742042  0.63540640  1
  In  In9  1  0.32508958  0.66765543  0.00595330  1
  In  In10  1  0.51719114  0.30683368  0.17107954  1
  In  In11  1  0.67138056  0.66445765  0.35250841  1
  In  In12  1  0.52050316  0.82072642  0.64740011  1
  In  In13  1  0.66385317  0.51248040  0.90243877  1
  In  In14  1  0.64821566  0.29443398  0.35195746  1
  In  In15  1  0.85228126  0.50463048  0.32686320  1
  In  In16  1  0.85170286  0.84283660  0.68522182  1
  In  In17  1  0.83371617  -0.00868944  0.51995500  1
  In  In18  1  0.18494382  0.00669028  0.80755887  1
  In  In19  1  0.82098843  0.49947351  0.00098964  1
  In  In20  1  0.47554459  0.48059189  0.34547828  1
  In  In21  1  0.46012066  0.27695640  0.79433259  1
  In  In22  1  0.86933302  0.82559001  0.00473339  1
  In  In23  1  0.19319664  0.52660611  0.00146238  1
  In  In24  1  0.17900295  -0.00555439  0.15636851  1
  In  In25  1  0.81991028  0.82558541  0.34078198  1
  In  In26  1  0.25578325  0.83399084  0.25699379  1
  In  In27  1  0.64910940  0.14801370  0.82675040  1
  In  In28  1  0.16072823  0.82579847  -0.00075657  1
  In  In29  1  -0.01401563  0.14870627  0.48615316  1
  In  In30  1  0.67271498  0.34000536  0.67861534  1
  In  In31  1  0.17066901  0.51700834  0.62502944  1
  In  In32  1  0.50647735  0.67474902  0.85087276  1
  In  In33  1  0.16031951  0.33176262  0.17012705  1
  In  In34  1  0.34118046  0.51180742  0.81378028  1
  In  In35  1  0.01271463  0.50136498  0.16330112  1
  In  In36  1  0.51786704  0.65916004  0.18570655  1
  In  In37  1  0.34849393  0.16188271  0.17972403  1
  In  In38  1  0.82194436  0.33678122  0.82647492  1
  In  In39  1  0.84113422  0.54555658  0.63876326  1
  In  In40  1  0.66751553  0.31676268  -0.00879109  1
  In  In41  1  0.17286964  0.32765963  0.50760739  1
  In  In42  1  0.32933958  0.52235750  0.13563745  1
  In  In43  1  -0.00306458  0.15272854  0.84827861  1
  In  In44  1  0.70303580  0.68019597  -0.00771312  1
  In  In45  1  0.65036921  0.83383976  0.21254571  1
  In  In46  1  0.84218501  0.15812279  0.66993405  1
  In  In47  1  0.33388803  0.31282947  -0.01999173  1
  In  In48  1  0.01203913  0.51704641  0.48583785  1
  In  In49  1  0.15439662  0.69190056  0.83210536  1
  In  In50  1  0.80629291  0.32723587  0.47741738  1
  In  In51  1  0.83371218  -0.01485182  0.15594010  1
  In  In52  1  0.67749586  0.86269116  0.81903249  1
  In  In53  1  0.81172634  0.15781591  0.32642316  1
  In  In54  1  0.66871531  0.51656708  0.50970097  1
  In  In55  1  0.02668555  0.85601619  0.52631363  1
  In  In56  1  0.29825281  0.83410376  0.49233679  1
  In  In57  1  0.15814689  0.16989671  0.31705758  1
  In  In58  1  0.29786571  0.35343862  0.34204498  1
  In  In59  1  0.48939957  -0.01300057  0.21974826  1
  In  In60  1  0.00301262  0.69808778  0.37111464  1
  In  In61  1  0.48467686  0.85231224  0.00986779  1
  In  In62  1  0.53010173  0.45811834  -0.00294113  1
  In  In63  1  0.84852102  0.66539950  0.17532313  1
  In  In64  1  0.67989505  0.00171941  0.00205062  1
  In  In65  1  0.60846160  0.15211919  0.46750136  1
  In  In66  1  0.20987519  0.29563452  0.79961938  1
  In  In67  1  0.66113126  0.01840706  0.65856191  1
  In  In68  1  0.33723198  0.69410893  0.64418849  1
  In  In69  1  0.00129003  0.49763660  0.80582523  1
  In  In70  1  0.50316031  0.52590999  0.67807028  1
  In  In71  1  0.32881245  0.00287948  0.00515854  1
  Te  Te72  1  0.07895822  0.09107077  0.10751560  1
  Te  Te73  1  0.08883794  0.06970040  0.40766867  1
  Te  Te74  1  0.09362965  0.10719526  0.74954476  1
  Te  Te75  1  0.09415281  0.41843976  0.06270908  1
  Te  Te76  1  0.08213121  0.40466717  0.41239694  1
  Te  Te77  1  0.11022844  0.41721763  0.73565699  1
  Te  Te78  1  0.09616426  0.71768944  0.06934141  1
  Te  Te79  1  0.11016633  0.77925052  0.42983010  1
  Te  Te80  1  0.09896479  0.78837124  0.73585536  1
  Te  Te81  1  0.42983156  0.06738037  0.09927449  1
  Te  Te82  1  0.44692136  0.08388923  0.38594567  1
  Te  Te83  1  0.39463408  0.09880431  0.71960604  1
  Te  Te84  1  0.40929907  0.40543859  0.08070042  1
  Te  Te85  1  0.37293338  0.43387794  0.44018294  1
  Te  Te86  1  0.41563479  0.40772004  0.73399606  1
  Te  Te87  1  0.42582000  0.74146616  0.09488802  1
  Te  Te88  1  0.35562536  0.71234328  0.42460197  1
  Te  Te89  1  0.42871265  0.75455841  0.75239714  1
  Te  Te90  1  0.74358890  0.08861459  0.10150701  1
  Te  Te91  1  0.74537763  0.08657670  0.44125018  1
  Te  Te92  1  0.76270245  0.06938641  0.76091501  1
  Te  Te93  1  0.77335196  0.38000232  0.08074645  1
  Te  Te94  1  0.72850514  0.42850395  0.39550280  1
  Te  Te95  1  0.77145714  0.44229381  0.73050008  1
  Te  Te96  1  0.74626155  0.76180041  0.11251308  1
  Te  Te97  1  0.71856782  0.77605006  0.43508824  1
  Te  Te98  1  0.75574932  0.75762154  0.75812703  1
  Te  Te99  1  0.06302785  0.25037505  0.24092266  1
  Te  Te100  1  0.07702523  0.23547171  0.57793707  1
  Te  Te101  1  0.08950109  0.27012979  0.90543982  1
  Te  Te102  1  0.06039278  0.59173900  0.27513333  1
  Te  Te103  1  0.06621531  0.61161869  0.58447894  1
  Te  Te104  1  0.08574447  0.57866483  0.90554467  1
  Te  Te105  1  0.10883217  0.88355579  0.23582083  1
  Te  Te106  1  0.09407842  0.96790033  0.58923157  1
  Te  Te107  1  0.10444363  0.94058010  0.92312401  1
  Te  Te108  1  0.40474423  0.27261776  0.26498309  1
  Te  Te109  1  0.39204837  0.20308529  0.59953103  1
  Te  Te110  1  0.43068116  0.21988131  0.92430834  1
  Te  Te111  1  0.40504502  0.58250715  0.25206632  1
  Te  Te112  1  0.43009574  0.60299454  0.57734060  1
  Te  Te113  1  0.42206147  0.57218235  0.92696520  1
  Te  Te114  1  0.39556342  0.88453465  0.28248426  1
  Te  Te115  1  0.43070571  0.89016031  0.54577333  1
  Te  Te116  1  0.41460667  0.93104007  0.90962113  1
  Te  Te117  1  0.73958259  0.25775273  0.24671735  1
  Te  Te118  1  0.74631979  0.24292146  0.58707749  1
  Te  Te119  1  0.75602471  0.22816816  0.90449042  1
  Te  Te120  1  0.73812017  0.58190020  0.23669076  1
  Te  Te121  1  0.72341302  0.62838776  0.59388110  1
  Te  Te122  1  0.78712202  0.60303806  0.89401249  1
  Te  Te123  1  0.74312010  0.93604635  0.27177508  1
  Te  Te124  1  0.73709905  0.90613446  0.59455529  1
  Te  Te125  1  0.77460600  0.91430670  0.92416794  1
  Te  Te126  1  0.24861700  0.23864297  0.08717679  1
  Te  Te127  1  0.25796645  0.22736608  0.42535996  1
  Te  Te128  1  0.27882701  0.20307837  0.70692446  1
  Te  Te129  1  0.21459176  0.63393090  0.11395005  1
  Te  Te130  1  0.23990966  0.61070142  0.45614579  1
  Te  Te131  1  0.24665923  0.60101593  0.73914519  1
  Te  Te132  1  0.27097792  0.89220328  0.09141778  1
  Te  Te133  1  0.27306481  0.92571987  0.37710166  1
  Te  Te134  1  0.26676034  0.90643465  0.73441944  1
  Te  Te135  1  0.58616711  0.22708393  0.07258795  1
  Te  Te136  1  0.53943926  0.27917846  0.44563854  1
  Te  Te137  1  0.57885698  0.22564977  0.71677260  1
  Te  Te138  1  0.59015202  0.59176818  0.06601918  1
  Te  Te139  1  0.56377039  0.58088669  0.42039185  1
  Te  Te140  1  0.60024341  0.58247035  0.77919015  1
  Te  Te141  1  0.58575145  0.91821650  0.10423201  1
  Te  Te142  1  0.55534411  0.97369398  0.35830884  1
  Te  Te143  1  0.56707110  0.93007759  0.74265278  1
  Te  Te144  1  0.91691919  0.18383246  0.06078691  1
  Te  Te145  1  0.91214157  0.25198154  0.40276387  1
  Te  Te146  1  0.92425521  0.26978785  0.73511031  1
  Te  Te147  1  0.92364024  0.58664123  0.07268017  1
  Te  Te148  1  0.89543588  0.60485518  0.42803964  1
  Te  Te149  1  0.95300440  0.60389693  0.71539116  1
  Te  Te150  1  0.94387880  0.90883235  0.09682079  1
  Te  Te151  1  0.91794199  0.92010167  0.41643103  1
  Te  Te152  1  0.92291835  0.94135751  0.76627915  1
  Te  Te153  1  0.25953976  0.07189430  0.26073813  1
  Te  Te154  1  0.22784578  0.04305091  0.56279453  1
  Te  Te155  1  0.25688389  0.09832216  0.91132368  1
  Te  Te156  1  0.23618423  0.44665182  0.23750302  1
  Te  Te157  1  0.26533697  0.41272064  0.58485086  1
  Te  Te158  1  0.25841437  0.42068913  0.90531275  1
  Te  Te159  1  0.23473475  0.70099104  0.32605695  1
  Te  Te160  1  0.22580691  0.78993176  0.61700885  1
  Te  Te161  1  0.26793889  0.76156000  0.90493212  1
  Te  Te162  1  0.56382886  0.10553987  0.28162916  1
  Te  Te163  1  0.55385177  0.06272708  0.56862105  1
  Te  Te164  1  0.57663114  0.05471151  0.91159439  1
  Te  Te165  1  0.57303565  0.43155185  0.23454108  1
  Te  Te166  1  0.58210230  0.42401975  0.59157085  1
  Te  Te167  1  0.58701262  0.38242111  0.87816259  1
  Te  Te168  1  0.55549208  0.75402146  0.29732740  1
  Te  Te169  1  0.59730581  0.71814264  0.57816114  1
  Te  Te170  1  0.59721600  0.77050994  0.92915650  1
  Te  Te171  1  0.91481968  0.07088057  0.25840281  1
  Te  Te172  1  0.93912876  0.06190098  0.60349781  1
  Te  Te173  1  0.93462500  0.08078181  0.95637214  1
  Te  Te174  1  0.91711237  0.41508393  0.23388650  1
  Te  Te175  1  0.90172874  0.42330976  0.55543941  1
  Te  Te176  1  0.92018845  0.41494507  0.91319721  1
  Te  Te177  1  0.92789796  0.76510679  0.25301946  1
  Te  Te178  1  0.91607199  0.77343846  0.57276506  1
  Te  Te179  1  0.94272248  0.74365467  0.91159374  1
