# generated using pymatgen
data_In2Te3
_symmetry_space_group_name_H-M   'P 1'
_cell_length_a   18.83960529
_cell_length_b   18.83257199
_cell_length_c   18.83651042
_cell_angle_alpha   89.99483439
_cell_angle_beta   90.00937058
_cell_angle_gamma   89.88873248
_symmetry_Int_Tables_number   1
_chemical_formula_structural   In2Te3
_chemical_formula_sum   'In72 Te108'
_cell_volume   6683.14770162
_cell_formula_units_Z   36
loop_
 _symmetry_equiv_pos_site_id
 _symmetry_equiv_pos_as_xyz
  1  'x, y, z'
loop_
 _atom_site_type_symbol
 _atom_site_label
 _atom_site_symmetry_multiplicity
 _atom_site_fract_x
 _atom_site_fract_y
 _atom_site_fract_z
 _atom_site_occupancy
  In  In0  1  0.51936063  0.63355425  0.50696911  1
  In  In1  1  0.35124599  0.32187775  -0.01113486  1
  In  In2  1  0.00489713  0.00368966  0.30345683  1
  In  In3  1  -0.02898633  0.13028236  0.86460867  1
  In  In4  1  -0.02450082  0.82148290  0.52317140  1
  In  In5  1  0.15187688  0.35204023  0.16798532  1
  In  In6  1  0.01026791  0.68497993  -0.02623138  1
  In  In7  1  0.12643286  0.36328154  0.47077525  1
  In  In8  1  -0.03452443  0.15788015  0.49510391  1
  In  In9  1  0.49525996  0.49277917  0.67837071  1
  In  In10  1  0.83319523  0.51936865  -0.00113772  1
  In  In11  1  0.53033342  0.15050474  0.70005605  1
  In  In12  1  0.65760478  0.32553469  0.00180222  1
  In  In13  1  0.49444191  0.34325682  0.50246863  1
  In  In14  1  -0.01882481  0.32908890  0.66776706  1
  In  In15  1  0.15480168  0.67116434  0.16890484  1
  In  In16  1  0.01397146  0.15619457  0.15022986  1
  In  In17  1  0.70345879  0.83768347  0.49327023  1
  In  In18  1  -0.00335853  0.49665869  0.17498789  1
  In  In19  1  0.01701842  0.34095076  0.02193609  1
  In  In20  1  0.70382527  0.53620797  0.18276452  1
  In  In21  1  0.80713403  0.14459716  -0.03252927  1
  In  In22  1  0.82728730  0.34380332  0.84749700  1
  In  In23  1  0.01305810  0.53560751  0.82378002  1
  In  In24  1  0.82900417  0.34286417  0.52507937  1
  In  In25  1  0.17275134  0.18626172  0.30220479  1
  In  In26  1  0.31851406  0.68385266  0.71096712  1
  In  In27  1  0.14500965  0.00575429  0.51264426  1
  In  In28  1  0.15863121  0.15367068  -0.00173892  1
  In  In29  1  0.65886145  0.32658262  0.33115024  1
  In  In30  1  0.36890050  0.34598399  0.68141090  1
  In  In31  1  0.16058149  0.15894534  0.66995079  1
  In  In32  1  0.66892058  0.00283349  0.33181088  1
  In  In33  1  0.18592569  0.34972506  0.84607715  1
  In  In34  1  0.36279544  0.16642327  0.83722196  1
  In  In35  1  0.67060329  0.83158198  0.84792669  1
  In  In36  1  -0.01744489  -0.04487892  0.70677402  1
  In  In37  1  0.79369199  0.13766927  0.69022741  1
  In  In38  1  0.34777233  0.15132148  0.14749136  1
  In  In39  1  0.50652575  0.85702454  -0.03043824  1
  In  In40  1  0.30646424  0.01254759  0.32764514  1
  In  In41  1  0.34456128  -0.00210394  -0.01134856  1
  In  In42  1  0.69492012  0.67119583  0.00136709  1
  In  In43  1  0.30436252  0.15901939  0.51157114  1
  In  In44  1  0.33399215  0.64834957  0.33838382  1
  In  In45  1  0.34112903  0.81167739  0.51674438  1
  In  In46  1  0.14628069  0.67425651  0.49383044  1
  In  In47  1  0.85053469  0.52864804  0.68708798  1
  In  In48  1  0.82533382  -0.00798459  0.50972260  1
  In  In49  1  0.83865869  0.82100196  0.32267673  1
  In  In50  1  0.51485679  0.00575308  0.52347135  1
  In  In51  1  0.33320074  0.68060170  -0.04492126  1
  In  In52  1  0.13835852  0.82169396  0.35575027  1
  In  In53  1  0.66153059  -0.00177407  -0.01386933  1
  In  In54  1  0.16874780  0.51475615  0.64674271  1
  In  In55  1  -0.01450880  0.84921980  0.13897880  1
  In  In56  1  0.32007565  0.84388112  0.14825014  1
  In  In57  1  0.83727497  0.31118214  0.17087297  1
  In  In58  1  0.33112037  0.48747729  0.51135742  1
  In  In59  1  0.31875216  0.49336651  0.15758815  1
  In  In60  1  0.49870769  0.83339525  0.29853809  1
  In  In61  1  0.15060169  -0.05259535  0.84728278  1
  In  In62  1  0.67728030  0.50589901  0.83737784  1
  In  In63  1  0.64214146  0.50032481  0.51556876  1
  In  In64  1  0.67697903  0.84256710  0.14316923  1
  In  In65  1  0.51481388  0.49912246  0.33633746  1
  In  In66  1  0.83606741  0.18146453  0.33817266  1
  In  In67  1  0.52983536  0.68244738  0.14917418  1
  In  In68  1  0.67765526  0.65897112  0.66658872  1
  In  In69  1  0.49768752  0.30992502  0.15478497  1
  In  In70  1  0.51592826  0.83010488  0.69412393  1
  In  In71  1  0.49917898  0.17050358  0.32619545  1
  Te  Te72  1  0.06488385  0.05144374  0.05649105  1
  Te  Te73  1  0.08522622  0.09782400  0.40488546  1
  Te  Te74  1  0.07481922  0.07251196  0.76212715  1
  Te  Te75  1  0.10539304  0.45373818  0.06553239  1
  Te  Te76  1  0.05352270  0.46871449  0.39676522  1
  Te  Te77  1  0.08117746  0.41155272  0.74863502  1
  Te  Te78  1  0.09840657  0.76883104  0.06833226  1
  Te  Te79  1  0.03185518  0.72865061  0.40891995  1
  Te  Te80  1  0.11434418  0.79924534  0.80349498  1
  Te  Te81  1  0.43799998  0.10115428  0.04318969  1
  Te  Te82  1  0.40749472  0.07641657  0.42437156  1
  Te  Te83  1  0.41605028  0.06599364  0.74320239  1
  Te  Te84  1  0.42740936  0.42223828  0.07803640  1
  Te  Te85  1  0.40631352  0.41297246  0.39986762  1
  Te  Te86  1  0.40725236  0.44171866  0.79059432  1
  Te  Te87  1  0.42459459  0.76035766  0.07060241  1
  Te  Te88  1  0.43148790  0.74361889  0.41175756  1
  Te  Te89  1  0.42656643  0.75372128  0.78498061  1
  Te  Te90  1  0.72651965  0.09405515  0.07958876  1
  Te  Te91  1  0.74764083  0.09343341  0.42649549  1
  Te  Te92  1  0.73523540  0.04454099  0.78991686  1
  Te  Te93  1  0.76157686  0.41393680  0.08200152  1
  Te  Te94  1  0.73634250  0.41582004  0.42479057  1
  Te  Te95  1  0.75579756  0.41937779  0.73667258  1
  Te  Te96  1  0.78255059  0.75101989  0.09000950  1
  Te  Te97  1  0.79076992  0.73635134  0.43368823  1
  Te  Te98  1  0.75295493  0.76704389  0.73725758  1
  Te  Te99  1  0.05471650  0.26634566  0.24868729  1
  Te  Te100  1  0.07138924  0.24225945  0.57718069  1
  Te  Te101  1  0.07753917  0.25180275  0.90749277  1
  Te  Te102  1  0.09665106  0.56947973  0.26066441  1
  Te  Te103  1  0.06081682  0.59628921  0.58770154  1
  Te  Te104  1  0.11466496  0.59999529  0.90832808  1
  Te  Te105  1  0.09984290  0.90834064  0.23764673  1
  Te  Te106  1  0.08125291  0.89964209  0.60205333  1
  Te  Te107  1  0.02918781  0.88207810  0.90660424  1
  Te  Te108  1  0.39421881  0.25275384  0.25187358  1
  Te  Te109  1  0.41650430  0.23572726  0.58433663  1
  Te  Te110  1  0.46012218  0.26450383  0.89710876  1
  Te  Te111  1  0.43567017  0.59261289  0.23815853  1
  Te  Te112  1  0.40014799  0.59400574  0.59595103  1
  Te  Te113  1  0.38875810  0.55828828  0.89659061  1
  Te  Te114  1  0.40580149  0.93735042  0.23588983  1
  Te  Te115  1  0.42234100  0.90998236  0.59990077  1
  Te  Te116  1  0.41967754  0.93399310  0.87724031  1
  Te  Te117  1  0.72828855  0.22837250  0.23864885  1
  Te  Te118  1  0.74761349  0.24178528  0.59681367  1
  Te  Te119  1  0.72062345  0.24234469  0.88553170  1
  Te  Te120  1  0.81230235  0.58977509  0.26547085  1
  Te  Te121  1  0.76253650  0.57916508  0.57038322  1
  Te  Te122  1  0.77898622  0.60799262  0.88877131  1
  Te  Te123  1  0.76378756  0.92529186  0.24124119  1
  Te  Te124  1  0.75403650  0.91116539  0.60969300  1
  Te  Te125  1  0.74700005  0.87434917  0.97068270  1
  Te  Te126  1  0.24099191  0.25421481  0.07841647  1
  Te  Te127  1  0.23530488  0.25952941  0.42001370  1
  Te  Te128  1  0.25601201  0.25046873  0.74925866  1
  Te  Te129  1  0.26863926  0.61579851  0.08366010  1
  Te  Te130  1  0.23728821  0.57086232  0.42440791  1
  Te  Te131  1  0.22747904  0.58032382  0.76634840  1
  Te  Te132  1  0.23699932  0.91736569  0.05133357  1
  Te  Te133  1  0.24725705  0.91165028  0.43041132  1
  Te  Te134  1  0.25206821  0.87549984  0.76503502  1
  Te  Te135  1  0.58030934  0.21853232  0.07235329  1
  Te  Te136  1  0.58340488  0.24057083  0.43206264  1
  Te  Te137  1  0.56833979  0.26320600  0.78517363  1
  Te  Te138  1  0.60234786  0.57228348  0.07270160  1
  Te  Te139  1  0.61417022  0.59722180  0.39432202  1
  Te  Te140  1  0.57598296  0.59427370  0.75752869  1
  Te  Te141  1  0.56513906  0.92895123  0.08967514  1
  Te  Te142  1  0.57746712  0.90858052  0.41484164  1
  Te  Te143  1  0.60179160  0.93810692  0.75981523  1
  Te  Te144  1  0.90789144  0.23817461  0.05462274  1
  Te  Te145  1  0.92047150  0.28003612  0.41723744  1
  Te  Te146  1  0.90588746  0.23483376  0.76148900  1
  Te  Te147  1  0.93383863  0.59770668  0.07856958  1
  Te  Te148  1  0.91788891  0.54156752  0.37017380  1
  Te  Te149  1  0.94065868  0.63955324  0.74179562  1
  Te  Te150  1  0.92407868  0.96542116  0.07146426  1
  Te  Te151  1  0.93192366  0.93119579  0.41709222  1
  Te  Te152  1  0.88743032  0.86211582  0.77221003  1
  Te  Te153  1  0.22961977  0.07772480  0.21232925  1
  Te  Te154  1  0.25364351  0.05287062  0.61027471  1
  Te  Te155  1  0.24382141  0.08481504  0.89413054  1
  Te  Te156  1  0.24530681  0.41936479  0.25969361  1
  Te  Te157  1  0.24444778  0.39178084  0.59151727  1
  Te  Te158  1  0.26738289  0.43478437  0.93631442  1
  Te  Te159  1  0.25586460  0.75862247  0.26694215  1
  Te  Te160  1  0.23152820  0.74725558  0.59784572  1
  Te  Te161  1  0.24683794  0.78992589  0.89866257  1
  Te  Te162  1  0.57183815  0.07274474  0.24528281  1
  Te  Te163  1  0.61410665  0.08502450  0.59642371  1
  Te  Te164  1  0.59873558  0.05949226  0.86335230  1
  Te  Te165  1  0.59079055  0.41889242  0.23030740  1
  Te  Te166  1  0.58898475  0.39295991  0.61114674  1
  Te  Te167  1  0.58640448  0.42928231  0.92370867  1
  Te  Te168  1  0.61790155  0.75004300  0.25304161  1
  Te  Te169  1  0.58606729  0.75196266  0.57619631  1
  Te  Te170  1  0.57981627  0.73120972  0.92083899  1
  Te  Te171  1  0.90209888  0.09105845  0.23434482  1
  Te  Te172  1  0.92169898  0.06838546  0.60998702  1
  Te  Te173  1  0.88690245  0.02202900  0.92572088  1
  Te  Te174  1  0.89346745  0.42049738  0.25800947  1
  Te  Te175  1  0.92834271  0.44434247  0.58399832  1
  Te  Te176  1  0.93493439  0.42877998  0.91525773  1
  Te  Te177  1  0.93831078  0.75117770  0.23890258  1
  Te  Te178  1  0.90903842  0.73212813  0.61833050  1
  Te  Te179  1  0.91353866  0.77651142  0.90305859  1
