# generated using pymatgen
data_In2Te3
_symmetry_space_group_name_H-M   'P 1'
_cell_length_a   18.82161198
_cell_length_b   18.81485391
_cell_length_c   18.81816292
_cell_angle_alpha   89.98583910
_cell_angle_beta   90.00123565
_cell_angle_gamma   90.16152957
_symmetry_Int_Tables_number   1
_chemical_formula_structural   In2Te3
_chemical_formula_sum   'In72 Te108'
_cell_volume   6663.97181235
_cell_formula_units_Z   36
loop_
 _symmetry_equiv_pos_site_id
 _symmetry_equiv_pos_as_xyz
  1  'x, y, z'
loop_
 _atom_site_type_symbol
 _atom_site_label
 _atom_site_symmetry_multiplicity
 _atom_site_fract_x
 _atom_site_fract_y
 _atom_site_fract_z
 _atom_site_occupancy
  In  In0  1  0.68271494  0.51649347  0.81210949  1
  In  In1  1  0.16632771  0.19150849  0.67907136  1
  In  In2  1  0.66858839  0.50114108  0.16856241  1
  In  In3  1  0.67054513  -0.00041705  0.35067422  1
  In  In4  1  0.16137024  0.82380366  -0.00738301  1
  In  In5  1  0.70000998  0.18426210  0.16615496  1
  In  In6  1  0.00189590  0.32072923  0.65995937  1
  In  In7  1  0.00684915  0.15551638  0.84694118  1
  In  In8  1  0.66745825  0.16144422  0.80700297  1
  In  In9  1  0.34714628  0.02535899  0.32853301  1
  In  In10  1  -0.02134660  0.13681323  0.52890180  1
  In  In11  1  0.49335891  0.31700115  0.16840735  1
  In  In12  1  0.49387369  0.68008720  0.50232737  1
  In  In13  1  0.00364826  0.17712073  0.18795231  1
  In  In14  1  0.84512007  0.50998761  0.01565030  1
  In  In15  1  0.15110806  0.64478098  0.16702019  1
  In  In16  1  0.66422684  0.47429246  0.49169220  1
  In  In17  1  0.86410661  0.17208053  0.01870002  1
  In  In18  1  0.49690540  0.31701595  0.51809199  1
  In  In19  1  0.49245213  0.50551945  0.32278055  1
  In  In20  1  0.50928729  0.16422898  0.35142293  1
  In  In21  1  0.68812641  0.36092814  -0.01562788  1
  In  In22  1  0.50630344  -0.01246214  0.16644053  1
  In  In23  1  0.33320046  0.16507287  0.81178593  1
  In  In24  1  0.32601314  0.34585524  0.00874670  1
  In  In25  1  0.30319643  0.18114156  0.17571385  1
  In  In26  1  0.68183927  0.68672276  0.32517563  1
  In  In27  1  0.18249766  0.65202527  0.48874779  1
  In  In28  1  0.33467236  0.82290439  0.49019185  1
  In  In29  1  0.66919513  0.83895805  0.83930548  1
  In  In30  1  0.16970113  0.66703385  0.83679962  1
  In  In31  1  0.01152204  0.36313966  0.33345162  1
  In  In32  1  -0.00645849  0.68768121  0.67127283  1
  In  In33  1  0.51333270  0.68062780  0.82415666  1
  In  In34  1  0.67073351  0.17304954  0.51365587  1
  In  In35  1  -0.02832539  -0.01915497  0.03140030  1
  In  In36  1  0.84075976  0.34178547  0.83619469  1
  In  In37  1  0.17268497  0.18958090  -0.00776591  1
  In  In38  1  0.32231108  0.47817649  0.48662966  1
  In  In39  1  0.47680856  0.65977214  0.17055894  1
  In  In40  1  0.80152258  0.49093023  0.66673806  1
  In  In41  1  0.30890366  0.66256514  0.02204554  1
  In  In42  1  0.83599915  0.83781685  0.34893214  1
  In  In43  1  0.82425875  0.32400721  0.49470537  1
  In  In44  1  0.16339975  0.00619370  0.17326095  1
  In  In45  1  0.68323406  0.00781179  -0.01180107  1
  In  In46  1  0.01273161  0.50449072  0.84840071  1
  In  In47  1  0.33281319  0.00453867  0.66811142  1
  In  In48  1  0.50370472  0.14422580  0.00468218  1
  In  In49  1  0.33994396  0.47491738  0.83810553  1
  In  In50  1  0.34205273  0.66620684  0.65998090  1
  In  In51  1  0.82629047  0.67007040  0.16143593  1
  In  In52  1  0.84331162  0.15944696  0.32901641  1
  In  In53  1  0.00232851  0.50043095  0.47382358  1
  In  In54  1  0.83984770  0.66691334  0.85432499  1
  In  In55  1  0.49927764  0.51274960  0.01254920  1
  In  In56  1  0.17653140  0.47347902  0.64045403  1
  In  In57  1  -0.00642055  0.85904047  0.51077507  1
  In  In58  1  -0.00149989  0.65106852  0.32485473  1
  In  In59  1  0.66533168  0.83334257  0.16349847  1
  In  In60  1  0.37377337  -0.03792924  -0.03930575  1
  In  In61  1  0.66863475  -0.01402070  0.66421485  1
  In  In62  1  0.15276991  0.00746639  0.50800971  1
  In  In63  1  0.50176793  0.00381963  0.47969763  1
  In  In64  1  0.14933470  0.84413602  0.32226857  1
  In  In65  1  0.82334609  0.84275124  0.65384308  1
  In  In66  1  0.64504005  0.66090296  0.65716165  1
  In  In67  1  -0.01377222  0.84870597  0.81886082  1
  In  In68  1  0.33047166  0.82950434  0.16809722  1
  In  In69  1  0.18220130  0.01145094  0.82461934  1
  In  In70  1  -0.01983184  0.67289883  0.02637045  1
  In  In71  1  0.49472756  0.32317307  0.81048420  1
  Te  Te72  1  0.08177212  0.09086961  0.07087300  1
  Te  Te73  1  0.05559792  0.07363798  0.41837024  1
  Te  Te74  1  0.07975011  0.07980196  0.73608865  1
  Te  Te75  1  0.12586660  0.46931709  0.04052147  1
  Te  Te76  1  0.11580538  0.41136461  0.43377746  1
  Te  Te77  1  0.08553462  0.41319304  0.74929151  1
  Te  Te78  1  0.07815143  0.76402939  0.10404063  1
  Te  Te79  1  0.08036000  0.74971031  0.42319478  1
  Te  Te80  1  0.09635517  0.76885606  0.74966569  1
  Te  Te81  1  0.40473110  0.08489022  0.10492166  1
  Te  Te82  1  0.39117722  0.12131684  0.44566968  1
  Te  Te83  1  0.43347989  0.08382750  0.74512508  1
  Te  Te84  1  0.41154226  0.42934888  0.10590133  1
  Te  Te85  1  0.42450793  0.39816521  0.40656621  1
  Te  Te86  1  0.39882686  0.39885016  0.72632582  1
  Te  Te87  1  0.42035476  0.75909126  0.06774783  1
  Te  Te88  1  0.39724058  0.72507692  0.40073411  1
  Te  Te89  1  0.41830551  0.76302390  0.74412883  1
  Te  Te90  1  0.77271068  0.07299523  0.09459241  1
  Te  Te91  1  0.76483531  0.08119259  0.43608222  1
  Te  Te92  1  0.76649917  0.08056223  0.72855009  1
  Te  Te93  1  0.76917782  0.40627979  0.10259588  1
  Te  Te94  1  0.77060113  0.42413499  0.40163619  1
  Te  Te95  1  0.72442475  0.38577304  0.74713344  1
  Te  Te96  1  0.76753009  0.77309972  0.06964422  1
  Te  Te97  1  0.73595351  0.76933667  0.43618208  1
  Te  Te98  1  0.75589845  0.73323388  0.74574104  1
  Te  Te99  1  0.10273396  0.25800636  0.27043358  1
  Te  Te100  1  0.08668334  0.24506206  0.56067466  1
  Te  Te101  1  0.07951607  0.26718178  0.90962044  1
  Te  Te102  1  0.09602624  0.55241328  0.27043677  1
  Te  Te103  1  0.07747040  0.58707850  0.59104094  1
  Te  Te104  1  0.09332176  0.59546087  0.94978478  1
  Te  Te105  1  0.05805957  0.93432631  0.24878258  1
  Te  Te106  1  0.09409794  0.91237313  0.60406367  1
  Te  Te107  1  0.07961747  0.92945871  0.91798628  1
  Te  Te108  1  0.40607589  0.24585155  0.26950599  1
  Te  Te109  1  0.39940556  0.21806823  0.56485374  1
  Te  Te110  1  0.41888117  0.25032416  0.93146209  1
  Te  Te111  1  0.38498506  0.57847549  0.25167989  1
  Te  Te112  1  0.41640407  0.56871068  0.57308660  1
  Te  Te113  1  0.40568214  0.58941658  0.91746605  1
  Te  Te114  1  0.42035296  0.90857921  0.26485692  1
  Te  Te115  1  0.41915946  0.91668214  0.57445209  1
  Te  Te116  1  0.45350217  0.89456978  0.85884572  1
  Te  Te117  1  0.76608182  0.26884362  0.26519417  1
  Te  Te118  1  0.76175625  0.24805369  0.60334429  1
  Te  Te119  1  0.75292185  0.23684847  0.92264122  1
  Te  Te120  1  0.76349862  0.57455123  0.26315926  1
  Te  Te121  1  0.74434116  0.58826943  0.56756593  1
  Te  Te122  1  0.73902759  0.58570998  0.93554648  1
  Te  Te123  1  0.75336848  0.92340260  0.24891842  1
  Te  Te124  1  0.72756217  0.90108186  0.55622045  1
  Te  Te125  1  0.76946039  0.93129603  0.89583972  1
  Te  Te126  1  0.21700067  0.28702618  0.10370246  1
  Te  Te127  1  0.22579947  0.30379012  0.38496814  1
  Te  Te128  1  0.24938561  0.27630768  0.76743847  1
  Te  Te129  1  0.24815388  0.54748849  0.09917673  1
  Te  Te130  1  0.24218434  0.56050630  0.39065868  1
  Te  Te131  1  0.24552257  0.57155956  0.74546592  1
  Te  Te132  1  0.25194546  0.92336811  0.07688419  1
  Te  Te133  1  0.25151859  0.92603059  0.40824759  1
  Te  Te134  1  0.26248506  0.90899517  0.75810571  1
  Te  Te135  1  0.59301341  0.25498067  0.06851844  1
  Te  Te136  1  0.60415706  0.26381907  0.41203272  1
  Te  Te137  1  0.56712252  0.22986786  0.72280106  1
  Te  Te138  1  0.59500595  0.60563680  0.08749993  1
  Te  Te139  1  0.58792087  0.58868004  0.40862810  1
  Te  Te140  1  0.55884000  0.56255564  0.73810055  1
  Te  Te141  1  0.58332070  0.91339144  0.06004409  1
  Te  Te142  1  0.57283586  0.90181639  0.40119284  1
  Te  Te143  1  0.56933912  0.91122750  0.75233446  1
  Te  Te144  1  0.93792461  0.27341451  0.09603150  1
  Te  Te145  1  0.93383025  0.24979764  0.41912682  1
  Te  Te146  1  0.91445613  0.23825509  0.75322204  1
  Te  Te147  1  0.94184993  0.55841557  0.12531074  1
  Te  Te148  1  0.89956151  0.58539976  0.41373321  1
  Te  Te149  1  0.91149235  0.57396228  0.75314085  1
  Te  Te150  1  0.89546182  0.86957853  0.08758198  1
  Te  Te151  1  0.92082926  0.94262393  0.41413658  1
  Te  Te152  1  0.92115803  0.93944792  0.71850636  1
  Te  Te153  1  0.22381179  0.09909826  0.27935512  1
  Te  Te154  1  0.24649807  0.10075509  0.58518668  1
  Te  Te155  1  0.26654714  0.08396871  0.93232005  1
  Te  Te156  1  0.22907081  0.36830205  0.25664857  1
  Te  Te157  1  0.27082334  0.37519847  0.58294292  1
  Te  Te158  1  0.22630779  0.42662345  0.92599179  1
  Te  Te159  1  0.23954939  0.74328794  0.25221736  1
  Te  Te160  1  0.23957873  0.75336301  0.58810445  1
  Te  Te161  1  0.26908351  0.75914305  0.90716304  1
  Te  Te162  1  0.59034255  0.09335615  0.23932780  1
  Te  Te163  1  0.57444922  0.08188288  0.58749077  1
  Te  Te164  1  0.57834454  0.07110784  0.89577556  1
  Te  Te165  1  0.58610896  0.40520357  0.25279973  1
  Te  Te166  1  0.58136344  0.41085387  0.59482291  1
  Te  Te167  1  0.57074788  0.42388474  0.91028774  1
  Te  Te168  1  0.56815240  0.75530919  0.25129217  1
  Te  Te169  1  0.56868634  0.76862225  0.59338130  1
  Te  Te170  1  0.60208304  0.73886569  0.92524844  1
  Te  Te171  1  0.92085326  0.06715673  0.24174583  1
  Te  Te172  1  0.89096501  0.05487223  0.61481632  1
  Te  Te173  1  0.90783741  0.06346864  0.91800708  1
  Te  Te174  1  0.94876060  0.43434967  0.22203919  1
  Te  Te175  1  0.91855727  0.42677362  0.58827594  1
  Te  Te176  1  0.93122386  0.41010712  0.93804713  1
  Te  Te177  1  0.91824699  0.75572773  0.24868400  1
  Te  Te178  1  0.90413482  0.74517212  0.56559266  1
  Te  Te179  1  0.91298612  0.77648227  0.93032463  1
