# generated using pymatgen
data_In2Te3
_symmetry_space_group_name_H-M   'P 1'
_cell_length_a   18.94453025
_cell_length_b   18.93389803
_cell_length_c   18.91686522
_cell_angle_alpha   89.90408625
_cell_angle_beta   90.07025408
_cell_angle_gamma   90.05687424
_symmetry_Int_Tables_number   1
_chemical_formula_structural   In2Te3
_chemical_formula_sum   'In72 Te108'
_cell_volume   6785.34440694
_cell_formula_units_Z   36
loop_
 _symmetry_equiv_pos_site_id
 _symmetry_equiv_pos_as_xyz
  1  'x, y, z'
loop_
 _atom_site_type_symbol
 _atom_site_label
 _atom_site_symmetry_multiplicity
 _atom_site_fract_x
 _atom_site_fract_y
 _atom_site_fract_z
 _atom_site_occupancy
  In  In0  1  0.01951417  0.84016254  0.82947267  1
  In  In1  1  0.47937357  0.67369754  0.83078267  1
  In  In2  1  0.33785248  0.65332510  0.35074114  1
  In  In3  1  -0.00087203  0.66986905  0.03096131  1
  In  In4  1  0.66865123  0.35977550  0.66375444  1
  In  In5  1  0.65161599  0.67327342  0.01326073  1
  In  In6  1  0.65373266  0.63642765  0.23198432  1
  In  In7  1  0.48805139  -0.01784857  0.47945379  1
  In  In8  1  0.83720382  0.17234454  0.65559817  1
  In  In9  1  0.02009826  0.18308695  0.80166018  1
  In  In10  1  0.68939813  -0.01050635  0.34612467  1
  In  In11  1  0.50429589  0.35342846  0.81413882  1
  In  In12  1  0.85743650  -0.00534160  0.49044347  1
  In  In13  1  0.50387117  0.30909080  0.50531494  1
  In  In14  1  0.48697728  0.53817176  -0.00273587  1
  In  In15  1  0.17644374  0.52248509  0.66681488  1
  In  In16  1  0.47435437  0.18328093  0.30359752  1
  In  In17  1  0.04932149  0.44958028  -0.00049334  1
  In  In18  1  0.66871038  0.15018763  0.17291307  1
  In  In19  1  0.08927555  -0.05171526  0.34985037  1
  In  In20  1  0.16253848  0.16773515  0.32943076  1
  In  In21  1  0.30157956  -0.02849228  0.65083576  1
  In  In22  1  0.01629968  0.35757427  0.64438121  1
  In  In23  1  0.51970756  0.65209949  0.50158085  1
  In  In24  1  0.32022606  0.82839162  0.48708277  1
  In  In25  1  0.85226218  0.35987430  0.15047977  1
  In  In26  1  0.00256264  0.51129610  0.50479285  1
  In  In27  1  0.50524176  0.50634350  0.32420077  1
  In  In28  1  0.32951019  0.81432308  0.85301441  1
  In  In29  1  0.18595626  0.49929707  0.30910671  1
  In  In30  1  0.33919000  -0.03563456  0.01792861  1
  In  In31  1  0.03961372  0.69418670  0.33011209  1
  In  In32  1  -0.02295052  0.34135400  0.32940576  1
  In  In33  1  0.32497856  0.02477969  0.32275521  1
  In  In34  1  0.20180916  -0.01810418  0.85128113  1
  In  In35  1  0.17326622  0.66750849  0.17338162  1
  In  In36  1  0.69075666  0.65220301  0.66093690  1
  In  In37  1  0.69255011  0.40655601  0.34886028  1
  In  In38  1  0.62527594  0.17666646  0.50626963  1
  In  In39  1  0.33289784  0.16103062  0.83299738  1
  In  In40  1  0.15729020  0.19388759  0.03199016  1
  In  In41  1  0.84082131  0.82728013  0.65945066  1
  In  In42  1  -0.00397391  0.16854442  0.19946011  1
  In  In43  1  0.67964785  0.50074700  0.82727119  1
  In  In44  1  0.66883115  0.31001381  0.00054027  1
  In  In45  1  0.85755027  0.65797312  0.80383138  1
  In  In46  1  0.85259293  0.83313138  0.31908091  1
  In  In47  1  0.82932601  0.19807711  0.34803769  1
  In  In48  1  0.32591612  0.49922514  0.50274647  1
  In  In49  1  0.33936268  0.81938701  0.16905321  1
  In  In50  1  0.14699976  0.36123048  0.82739210  1
  In  In51  1  0.32528445  0.33803563  -0.01300481  1
  In  In52  1  0.18338876  0.15260484  0.67272867  1
  In  In53  1  0.63718114  -0.02174750  0.01038840  1
  In  In54  1  0.84404072  0.51538313  0.01050761  1
  In  In55  1  0.83217336  -0.00449497  0.17610455  1
  In  In56  1  0.49193951  -0.03186725  0.16491164  1
  In  In57  1  0.82038504  0.82303609  0.00707317  1
  In  In58  1  0.68283402  0.83291450  0.51193499  1
  In  In59  1  0.49606334  0.14838819  0.01772753  1
  In  In60  1  0.47993540  0.14763460  0.65921500  1
  In  In61  1  0.00361569  0.00649263  -0.01444319  1
  In  In62  1  0.16558553  0.67973735  0.84746528  1
  In  In63  1  0.62930574  -0.05137334  0.71490904  1
  In  In64  1  0.66047845  0.18565959  0.86021374  1
  In  In65  1  0.85094121  0.66840328  0.51436287  1
  In  In66  1  0.81621076  0.19795988  -0.00967930  1
  In  In67  1  0.16506294  0.31873002  0.49060313  1
  In  In68  1  0.82068952  0.01047569  0.84403477  1
  In  In69  1  0.03110360  -0.03502043  0.63951648  1
  In  In70  1  0.47088142  0.49220977  0.66197476  1
  In  In71  1  0.31279725  0.49464274  0.13871743  1
  Te  Te72  1  0.07352047  0.08292388  0.09663525  1
  Te  Te73  1  0.07262720  0.08107988  0.40782294  1
  Te  Te74  1  0.09551550  0.05735371  0.76191649  1
  Te  Te75  1  0.08836179  0.41654507  0.13700668  1
  Te  Te76  1  0.08897631  0.42238087  0.40767355  1
  Te  Te77  1  0.05974374  0.45618772  0.74961644  1
  Te  Te78  1  0.08132221  0.77013814  0.10874929  1
  Te  Te79  1  0.10807249  0.76645889  0.44094601  1
  Te  Te80  1  0.06085682  0.72406702  0.75106062  1
  Te  Te81  1  0.40076787  0.07491204  0.10642018  1
  Te  Te82  1  0.41918331  0.10371295  0.42051373  1
  Te  Te83  1  0.39594285  0.05603798  0.74540116  1
  Te  Te84  1  0.42624495  0.41849069  0.06986070  1
  Te  Te85  1  0.43098217  0.42186432  0.42843808  1
  Te  Te86  1  0.38662263  0.41851310  0.75744956  1
  Te  Te87  1  0.44318037  0.75104479  0.08657188  1
  Te  Te88  1  0.43318434  0.74830107  0.41951372  1
  Te  Te89  1  0.38615426  0.74071264  0.73824489  1
  Te  Te90  1  0.75064986  0.07491457  0.06268472  1
  Te  Te91  1  0.74525478  0.09652093  0.43761538  1
  Te  Te92  1  0.74210328  0.10373874  0.75420405  1
  Te  Te93  1  0.73716110  0.42325622  0.07507612  1
  Te  Te94  1  0.78201186  0.43523134  0.46096911  1
  Te  Te95  1  0.77818042  0.44188038  0.72886964  1
  Te  Te96  1  0.74817123  0.73881890  0.10529415  1
  Te  Te97  1  0.76590368  0.75221436  0.41533391  1
  Te  Te98  1  0.74985069  0.75537341  0.75589549  1
  Te  Te99  1  0.08701746  0.28413269  0.23806786  1
  Te  Te100  1  0.08484657  0.23453733  0.58835999  1
  Te  Te101  1  0.07610717  0.25910727  0.92007106  1
  Te  Te102  1  0.08049508  0.55232939  0.21567584  1
  Te  Te103  1  0.07720464  0.60311488  0.59284111  1
  Te  Te104  1  0.07162614  0.58409557  0.93266098  1
  Te  Te105  1  0.10187264  0.87972133  0.22135010  1
  Te  Te106  1  0.11391543  0.87567975  0.55532447  1
  Te  Te107  1  0.10422094  0.90344587  0.93862441  1
  Te  Te108  1  0.37957423  0.27595895  0.24259739  1
  Te  Te109  1  0.40322140  0.25464103  0.59732028  1
  Te  Te110  1  0.43447487  0.24511435  0.91140807  1
  Te  Te111  1  0.40134715  0.57587632  0.23847226  1
  Te  Te112  1  0.40118453  0.60328640  0.58405391  1
  Te  Te113  1  0.39079481  0.57087583  0.89096078  1
  Te  Te114  1  0.41031849  0.90672131  0.27453853  1
  Te  Te115  1  0.41850119  0.89709566  0.58311277  1
  Te  Te116  1  0.42534414  0.91674835  0.90862670  1
  Te  Te117  1  0.76237242  0.25611047  0.22638953  1
  Te  Te118  1  0.73700178  0.25594839  0.57561221  1
  Te  Te119  1  0.76693523  0.29108196  0.88149910  1
  Te  Te120  1  0.74996260  0.53231227  0.28044406  1
  Te  Te121  1  0.74334251  0.56903405  0.54890192  1
  Te  Te122  1  0.75455413  0.60187899  0.91273027  1
  Te  Te123  1  0.73463551  0.89704966  0.23526302  1
  Te  Te124  1  0.75829097  0.93813921  0.59393490  1
  Te  Te125  1  0.73409843  0.90853233  0.91441381  1
  Te  Te126  1  0.27188383  0.25793981  0.10064333  1
  Te  Te127  1  0.26021940  0.25165842  0.40210037  1
  Te  Te128  1  0.24326082  0.25967653  0.76146545  1
  Te  Te129  1  0.26598285  0.61766687  0.06783842  1
  Te  Te130  1  0.22585810  0.58416852  0.42771701  1
  Te  Te131  1  0.25849130  0.59490761  0.76733378  1
  Te  Te132  1  0.23736761  0.91241608  0.11065409  1
  Te  Te133  1  0.24429166  0.93929139  0.41647447  1
  Te  Te134  1  0.23076875  0.87856966  0.74653660  1
  Te  Te135  1  0.57324781  0.24694288  0.10294303  1
  Te  Te136  1  0.58808831  0.25475995  0.38190679  1
  Te  Te137  1  0.57994579  0.24734765  0.73577955  1
  Te  Te138  1  0.59167783  0.56865713  0.10439328  1
  Te  Te139  1  0.59921866  0.61254797  0.37974407  1
  Te  Te140  1  0.57910938  0.57564789  0.74104103  1
  Te  Te141  1  0.56596717  0.86739600  0.08258601  1
  Te  Te142  1  0.58945359  0.89321156  0.40756531  1
  Te  Te143  1  0.54362978  0.87022152  0.80167403  1
  Te  Te144  1  0.92398355  0.24439168  0.08541857  1
  Te  Te145  1  0.93665481  0.24569923  0.43496211  1
  Te  Te146  1  0.92030584  0.27279658  0.73389240  1
  Te  Te147  1  0.90343966  0.59772618  0.11699435  1
  Te  Te148  1  0.93951056  0.60655988  0.40351073  1
  Te  Te149  1  0.87754049  0.55711195  0.70091567  1
  Te  Te150  1  0.91734758  0.91882636  0.07765667  1
  Te  Te151  1  0.94502804  0.90095344  0.41629786  1
  Te  Te152  1  0.91566403  0.92894806  0.75754434  1
  Te  Te153  1  0.22929854  0.08368469  0.22838073  1
  Te  Te154  1  0.24784158  0.07780124  0.56585920  1
  Te  Te155  1  0.24802629  0.09628943  0.94110788  1
  Te  Te156  1  0.29030573  0.40414419  0.26034940  1
  Te  Te157  1  0.24163143  0.40791279  0.58919747  1
  Te  Te158  1  0.20971067  0.42481918  0.94744554  1
  Te  Te159  1  0.25085345  0.75094546  0.27436296  1
  Te  Te160  1  0.21353610  0.75149284  0.55786112  1
  Te  Te161  1  0.24788281  0.74353405  0.95540524  1
  Te  Te162  1  0.58154579  0.06088292  0.25864161  1
  Te  Te163  1  0.57715863  0.05382332  0.58877644  1
  Te  Te164  1  0.57070838  0.07287841  0.90980781  1
  Te  Te165  1  0.58565759  0.40836623  0.24912502  1
  Te  Te166  1  0.57529132  0.43028917  0.56886240  1
  Te  Te167  1  0.58495906  0.42489731  0.92084074  1
  Te  Te168  1  0.53779470  0.73229850  0.20137234  1
  Te  Te169  1  0.58950604  0.74913556  0.59660785  1
  Te  Te170  1  0.58766988  0.75005506  0.90102006  1
  Te  Te171  1  0.90306656  0.07763331  0.27904821  1
  Te  Te172  1  0.93760015  0.07655868  0.59016904  1
  Te  Te173  1  0.92138818  0.10867790  0.90455913  1
  Te  Te174  1  0.88977719  0.44541267  0.26722426  1
  Te  Te175  1  0.91012539  0.39715362  0.54485655  1
  Te  Te176  1  0.92184463  0.41797051  0.93423933  1
  Te  Te177  1  0.93724457  0.74567560  0.23586183  1
  Te  Te178  1  0.94521525  0.75164445  0.59223461  1
  Te  Te179  1  0.91977589  0.75233997  0.91489976  1
