# generated using pymatgen
data_In2Te3
_symmetry_space_group_name_H-M   'P 1'
_cell_length_a   18.93374624
_cell_length_b   18.92175168
_cell_length_c   18.93698373
_cell_angle_alpha   89.85869879
_cell_angle_beta   90.03521393
_cell_angle_gamma   90.02811018
_symmetry_Int_Tables_number   1
_chemical_formula_structural   In2Te3
_chemical_formula_sum   'In72 Te108'
_cell_volume   6784.33434068
_cell_formula_units_Z   36
loop_
 _symmetry_equiv_pos_site_id
 _symmetry_equiv_pos_as_xyz
  1  'x, y, z'
loop_
 _atom_site_type_symbol
 _atom_site_label
 _atom_site_symmetry_multiplicity
 _atom_site_fract_x
 _atom_site_fract_y
 _atom_site_fract_z
 _atom_site_occupancy
  In  In0  1  0.53674091  0.31986978  0.14139079  1
  In  In1  1  0.83694183  0.51156770  0.01860971  1
  In  In2  1  0.51402220  0.49958916  -0.00135201  1
  In  In3  1  0.84462412  -0.00873575  0.84701066  1
  In  In4  1  0.33872706  0.49562479  0.84346210  1
  In  In5  1  0.70579031  0.47102300  0.47844598  1
  In  In6  1  0.13956508  0.34071579  0.18194440  1
  In  In7  1  -0.00738042  0.00606985  0.33251901  1
  In  In8  1  0.14824106  0.82988643  0.66885035  1
  In  In9  1  0.34648494  -0.00029134  0.00162286  1
  In  In10  1  0.17389974  0.63870870  0.84393267  1
  In  In11  1  0.83842723  0.48729915  0.66313364  1
  In  In12  1  -0.00965436  0.33662810  -0.01873791  1
  In  In13  1  0.66544929  0.81916702  0.84026382  1
  In  In14  1  0.49256543  0.83797664  0.01197559  1
  In  In15  1  0.07259394  0.68429331  0.53023405  1
  In  In16  1  0.32940726  0.34232983  0.67342116  1
  In  In17  1  0.79260587  0.01816865  0.15028676  1
  In  In18  1  0.52504892  0.17989736  0.67486927  1
  In  In19  1  0.67122357  0.65925116  0.69495940  1
  In  In20  1  0.50980816  0.63831665  0.48625196  1
  In  In21  1  0.67331832  0.46898824  0.83985680  1
  In  In22  1  0.16645824  -0.01326476  0.52070457  1
  In  In23  1  -0.01671363  0.15444923  0.82734934  1
  In  In24  1  -0.00056114  0.65519549  0.33439522  1
  In  In25  1  0.83180095  0.65514616  0.84151710  1
  In  In26  1  0.33382129  0.67856077  0.31413517  1
  In  In27  1  0.16367174  0.50926095  0.01832664  1
  In  In28  1  0.31171022  0.82849207  0.85370179  1
  In  In29  1  0.33453627  0.50839722  0.48916329  1
  In  In30  1  0.48012691  0.82018328  0.66720428  1
  In  In31  1  0.83724377  0.81856105  0.31207997  1
  In  In32  1  0.30848683  0.82838601  0.51757404  1
  In  In33  1  0.83197219  0.83295260  0.00932450  1
  In  In34  1  0.14332915  -0.00352962  0.85106768  1
  In  In35  1  0.02187265  0.17929480  0.17206621  1
  In  In36  1  0.15497840  0.19772124  0.31792646  1
  In  In37  1  0.17166695  -0.02189939  0.15400459  1
  In  In38  1  0.16906711  0.16340137  0.67824269  1
  In  In39  1  0.83524201  -0.00880846  0.49018097  1
  In  In40  1  0.34557151  0.01150990  0.33484151  1
  In  In41  1  0.35398155  0.00438259  0.67310817  1
  In  In42  1  0.00146468  0.81741201  0.15969503  1
  In  In43  1  0.65340099  0.83160443  0.47451286  1
  In  In44  1  0.84042638  0.34893450  0.16199844  1
  In  In45  1  0.68757325  0.00266884  0.64605235  1
  In  In46  1  0.38017933  0.31983206  -0.01173704  1
  In  In47  1  0.49600375  0.66849413  0.16891961  1
  In  In48  1  0.15017995  0.35538187  0.83749030  1
  In  In49  1  0.35598304  0.16894389  0.17336536  1
  In  In50  1  0.53735777  0.48041385  0.31122874  1
  In  In51  1  0.18910994  0.15374714  0.01500202  1
  In  In52  1  0.52537587  0.16156523  0.34365168  1
  In  In53  1  -0.00223438  0.83536366  0.83275927  1
  In  In54  1  0.47807291  0.85965038  0.33595734  1
  In  In55  1  0.68082565  0.16775343  0.50375025  1
  In  In56  1  0.48330427  0.68644128  0.84129395  1
  In  In57  1  0.53017872  0.31931859  0.51313296  1
  In  In58  1  -0.01603690  0.17919776  0.49148856  1
  In  In59  1  0.67650375  0.18440099  0.85447666  1
  In  In60  1  0.84343973  0.18468512  0.66715830  1
  In  In61  1  0.51992425  0.01172150  0.16596464  1
  In  In62  1  0.16624802  0.67664006  0.17065548  1
  In  In63  1  0.14553911  0.33565830  0.49288699  1
  In  In64  1  0.15484607  0.49499234  0.34661254  1
  In  In65  1  0.33154231  0.34732321  0.34050234  1
  In  In66  1  0.85861640  0.66197913  0.50038246  1
  In  In67  1  -0.01061899  0.49444488  0.81613715  1
  In  In68  1  0.83747951  0.19648880  0.33576967  1
  In  In69  1  0.67323263  0.79548382  0.17767729  1
  In  In70  1  0.48535009  0.48240993  0.66742501  1
  In  In71  1  0.52361266  0.02441196  0.81262871  1
  Te  Te72  1  0.07803291  0.07213853  0.07918949  1
  Te  Te73  1  0.08923115  0.09176399  0.41547088  1
  Te  Te74  1  0.06983429  0.06566973  0.73842519  1
  Te  Te75  1  0.05615028  0.42361832  0.08680063  1
  Te  Te76  1  0.04566592  0.43097055  0.42978259  1
  Te  Te77  1  0.09045972  0.43214866  0.72835096  1
  Te  Te78  1  0.08687938  0.74604891  0.06567009  1
  Te  Te79  1  0.09316123  0.74715951  0.39957849  1
  Te  Te80  1  0.08161559  0.73056855  0.76101311  1
  Te  Te81  1  0.43920132  0.10893312  0.06000878  1
  Te  Te82  1  0.41310270  0.10827545  0.41999052  1
  Te  Te83  1  0.41436776  0.11485875  0.75768266  1
  Te  Te84  1  0.42585002  0.41364148  0.09407877  1
  Te  Te85  1  0.44066271  0.41798663  0.42885751  1
  Te  Te86  1  0.42959386  0.39286900  0.77667350  1
  Te  Te87  1  0.40489285  0.75294966  0.09140325  1
  Te  Te88  1  0.41499077  0.74758013  0.43260898  1
  Te  Te89  1  0.37822630  0.74099555  0.74567546  1
  Te  Te90  1  0.72865023  0.11397095  0.05432883  1
  Te  Te91  1  0.75457340  0.08242774  0.40318741  1
  Te  Te92  1  0.75278330  0.09031383  0.74938311  1
  Te  Te93  1  0.73487647  0.42842971  0.08886179  1
  Te  Te94  1  0.78999635  0.44068539  0.36024758  1
  Te  Te95  1  0.75658823  0.39538057  0.74504576  1
  Te  Te96  1  0.75541652  0.72140222  0.07407957  1
  Te  Te97  1  0.75469687  0.73901001  0.41150137  1
  Te  Te98  1  0.76997078  0.76120214  0.74726933  1
  Te  Te99  1  0.03730921  0.28637601  0.28082065  1
  Te  Te100  1  0.07383103  0.24836723  0.59438072  1
  Te  Te101  1  0.09441316  0.23786929  0.92599933  1
  Te  Te102  1  0.07891311  0.56839128  0.23916207  1
  Te  Te103  1  0.04922092  0.53832663  0.55133170  1
  Te  Te104  1  0.06230491  0.57250847  0.92481069  1
  Te  Te105  1  0.08014331  0.91005439  0.25424208  1
  Te  Te106  1  0.06015322  0.90705060  0.57957133  1
  Te  Te107  1  0.07814493  0.90042590  0.93843637  1
  Te  Te108  1  0.43338712  0.27101483  0.25624828  1
  Te  Te109  1  0.41786525  0.25218492  0.58847111  1
  Te  Te110  1  0.43231543  0.19878448  0.93200671  1
  Te  Te111  1  0.42458108  0.56561811  0.26006169  1
  Te  Te112  1  0.40983799  0.59077987  0.59230016  1
  Te  Te113  1  0.40959924  0.59238965  0.93559228  1
  Te  Te114  1  0.40487158  0.92960870  0.22182316  1
  Te  Te115  1  0.42173967  0.91908635  0.56762102  1
  Te  Te116  1  0.43353248  0.92083932  0.89204136  1
  Te  Te117  1  0.75260444  0.25148479  0.23077126  1
  Te  Te118  1  0.76089148  0.26871319  0.57557167  1
  Te  Te119  1  0.75416604  0.24791944  0.96537964  1
  Te  Te120  1  0.69926680  0.64363296  0.19837757  1
  Te  Te121  1  0.74236466  0.58683773  0.58210557  1
  Te  Te122  1  0.73080679  0.58040417  0.92314640  1
  Te  Te123  1  0.73981015  0.91704454  0.25194171  1
  Te  Te124  1  0.75616145  0.89068712  0.57281468  1
  Te  Te125  1  0.73656206  0.91925797  0.92790621  1
  Te  Te126  1  0.24914290  0.25714625  0.10794763  1
  Te  Te127  1  0.25200341  0.24960031  0.42386480  1
  Te  Te128  1  0.24670597  0.25693460  0.76823657  1
  Te  Te129  1  0.25750909  0.58193531  0.10177970  1
  Te  Te130  1  0.24384015  0.59948299  0.41102976  1
  Te  Te131  1  0.24270897  0.54999744  0.74742010  1
  Te  Te132  1  0.25071218  0.90337063  0.05606217  1
  Te  Te133  1  0.24756319  0.91927168  0.41225645  1
  Te  Te134  1  0.24708132  0.92307169  0.74485410  1
  Te  Te135  1  0.62530328  0.23838551  0.05313035  1
  Te  Te136  1  0.61760373  0.26821477  0.40263565  1
  Te  Te137  1  0.60800950  0.26940526  0.75473035  1
  Te  Te138  1  0.59393256  0.57854363  0.09963298  1
  Te  Te139  1  0.61687733  0.57248013  0.40177485  1
  Te  Te140  1  0.56303330  0.57903344  0.76532322  1
  Te  Te141  1  0.59929628  0.90713234  0.09283627  1
  Te  Te142  1  0.57939397  0.93809416  0.40698306  1
  Te  Te143  1  0.59096499  0.90643585  0.73242360  1
  Te  Te144  1  0.92095072  0.24452037  0.07920374  1
  Te  Te145  1  0.87997248  0.27833985  0.45234529  1
  Te  Te146  1  0.92729813  0.26750995  0.75464996  1
  Te  Te147  1  0.90883939  0.58447194  0.12559060  1
  Te  Te148  1  0.88741049  0.56588054  0.38685288  1
  Te  Te149  1  0.91735390  0.59802039  0.73112421  1
  Te  Te150  1  0.90398607  0.92573840  0.10342612  1
  Te  Te151  1  0.92360223  0.89640280  0.41063619  1
  Te  Te152  1  0.91249989  0.91521123  0.74331152  1
  Te  Te153  1  0.23909531  0.08981097  0.24516412  1
  Te  Te154  1  0.26049885  0.08689169  0.58380376  1
  Te  Te155  1  0.25877691  0.07934841  0.90356395  1
  Te  Te156  1  0.24875321  0.42825436  0.24470235  1
  Te  Te157  1  0.24486690  0.42019596  0.57381596  1
  Te  Te158  1  0.25360349  0.40283433  0.94179837  1
  Te  Te159  1  0.24150783  0.77333101  0.25435644  1
  Te  Te160  1  0.22026956  0.72746450  0.58348914  1
  Te  Te161  1  0.24230648  0.73115806  0.93676551  1
  Te  Te162  1  0.60693515  0.10583045  0.23610293  1
  Te  Te163  1  0.57870980  0.07918337  0.57437427  1
  Te  Te164  1  0.60575950  0.07214053  0.92359512  1
  Te  Te165  1  0.62964453  0.40932296  0.21947752  1
  Te  Te166  1  0.60147698  0.42916430  0.58796612  1
  Te  Te167  1  0.58391816  0.39156323  0.92755359  1
  Te  Te168  1  0.56479332  0.75052818  0.27869326  1
  Te  Te169  1  0.58129451  0.73632449  0.58820138  1
  Te  Te170  1  0.58564300  0.73868278  0.93997010  1
  Te  Te171  1  0.90880984  0.09020701  0.23834439  1
  Te  Te172  1  0.91595888  0.07868443  0.58284393  1
  Te  Te173  1  0.91931096  0.08004800  0.93502051  1
  Te  Te174  1  0.87934540  0.47795411  0.23491814  1
  Te  Te175  1  0.93611701  0.43385951  0.56644252  1
  Te  Te176  1  0.89060754  0.42133812  0.90654500  1
  Te  Te177  1  0.90362636  0.71596020  0.22041062  1
  Te  Te178  1  0.94637383  0.75257903  0.57204638  1
  Te  Te179  1  0.92053873  0.74061836  0.92850056  1
