# generated using pymatgen
data_In2Te3
_symmetry_space_group_name_H-M   'P 1'
_cell_length_a   18.95304189
_cell_length_b   18.94288514
_cell_length_c   18.93615358
_cell_angle_alpha   89.93922061
_cell_angle_beta   89.90568209
_cell_angle_gamma   89.91670505
_symmetry_Int_Tables_number   1
_chemical_formula_structural   In2Te3
_chemical_formula_sum   'In72 Te108'
_cell_volume   6798.53792987
_cell_formula_units_Z   36
loop_
 _symmetry_equiv_pos_site_id
 _symmetry_equiv_pos_as_xyz
  1  'x, y, z'
loop_
 _atom_site_type_symbol
 _atom_site_label
 _atom_site_symmetry_multiplicity
 _atom_site_fract_x
 _atom_site_fract_y
 _atom_site_fract_z
 _atom_site_occupancy
  In  In0  1  0.82673248  -0.00523939  0.14496681  1
  In  In1  1  0.03737957  0.41228784  0.87304818  1
  In  In2  1  0.51280041  -0.00100305  0.48028570  1
  In  In3  1  -0.01013416  0.48939026  0.49205948  1
  In  In4  1  0.68806546  0.34344923  0.33342240  1
  In  In5  1  0.03117261  0.85445164  0.84172934  1
  In  In6  1  0.32325869  0.69892286  0.33555915  1
  In  In7  1  0.81921988  -0.00664533  0.49834829  1
  In  In8  1  0.18780955  0.00727426  0.84670332  1
  In  In9  1  0.03016825  0.82148543  0.14439864  1
  In  In10  1  0.47030006  0.31908030  0.87144602  1
  In  In11  1  0.83438180  0.19662212  0.32624065  1
  In  In12  1  0.19757369  0.15177640  0.64916929  1
  In  In13  1  0.66519670  0.15705363  0.48653056  1
  In  In14  1  0.49160893  0.67499452  0.88505578  1
  In  In15  1  0.16687669  0.84410853  0.66063031  1
  In  In16  1  0.64929250  0.14683551  0.84946461  1
  In  In17  1  0.34649044  0.15572130  0.48709803  1
  In  In18  1  0.84497286  0.82912517  -0.00497345  1
  In  In19  1  0.51402393  0.81377165  0.30882860  1
  In  In20  1  0.15683150  0.33000134  0.50980836  1
  In  In21  1  0.44964547  0.12796261  0.67947869  1
  In  In22  1  0.69730315  0.48709069  0.17954550  1
  In  In23  1  0.81838679  0.18838671  0.65965275  1
  In  In24  1  0.66851836  0.67625197  0.00904622  1
  In  In25  1  0.64973709  0.69059390  0.67669466  1
  In  In26  1  0.32020095  0.52789502  0.15449057  1
  In  In27  1  0.64494602  -0.00711854  0.01273976  1
  In  In28  1  0.82731877  0.81580875  0.65074045  1
  In  In29  1  0.02868674  0.17279783  0.86416567  1
  In  In30  1  0.30995589  0.15548214  0.15631228  1
  In  In31  1  0.34139070  0.31287567  0.70418648  1
  In  In32  1  0.49617065  -0.00675142  0.19442653  1
  In  In33  1  0.52248114  0.32966016  0.49470103  1
  In  In34  1  -0.03057757  0.49329422  0.19654315  1
  In  In35  1  0.84337649  0.64689638  0.87346805  1
  In  In36  1  0.84278422  0.01826879  0.82192196  1
  In  In37  1  0.65679032  0.84403746  0.82164708  1
  In  In38  1  0.16581467  0.50164615  0.00916154  1
  In  In39  1  0.35087512  0.66695854  0.66182077  1
  In  In40  1  0.14471296  0.49030089  0.69160762  1
  In  In41  1  0.82636562  0.48572712  0.63934754  1
  In  In42  1  0.14670691  0.53506519  0.33289492  1
  In  In43  1  0.83806058  0.66095591  0.48386631  1
  In  In44  1  0.01487715  0.14627773  0.14229477  1
  In  In45  1  0.15805887  0.14349623  0.33027819  1
  In  In46  1  0.49532139  0.33490449  0.13648636  1
  In  In47  1  -0.00858705  0.01032428  0.35494967  1
  In  In48  1  0.83928202  0.16287069  -0.00706675  1
  In  In49  1  0.34079238  0.46123482  0.84983044  1
  In  In50  1  0.50291842  0.52701918  0.32558777  1
  In  In51  1  0.48645969  0.87271865  0.66472432  1
  In  In52  1  0.00920363  -0.00267126  0.64324003  1
  In  In53  1  0.17112332  0.69517719  0.49030816  1
  In  In54  1  0.84811314  0.33902376  0.83097359  1
  In  In55  1  0.17250686  0.66604869  0.85077039  1
  In  In56  1  0.34128243  0.33534238  0.31608236  1
  In  In57  1  0.32687958  -0.00505787  0.00451538  1
  In  In58  1  0.83284632  0.85618928  0.30872507  1
  In  In59  1  0.17491948  0.32212206  0.15955898  1
  In  In60  1  0.67689573  0.50863649  0.84052486  1
  In  In61  1  -0.00884779  0.63551055  0.67069463  1
  In  In62  1  0.49275629  0.54661897  0.02180314  1
  In  In63  1  0.18680887  -0.01395191  0.15921549  1
  In  In64  1  0.66303423  0.34993316  0.01233628  1
  In  In65  1  0.64037563  0.30168356  0.66296096  1
  In  In66  1  0.82627457  0.65444410  0.17225296  1
  In  In67  1  0.31463428  0.83150182  0.83927162  1
  In  In68  1  0.67621688  0.82955429  0.49077637  1
  In  In69  1  0.17665881  0.84955621  0.33855801  1
  In  In70  1  0.34441498  0.50134809  0.53078513  1
  In  In71  1  0.65935140  0.48648595  0.46332377  1
  Te  Te72  1  0.13378462  0.09416261  0.07326416  1
  Te  Te73  1  0.06072756  0.11180709  0.43675719  1
  Te  Te74  1  0.08094239  0.07125981  0.75325158  1
  Te  Te75  1  0.07750568  0.42274039  0.10498180  1
  Te  Te76  1  0.08827164  0.41194532  0.40187413  1
  Te  Te77  1  0.04913581  0.38607276  0.72617899  1
  Te  Te78  1  0.11198230  0.74102310  0.05232661  1
  Te  Te79  1  0.08112488  0.74888822  0.39062108  1
  Te  Te80  1  0.08550399  0.74276111  0.74177313  1
  Te  Te81  1  0.42132226  0.07840726  0.08943427  1
  Te  Te82  1  0.43771095  0.09135828  0.38579300  1
  Te  Te83  1  0.39077722  0.03793105  0.77792498  1
  Te  Te84  1  0.40016880  0.43244346  0.06876996  1
  Te  Te85  1  0.42237673  0.41881399  0.41544232  1
  Te  Te86  1  0.44029788  0.41789445  0.74755816  1
  Te  Te87  1  0.43387315  0.68693701  0.02649789  1
  Te  Te88  1  0.42036980  0.77145481  0.41623446  1
  Te  Te89  1  0.42499694  0.75755413  0.76082487  1
  Te  Te90  1  0.73396572  0.09673894  0.08062332  1
  Te  Te91  1  0.75558767  0.08001505  0.39325818  1
  Te  Te92  1  0.73667427  0.08757674  0.73823990  1
  Te  Te93  1  0.77121484  0.37891878  0.10982182  1
  Te  Te94  1  0.78622241  0.43069171  0.40725075  1
  Te  Te95  1  0.73042704  0.40268777  0.74447192  1
  Te  Te96  1  0.75334800  0.76698426  0.09564256  1
  Te  Te97  1  0.75675790  0.74971595  0.39143422  1
  Te  Te98  1  0.76483897  0.74058475  0.77507770  1
  Te  Te99  1  0.07966668  0.24198964  0.24584224  1
  Te  Te100  1  0.08666498  0.22076557  0.57855858  1
  Te  Te101  1  0.08907041  0.28545055  0.93470483  1
  Te  Te102  1  0.06803774  0.60046619  0.22959822  1
  Te  Te103  1  0.10018402  0.57981431  0.57534692  1
  Te  Te104  1  0.07654208  0.56457398  0.90089052  1
  Te  Te105  1  0.07039598  0.93338619  0.24875747  1
  Te  Te106  1  0.08823179  0.90989133  0.55186983  1
  Te  Te107  1  0.11349915  0.92219895  0.94206453  1
  Te  Te108  1  0.41784548  0.24185319  0.22998245  1
  Te  Te109  1  0.41571633  0.25626040  0.57747083  1
  Te  Te110  1  0.37161391  0.22859965  0.92747454  1
  Te  Te111  1  0.41006161  0.61212791  0.24236678  1
  Te  Te112  1  0.44742971  0.59077410  0.58119687  1
  Te  Te113  1  0.36448900  0.59203559  0.91966569  1
  Te  Te114  1  0.40103736  0.89575595  0.25459975  1
  Te  Te115  1  0.40633897  0.93310362  0.55856016  1
  Te  Te116  1  0.41241767  0.92798381  0.89950730  1
  Te  Te117  1  0.73987631  0.25401336  0.22715383  1
  Te  Te118  1  0.74388860  0.26859262  0.55530475  1
  Te  Te119  1  0.73988460  0.25457941  0.90644082  1
  Te  Te120  1  0.75781990  0.57658436  0.27775402  1
  Te  Te121  1  0.74295822  0.60360830  0.58923672  1
  Te  Te122  1  0.75401755  0.56027593  0.96045915  1
  Te  Te123  1  0.72900673  0.92737196  0.23244163  1
  Te  Te124  1  0.73228081  0.92096275  0.59990427  1
  Te  Te125  1  0.75937111  0.92825765  0.91295536  1
  Te  Te126  1  0.27696213  0.26966676  0.06539573  1
  Te  Te127  1  0.25193440  0.25202519  0.40843412  1
  Te  Te128  1  0.23792876  0.23126514  0.76502814  1
  Te  Te129  1  0.21704964  0.61498029  0.09175151  1
  Te  Te130  1  0.26450080  0.57781208  0.42545761  1
  Te  Te131  1  0.25138971  0.58575411  0.74391149  1
  Te  Te132  1  0.29479027  0.89400939  0.11161578  1
  Te  Te133  1  0.21160421  0.94135455  0.44784445  1
  Te  Te134  1  0.26428265  0.93542659  0.73358214  1
  Te  Te135  1  0.57304882  0.24203724  0.05375131  1
  Te  Te136  1  0.58284875  0.24178241  0.38930864  1
  Te  Te137  1  0.54973585  0.23313726  0.76517996  1
  Te  Te138  1  0.59695636  0.60011636  0.12625829  1
  Te  Te139  1  0.58858657  0.60433758  0.41460170  1
  Te  Te140  1  0.57701151  0.60168920  0.77582917  1
  Te  Te141  1  0.58456292  0.90265817  0.11328730  1
  Te  Te142  1  0.60281359  0.91579997  0.39258754  1
  Te  Te143  1  0.58218028  0.94522533  0.74849053  1
  Te  Te144  1  0.92766884  0.24387191  0.07592825  1
  Te  Te145  1  0.92369894  0.28815197  0.39596907  1
  Te  Te146  1  0.92119420  0.22525416  0.76403766  1
  Te  Te147  1  0.92270092  0.58306419  0.08781305  1
  Te  Te148  1  0.94421726  0.59811611  0.40516297  1
  Te  Te149  1  0.89394207  0.56025030  0.75691477  1
  Te  Te150  1  0.93735375  0.92099127  0.07205929  1
  Te  Te151  1  0.91546350  0.90037835  0.42886590  1
  Te  Te152  1  0.91941476  0.90609715  0.74191160  1
  Te  Te153  1  0.26566798  0.06041177  0.26737360  1
  Te  Te154  1  0.25509236  0.05403960  0.54985450  1
  Te  Te155  1  0.26721599  0.11004556  0.92171258  1
  Te  Te156  1  0.24543166  0.43437714  0.25184330  1
  Te  Te157  1  0.25215860  0.40471269  0.60563935  1
  Te  Te158  1  0.21861560  0.40266994  0.90553512  1
  Te  Te159  1  0.24375354  0.76985821  0.23302238  1
  Te  Te160  1  0.27087526  0.76585014  0.57849464  1
  Te  Te161  1  0.21982537  0.77694940  0.94385826  1
  Te  Te162  1  0.55737992  0.09034791  0.28578131  1
  Te  Te163  1  0.56964778  0.09520179  0.58515604  1
  Te  Te164  1  0.55404709  0.06179406  0.92004934  1
  Te  Te165  1  0.57153739  0.41411062  0.24720798  1
  Te  Te166  1  0.59181739  0.42820465  0.58619349  1
  Te  Te167  1  0.56839469  0.43991480  0.92808325  1
  Te  Te168  1  0.58162912  0.73406651  0.20569319  1
  Te  Te169  1  0.56843693  0.77011019  0.57990447  1
  Te  Te170  1  0.58628525  0.78468519  0.94048793  1
  Te  Te171  1  0.91157703  0.08129363  0.24441091  1
  Te  Te172  1  0.90411069  0.08831477  0.58033056  1
  Te  Te173  1  0.93914437  0.06762802  0.92759860  1
  Te  Te174  1  0.90056765  0.40140476  0.29682629  1
  Te  Te175  1  0.93410816  0.39652549  0.59403183  1
  Te  Te176  1  0.90498493  0.41994918  0.93646129  1
  Te  Te177  1  0.92156424  0.76079354  0.23150194  1
  Te  Te178  1  0.93559130  0.74155475  0.57724388  1
  Te  Te179  1  0.94686442  0.74739464  0.91724746  1
