# generated using pymatgen
data_In2Te3
_symmetry_space_group_name_H-M   'P 1'
_cell_length_a   18.79403802
_cell_length_b   18.79842638
_cell_length_c   18.79776843
_cell_angle_alpha   89.95880354
_cell_angle_beta   90.02785270
_cell_angle_gamma   89.96853085
_symmetry_Int_Tables_number   1
_chemical_formula_structural   In2Te3
_chemical_formula_sum   'In72 Te108'
_cell_volume   6641.21688004
_cell_formula_units_Z   36
loop_
 _symmetry_equiv_pos_site_id
 _symmetry_equiv_pos_as_xyz
  1  'x, y, z'
loop_
 _atom_site_type_symbol
 _atom_site_label
 _atom_site_symmetry_multiplicity
 _atom_site_fract_x
 _atom_site_fract_y
 _atom_site_fract_z
 _atom_site_occupancy
  In  In0  1  0.01415943  0.34011928  -0.00872269  1
  In  In1  1  -0.00965623  0.50829323  0.16975044  1
  In  In2  1  0.33147575  0.32613288  0.30411633  1
  In  In3  1  0.83995217  -0.01899858  0.84101570  1
  In  In4  1  0.15413300  0.34307782  0.17565884  1
  In  In5  1  0.49646343  0.65305918  0.83268086  1
  In  In6  1  0.67888511  0.62955975  -0.00642791  1
  In  In7  1  0.84468175  0.32980175  0.50514950  1
  In  In8  1  0.68564403  0.35251002  0.67177557  1
  In  In9  1  0.35400768  0.64941131  0.30586171  1
  In  In10  1  0.66993360  0.64004888  0.67729658  1
  In  In11  1  0.48259582  0.67062132  0.49151087  1
  In  In12  1  0.01516627  0.83229954  0.49426637  1
  In  In13  1  0.66326959  0.16915050  0.85708706  1
  In  In14  1  0.01559359  0.15749364  0.52088296  1
  In  In15  1  0.32143783  0.32892321  0.69882637  1
  In  In16  1  0.00060086  0.65985841  0.00279040  1
  In  In17  1  0.86933971  0.52536606  0.35235772  1
  In  In18  1  0.65752186  0.68005216  0.32701696  1
  In  In19  1  0.68347359  0.84715150  0.84492155  1
  In  In20  1  0.00339965  -0.00691630  0.31802253  1
  In  In21  1  0.48535462  0.16656142  0.68403483  1
  In  In22  1  0.67162318  0.83509803  0.47057834  1
  In  In23  1  0.51729284  0.34901253  0.87373593  1
  In  In24  1  -0.00163516  0.15901407  0.14867898  1
  In  In25  1  0.31375778  0.62533307  0.03067355  1
  In  In26  1  0.33693788  0.02065060  0.00362039  1
  In  In27  1  0.81411493  0.16035076  0.32528038  1
  In  In28  1  0.49812905  0.15591117  0.31331026  1
  In  In29  1  0.33827026  0.50487424  0.50495860  1
  In  In30  1  0.65586682  0.83437360  0.17955747  1
  In  In31  1  0.19012077  0.16359761  0.33110192  1
  In  In32  1  -0.00851498  0.36686575  0.33500235  1
  In  In33  1  0.68660953  0.15507926  0.48222651  1
  In  In34  1  0.16150731  0.50450140  0.33844113  1
  In  In35  1  0.00094194  0.50851124  0.85104941  1
  In  In36  1  0.30875011  0.83635837  0.83441443  1
  In  In37  1  0.48733761  -0.02018883  0.48883700  1
  In  In38  1  0.00106645  0.83193269  0.83755949  1
  In  In39  1  0.01305014  0.66969204  0.65891415  1
  In  In40  1  0.15804441  0.84398198  0.66452180  1
  In  In41  1  0.28994489  0.15531288  0.51985745  1
  In  In42  1  0.84279087  0.66709130  0.16934591  1
  In  In43  1  0.18199849  0.32174127  0.84174620  1
  In  In44  1  0.32080951  0.66966082  0.65526956  1
  In  In45  1  0.33663203  0.15767728  0.17587026  1
  In  In46  1  0.49081029  0.34540590  0.49315369  1
  In  In47  1  0.84055221  0.81883971  0.32151960  1
  In  In48  1  0.50710938  0.83161643  0.01966431  1
  In  In49  1  0.83413545  0.83996556  0.68233537  1
  In  In50  1  0.65242231  0.17143729  0.13643917  1
  In  In51  1  0.16012871  0.51641706  0.65955964  1
  In  In52  1  0.83533352  0.17572490  -0.00250531  1
  In  In53  1  0.37500779  0.34946512  0.02360793  1
  In  In54  1  -0.01511421  -0.00215105  0.00691320  1
  In  In55  1  0.65965425  0.00062409  0.66473414  1
  In  In56  1  0.34101455  0.83847181  0.17678672  1
  In  In57  1  0.33662223  -0.01856982  0.33281296  1
  In  In58  1  0.83518142  0.84578487  -0.00038321  1
  In  In59  1  0.50470202  0.02073605  0.84069369  1
  In  In60  1  -0.01138121  0.32152524  0.67327438  1
  In  In61  1  0.66515884  0.49426914  0.14622219  1
  In  In62  1  0.33752352  0.49036473  0.84126905  1
  In  In63  1  0.15769397  0.17350259  -0.01053474  1
  In  In64  1  0.15365880  0.82147759  -0.00112862  1
  In  In65  1  0.48559166  0.84362957  0.62653052  1
  In  In66  1  0.65964536  0.34031101  0.30401944  1
  In  In67  1  0.66970285  0.51395321  0.48910495  1
  In  In68  1  0.33607076  0.83082343  0.51037255  1
  In  In69  1  0.88394312  0.15629259  0.68948007  1
  In  In70  1  0.83699073  0.48326023  0.67431716  1
  In  In71  1  0.16691025  0.82892001  0.33445674  1
  Te  Te72  1  0.09962111  0.06810352  0.08383613  1
  Te  Te73  1  0.09097317  0.08005321  0.41050769  1
  Te  Te74  1  0.13213483  0.07917613  0.73264942  1
  Te  Te75  1  0.09324687  0.44234464  0.07475381  1
  Te  Te76  1  0.10242279  0.39972217  0.42460454  1
  Te  Te77  1  0.09032263  0.41638300  0.75503992  1
  Te  Te78  1  0.07030622  0.74959343  0.09776019  1
  Te  Te79  1  0.06730563  0.73149234  0.39601666  1
  Te  Te80  1  0.09832519  0.74128048  0.76360976  1
  Te  Te81  1  0.43814359  0.09976073  0.08216503  1
  Te  Te82  1  0.40063397  0.10012871  0.41831130  1
  Te  Te83  1  0.39727035  0.07195491  0.75320475  1
  Te  Te84  1  0.44786120  0.45622223  0.09466506  1
  Te  Te85  1  0.40915601  0.42588606  0.39464313  1
  Te  Te86  1  0.43523105  0.41177854  0.75522664  1
  Te  Te87  1  0.40872597  0.73686098  0.08491324  1
  Te  Te88  1  0.41418418  0.76624877  0.39740752  1
  Te  Te89  1  0.41360847  0.75737822  0.74206671  1
  Te  Te90  1  0.76027273  0.08185334  0.08234502  1
  Te  Te91  1  0.74754196  0.04997187  0.40028572  1
  Te  Te92  1  0.74789100  0.08206422  0.75807922  1
  Te  Te93  1  0.72118435  0.39282368  0.05177106  1
  Te  Te94  1  0.75411011  0.41136132  0.41154160  1
  Te  Te95  1  0.75353919  0.42207412  0.78635184  1
  Te  Te96  1  0.74657649  0.74550068  0.07711415  1
  Te  Te97  1  0.76756080  0.72728791  0.42205417  1
  Te  Te98  1  0.75340603  0.73880038  0.76343528  1
  Te  Te99  1  0.07378552  0.24190327  0.25839385  1
  Te  Te100  1  0.09598564  0.25334507  0.59799227  1
  Te  Te101  1  0.06193914  0.23774882  0.88939373  1
  Te  Te102  1  0.07325920  0.59429532  0.25757399  1
  Te  Te103  1  0.08285454  0.58766881  0.55259499  1
  Te  Te104  1  0.10197852  0.58977241  0.92071019  1
  Te  Te105  1  0.09358951  0.91094098  0.23528536  1
  Te  Te106  1  0.07656924  0.93777782  0.58115596  1
  Te  Te107  1  0.08740960  0.93043594  0.91385559  1
  Te  Te108  1  0.44824478  0.26873183  0.21962818  1
  Te  Te109  1  0.40672621  0.25278092  0.58195873  1
  Te  Te110  1  0.40982358  0.25713894  0.91431008  1
  Te  Te111  1  0.41938057  0.56092355  0.20714317  1
  Te  Te112  1  0.43133990  0.57869998  0.60213808  1
  Te  Te113  1  0.42641718  0.56851019  0.93852532  1
  Te  Te114  1  0.43649428  0.93497517  0.23556697  1
  Te  Te115  1  0.38189345  0.95042643  0.59734577  1
  Te  Te116  1  0.41799200  0.90767451  0.91572764  1
  Te  Te117  1  0.75350227  0.25619040  0.22253742  1
  Te  Te118  1  0.75533693  0.23927209  0.59189214  1
  Te  Te119  1  0.72916170  0.27136072  0.94464041  1
  Te  Te120  1  0.75131507  0.57929346  0.25672382  1
  Te  Te121  1  0.77172794  0.58461627  0.57746558  1
  Te  Te122  1  0.73144241  0.54342426  0.88573760  1
  Te  Te123  1  0.75521669  0.91638671  0.25126720  1
  Te  Te124  1  0.74954762  0.91530053  0.57799819  1
  Te  Te125  1  0.73316782  0.94902601  0.94591405  1
  Te  Te126  1  0.24770635  0.25265395  0.09264106  1
  Te  Te127  1  0.25041229  0.27057105  0.42073214  1
  Te  Te128  1  0.23612562  0.21523598  0.74899879  1
  Te  Te129  1  0.22114383  0.55291900  0.11833928  1
  Te  Te130  1  0.25833535  0.59804437  0.41486214  1
  Te  Te131  1  0.24862264  0.58773842  0.76148239  1
  Te  Te132  1  0.25622640  0.91150963  0.07284869  1
  Te  Te133  1  0.23919539  0.92180319  0.43239512  1
  Te  Te134  1  0.22833782  0.93874254  0.75948950  1
  Te  Te135  1  0.53403095  0.24745382  0.08780883  1
  Te  Te136  1  0.58718032  0.25345525  0.41510449  1
  Te  Te137  1  0.58927774  0.25661270  0.75119165  1
  Te  Te138  1  0.57906917  0.60794134  0.09972124  1
  Te  Te139  1  0.56427816  0.57957155  0.40106154  1
  Te  Te140  1  0.58757089  0.55586805  0.76622893  1
  Te  Te141  1  0.58847882  0.93131024  0.08823095  1
  Te  Te142  1  0.57357637  0.91182286  0.39178444  1
  Te  Te143  1  0.57637311  0.90514717  0.75039948  1
  Te  Te144  1  0.91761226  0.27148700  0.08842663  1
  Te  Te145  1  0.91992033  0.23990546  0.40800097  1
  Te  Te146  1  0.88465645  0.27799106  0.77024301  1
  Te  Te147  1  0.89333105  0.56713783  0.06549175  1
  Te  Te148  1  0.97558576  0.59479549  0.42668648  1
  Te  Te149  1  0.91894074  0.58909251  0.74882116  1
  Te  Te150  1  0.92830550  0.89895343  0.10001817  1
  Te  Te151  1  0.91465325  0.91638726  0.41566068  1
  Te  Te152  1  0.94146824  0.93298888  0.73794083  1
  Te  Te153  1  0.24148605  0.05608294  0.23736334  1
  Te  Te154  1  0.18543028  0.06980135  0.59758397  1
  Te  Te155  1  0.24998152  0.09171631  0.90728407  1
  Te  Te156  1  0.26171587  0.44305599  0.22508076  1
  Te  Te157  1  0.25109313  0.41471166  0.59162043  1
  Te  Te158  1  0.25552032  0.41028426  0.94053838  1
  Te  Te159  1  0.24669783  0.73654440  0.23967092  1
  Te  Te160  1  0.22383571  0.74372150  0.56634283  1
  Te  Te161  1  0.25671815  0.73220691  0.92959600  1
  Te  Te162  1  0.61157444  0.08588009  0.25329494  1
  Te  Te163  1  0.57144085  0.08613690  0.57331094  1
  Te  Te164  1  0.56816105  0.09973824  0.94744024  1
  Te  Te165  1  0.56424180  0.43531828  0.24111603  1
  Te  Te166  1  0.58535316  0.42636892  0.58232268  1
  Te  Te167  1  0.61079178  0.43575386  0.95459669  1
  Te  Te168  1  0.55582937  0.74443932  0.24258556  1
  Te  Te169  1  0.59375500  0.74292807  0.57917973  1
  Te  Te170  1  0.59063001  0.74600099  0.91465115  1
  Te  Te171  1  0.90435344  0.07500676  0.23291673  1
  Te  Te172  1  0.90184101  0.07639077  0.56930032  1
  Te  Te173  1  0.92448686  0.09167771  0.90283010  1
  Te  Te174  1  0.88771584  0.41887878  0.23938643  1
  Te  Te175  1  0.93787736  0.42772037  0.57292003  1
  Te  Te176  1  0.90824697  0.42415829  0.92997659  1
  Te  Te177  1  0.94398739  0.73656841  0.25178209  1
  Te  Te178  1  0.91342114  0.75615865  0.58276881  1
  Te  Te179  1  0.90379336  0.74211024  0.91162112  1
