# generated using pymatgen
data_In2Te3
_symmetry_space_group_name_H-M   'P 1'
_cell_length_a   18.77426024
_cell_length_b   18.76706613
_cell_length_c   18.77161724
_cell_angle_alpha   89.85803076
_cell_angle_beta   90.02427071
_cell_angle_gamma   89.94957516
_symmetry_Int_Tables_number   1
_chemical_formula_structural   In2Te3
_chemical_formula_sum   'In72 Te108'
_cell_volume   6613.92654868
_cell_formula_units_Z   36
loop_
 _symmetry_equiv_pos_site_id
 _symmetry_equiv_pos_as_xyz
  1  'x, y, z'
loop_
 _atom_site_type_symbol
 _atom_site_label
 _atom_site_symmetry_multiplicity
 _atom_site_fract_x
 _atom_site_fract_y
 _atom_site_fract_z
 _atom_site_occupancy
  In  In0  1  0.00236122  0.49310261  0.82386101  1
  In  In1  1  0.17664347  0.00106990  0.46845160  1
  In  In2  1  0.32209244  0.32816972  0.64926070  1
  In  In3  1  0.82498870  0.83067525  0.00668523  1
  In  In4  1  0.67318680  0.15733688  0.51360315  1
  In  In5  1  0.18853690  0.69255684  0.85671156  1
  In  In6  1  0.82626615  0.32884145  0.82148121  1
  In  In7  1  0.65990888  0.33277540  -0.01837670  1
  In  In8  1  0.16492055  0.48216520  0.65975106  1
  In  In9  1  0.66743600  0.83076723  0.15253688  1
  In  In10  1  0.49985217  0.50887174  0.00649657  1
  In  In11  1  0.67557201  0.34774393  0.32703418  1
  In  In12  1  0.83908628  0.18437884  0.67022039  1
  In  In13  1  0.49277448  0.33926794  0.51321161  1
  In  In14  1  0.51608218  0.51561920  0.66477301  1
  In  In15  1  0.17174707  0.84403884  0.67667151  1
  In  In16  1  0.78568638  0.69325032  0.81936143  1
  In  In17  1  0.16594503  0.67199147  0.16335164  1
  In  In18  1  0.81551079  -0.00418900  0.15068453  1
  In  In19  1  0.00565725  0.66995091  0.02397260  1
  In  In20  1  0.35433705  0.16555702  0.48315621  1
  In  In21  1  0.00242824  0.17640788  0.16991997  1
  In  In22  1  -0.00411329  0.85427178  0.85710617  1
  In  In23  1  0.33429240  0.49159445  0.85711653  1
  In  In24  1  0.34678324  0.65394630  0.66539823  1
  In  In25  1  -0.00143812  0.64907654  0.66378235  1
  In  In26  1  0.50335049  0.67394929  0.48822590  1
  In  In27  1  0.80461609  -0.01153154  0.51179696  1
  In  In28  1  0.00647228  0.32605180  0.01329305  1
  In  In29  1  0.65367978  0.67328678  0.34182445  1
  In  In30  1  -0.00444426  0.82019439  0.51050772  1
  In  In31  1  0.63523689  0.14146154  0.85493405  1
  In  In32  1  0.35235065  0.15815957  0.83653041  1
  In  In33  1  0.50087815  0.32421254  0.16646775  1
  In  In34  1  0.15954073  0.16767830  0.00088444  1
  In  In35  1  0.62996390  0.84723838  0.48567152  1
  In  In36  1  0.33479057  0.85909493  0.85806162  1
  In  In37  1  0.16187283  0.65570391  0.48175541  1
  In  In38  1  0.85663585  0.80246022  0.29768496  1
  In  In39  1  0.49731240  -0.00879377  0.14827025  1
  In  In40  1  0.17972111  0.48870871  0.00844169  1
  In  In41  1  0.83189074  0.53792066  -0.00835484  1
  In  In42  1  0.65746756  0.51156591  0.17219763  1
  In  In43  1  0.34904282  -0.00302230  0.68389794  1
  In  In44  1  0.82235059  0.65196443  0.49836887  1
  In  In45  1  0.50443047  0.16056914  0.31842922  1
  In  In46  1  -0.01200068  0.01618348  0.68445348  1
  In  In47  1  0.15947812  0.32489865  0.14940887  1
  In  In48  1  0.84326905  0.50306651  0.32983918  1
  In  In49  1  0.01800915  0.17320535  0.48442615  1
  In  In50  1  0.81552792  0.48512232  0.66199921  1
  In  In51  1  0.82548028  0.15669561  0.35834330  1
  In  In52  1  0.64962726  -0.00160054  0.67393218  1
  In  In53  1  0.85138284  0.33652968  0.16042753  1
  In  In54  1  0.49819865  0.31908390  0.82731801  1
  In  In55  1  0.16631171  0.33134192  0.49053608  1
  In  In56  1  0.67443195  0.15395285  0.13381489  1
  In  In57  1  0.34453222  0.83563467  0.17256865  1
  In  In58  1  0.32715562  0.83525960  0.47549374  1
  In  In59  1  0.17518343  0.83074705  0.33378808  1
  In  In60  1  0.00700033  -0.03568684  0.31172425  1
  In  In61  1  0.35322054  0.51065003  0.16801750  1
  In  In62  1  0.83130026  -0.00772945  0.85936263  1
  In  In63  1  0.51404892  0.83588844  0.67265091  1
  In  In64  1  0.53153275  0.69816107  0.85412812  1
  In  In65  1  0.15999343  0.15101716  0.67774437  1
  In  In66  1  0.33555875  -0.00773607  0.01583496  1
  In  In67  1  0.34637763  0.33010118  0.33287652  1
  In  In68  1  0.84059794  0.33689198  0.50701057  1
  In  In69  1  0.01043757  0.00303697  0.01125131  1
  In  In70  1  0.48665760  0.68278242  0.15761870  1
  In  In71  1  0.15535679  0.51093374  0.33097885  1
  Te  Te72  1  0.10127341  0.07768160  0.11230604  1
  Te  Te73  1  0.08391179  0.08425229  0.37532936  1
  Te  Te74  1  0.07662487  0.08238173  0.78081072  1
  Te  Te75  1  0.06754763  0.43828421  0.09711040  1
  Te  Te76  1  0.07427046  0.41397678  0.40947233  1
  Te  Te77  1  0.09590058  0.39905821  0.76041785  1
  Te  Te78  1  0.09853450  0.77290357  0.07494866  1
  Te  Te79  1  0.06671723  0.74403534  0.40019053  1
  Te  Te80  1  0.08000717  0.74707936  0.75318642  1
  Te  Te81  1  0.40231567  0.09571923  0.10038641  1
  Te  Te82  1  0.45018848  0.06537970  0.42303672  1
  Te  Te83  1  0.44757785  0.08563834  0.74763668  1
  Te  Te84  1  0.40961330  0.40512663  0.07244843  1
  Te  Te85  1  0.42482519  0.42437197  0.41309234  1
  Te  Te86  1  0.40528339  0.42413978  0.73844377  1
  Te  Te87  1  0.41534909  0.76919812  0.05845262  1
  Te  Te88  1  0.41357181  0.74766873  0.39532689  1
  Te  Te89  1  0.40374299  0.75956357  0.75786030  1
  Te  Te90  1  0.74622902  0.06463608  0.03955240  1
  Te  Te91  1  0.71882345  0.05707664  0.40567741  1
  Te  Te92  1  0.75868768  0.07998234  0.74832160  1
  Te  Te93  1  0.74088357  0.41562275  0.08512480  1
  Te  Te94  1  0.74776989  0.43218705  0.42874458  1
  Te  Te95  1  0.72729461  0.41914747  0.76151768  1
  Te  Te96  1  0.75713582  0.73043725  0.09178297  1
  Te  Te97  1  0.75101270  0.77043833  0.41728976  1
  Te  Te98  1  0.71806221  0.78294720  0.72420215  1
  Te  Te99  1  0.08068260  0.26323238  0.25893393  1
  Te  Te100  1  0.08048440  0.25520682  0.59545707  1
  Te  Te101  1  0.07876122  0.25261795  0.90877691  1
  Te  Te102  1  0.06337263  0.60388427  0.25126817  1
  Te  Te103  1  0.07293067  0.56162840  0.56468929  1
  Te  Te104  1  0.08819339  0.58467176  0.91581511  1
  Te  Te105  1  0.10343984  0.89736709  0.21972147  1
  Te  Te106  1  0.07956948  0.92661038  0.58555570  1
  Te  Te107  1  0.10371752  0.91232778  0.93684478  1
  Te  Te108  1  0.39755090  0.22725813  0.23079226  1
  Te  Te109  1  0.42901670  0.23113074  0.60115153  1
  Te  Te110  1  0.42170234  0.24904367  0.93159670  1
  Te  Te111  1  0.43683914  0.58777168  0.26059567  1
  Te  Te112  1  0.41426682  0.57061696  0.56173543  1
  Te  Te113  1  0.42056944  0.60222691  0.91343772  1
  Te  Te114  1  0.43941041  0.91261299  0.26287427  1
  Te  Te115  1  0.41466358  0.90728414  0.57923677  1
  Te  Te116  1  0.43922792  0.95769752  0.90506142  1
  Te  Te117  1  0.75062989  0.24224873  0.24545680  1
  Te  Te118  1  0.73552523  0.26883631  0.59596740  1
  Te  Te119  1  0.74911686  0.23170843  0.91247966  1
  Te  Te120  1  0.75262380  0.60006720  0.25087278  1
  Te  Te121  1  0.72925300  0.58126725  0.58770686  1
  Te  Te122  1  0.72261150  0.59333879  0.90941734  1
  Te  Te123  1  0.75125761  0.90685406  0.25687085  1
  Te  Te124  1  0.73888088  0.88917034  0.60595824  1
  Te  Te125  1  0.73184751  0.88277068  0.89699652  1
  Te  Te126  1  0.25983280  0.24011303  0.08355665  1
  Te  Te127  1  0.24347653  0.23273906  0.39932397  1
  Te  Te128  1  0.25178214  0.24568722  0.75524278  1
  Te  Te129  1  0.26590582  0.59456735  0.07437144  1
  Te  Te130  1  0.26247541  0.58511355  0.40165236  1
  Te  Te131  1  0.23784415  0.58788389  0.75201269  1
  Te  Te132  1  0.24636991  0.93775680  0.12434968  1
  Te  Te133  1  0.28274082  0.94919167  0.36818018  1
  Te  Te134  1  0.23607778  0.94166466  0.77139902  1
  Te  Te135  1  0.56915863  0.23731958  0.06065630  1
  Te  Te136  1  0.58922976  0.25143241  0.41177818  1
  Te  Te137  1  0.59694176  0.23978249  0.75179983  1
  Te  Te138  1  0.59295477  0.60880715  0.07415596  1
  Te  Te139  1  0.59469890  0.57120017  0.42975834  1
  Te  Te140  1  0.59193964  0.60171457  0.75941086  1
  Te  Te141  1  0.59127093  0.91752810  0.05331957  1
  Te  Te142  1  0.53571309  0.92682266  0.40515219  1
  Te  Te143  1  0.57742772  0.91820148  0.77864680  1
  Te  Te144  1  0.90118537  0.22627273  0.06773837  1
  Te  Te145  1  0.92482263  0.26370323  0.40180472  1
  Te  Te146  1  0.93584277  0.25368923  0.75594668  1
  Te  Te147  1  0.90988625  0.58998780  0.10753302  1
  Te  Te148  1  0.92747255  0.58644542  0.41968164  1
  Te  Te149  1  0.89813123  0.58878142  0.76307980  1
  Te  Te150  1  0.92434932  0.90563076  0.09501875  1
  Te  Te151  1  0.91122516  0.91485706  0.42135148  1
  Te  Te152  1  0.90459623  0.90704535  0.74725000  1
  Te  Te153  1  0.23861008  0.08145925  0.31336678  1
  Te  Te154  1  0.25729862  0.08094480  0.57892185  1
  Te  Te155  1  0.25167928  0.07663042  0.91813127  1
  Te  Te156  1  0.25361858  0.41796053  0.24213128  1
  Te  Te157  1  0.26323346  0.43172522  0.55390768  1
  Te  Te158  1  0.24140211  0.39339715  0.91487858  1
  Te  Te159  1  0.26705421  0.73294429  0.26042330  1
  Te  Te160  1  0.24513687  0.74892358  0.58190114  1
  Te  Te161  1  0.26890788  0.76826021  0.95671425  1
  Te  Te162  1  0.59793306  0.07162043  0.23609957  1
  Te  Te163  1  0.56738663  0.07795399  0.57932179  1
  Te  Te164  1  0.56061787  0.05024183  0.94379933  1
  Te  Te165  1  0.56369063  0.42794571  0.25940893  1
  Te  Te166  1  0.59361040  0.41253816  0.59238917  1
  Te  Te167  1  0.57722023  0.43122277  0.90026383  1
  Te  Te168  1  0.57235591  0.76784769  0.25423859  1
  Te  Te169  1  0.59690860  0.73659671  0.59151369  1
  Te  Te170  1  0.60768498  0.79300962  0.93890653  1
  Te  Te171  1  0.90492855  0.07705031  0.25378669  1
  Te  Te172  1  0.91108399  0.08907897  0.56175953  1
  Te  Te173  1  0.93423872  0.08372687  0.91185333  1
  Te  Te174  1  0.93445294  0.41265724  0.25366908  1
  Te  Te175  1  0.92731828  0.41261247  0.59864307  1
  Te  Te176  1  0.90786398  0.42036054  0.93067282  1
  Te  Te177  1  0.94997020  0.71549657  0.22425015  1
  Te  Te178  1  0.90029434  0.74729673  0.60090505  1
  Te  Te179  1  0.91380730  0.73696356  0.91203811  1
