# generated using pymatgen
data_In2Te3
_symmetry_space_group_name_H-M   'P 1'
_cell_length_a   18.92575150
_cell_length_b   18.90693966
_cell_length_c   18.90759202
_cell_angle_alpha   90.08141989
_cell_angle_beta   89.82678117
_cell_angle_gamma   90.03122109
_symmetry_Int_Tables_number   1
_chemical_formula_structural   In2Te3
_chemical_formula_sum   'In72 Te108'
_cell_volume   6765.62788613
_cell_formula_units_Z   36
loop_
 _symmetry_equiv_pos_site_id
 _symmetry_equiv_pos_as_xyz
  1  'x, y, z'
loop_
 _atom_site_type_symbol
 _atom_site_label
 _atom_site_symmetry_multiplicity
 _atom_site_fract_x
 _atom_site_fract_y
 _atom_site_fract_z
 _atom_site_occupancy
  In  In0  1  0.84736220  -0.00556920  0.15595050  1
  In  In1  1  0.15752992  0.01525365  0.15801449  1
  In  In2  1  0.49390944  0.48024125  0.65885893  1
  In  In3  1  0.13905097  0.17503010  0.01180431  1
  In  In4  1  0.67170790  0.00124033  0.00146773  1
  In  In5  1  0.48967339  -0.00102890  0.50576517  1
  In  In6  1  0.50666568  0.33549703  0.19232002  1
  In  In7  1  0.51648875  0.64586444  0.52035272  1
  In  In8  1  -0.00250887  0.15738456  0.50427786  1
  In  In9  1  0.17729093  0.68875346  0.51485066  1
  In  In10  1  0.33121786  0.66661098  0.32377883  1
  In  In11  1  0.31380427  0.17073750  0.82684826  1
  In  In12  1  0.31104775  0.33162565  0.43099624  1
  In  In13  1  0.16096091  0.50527532  0.00973433  1
  In  In14  1  -0.01549355  0.81451267  0.86648925  1
  In  In15  1  -0.00035929  0.66702117  0.31322777  1
  In  In16  1  0.01381923  0.17280518  0.83046693  1
  In  In17  1  0.69507992  0.80728415  0.13126529  1
  In  In18  1  0.83337891  -0.02038550  0.51858862  1
  In  In19  1  0.53407550  0.31056419  0.81036748  1
  In  In20  1  0.00205612  0.50190501  0.84298368  1
  In  In21  1  0.16591548  0.49504885  0.35623018  1
  In  In22  1  0.50623755  0.18236764  0.00236528  1
  In  In23  1  0.00973478  0.01905643  0.68425130  1
  In  In24  1  0.18605428  0.49949074  0.64526982  1
  In  In25  1  0.00193710  0.64990456  0.68170707  1
  In  In26  1  0.66737982  0.49333984  0.84806526  1
  In  In27  1  0.65641034  0.01320844  0.33337783  1
  In  In28  1  0.35495886  0.16193375  0.16599603  1
  In  In29  1  0.17672461  0.01293993  0.51206897  1
  In  In30  1  0.85798154  0.48801566  0.68399682  1
  In  In31  1  -0.01243659  0.48803501  0.15370424  1
  In  In32  1  0.84252165  0.49579702  0.30654098  1
  In  In33  1  0.80863616  0.03101479  0.81220490  1
  In  In34  1  0.18627683  0.67752008  0.17504096  1
  In  In35  1  0.02096486  0.33151446  0.33439875  1
  In  In36  1  0.50051849  0.51097629  -0.02697777  1
  In  In37  1  -0.02183068  0.00363611  0.31096589  1
  In  In38  1  0.01240568  0.79310023  0.49508004  1
  In  In39  1  0.50729908  0.67547286  0.16072667  1
  In  In40  1  -0.00036444  0.31978639  0.66369458  1
  In  In41  1  0.31592159  0.36291188  -0.01136042  1
  In  In42  1  0.82560660  0.50052233  0.01245384  1
  In  In43  1  0.33417068  -0.00135967  -0.01335588  1
  In  In44  1  0.15959897  0.33845931  0.17174692  1
  In  In45  1  0.66751996  0.66837477  0.67163090  1
  In  In46  1  0.50497008  0.16925769  0.33322141  1
  In  In47  1  0.81517365  0.81702909  0.34341563  1
  In  In48  1  0.51150223  -0.00173695  0.82863726  1
  In  In49  1  0.33313325  0.51269624  0.16334278  1
  In  In50  1  0.49464212  0.82989293  0.31698987  1
  In  In51  1  0.32740417  0.00942902  0.67359134  1
  In  In52  1  0.65516041  0.83585386  0.85676252  1
  In  In53  1  0.82965418  0.64215043  0.46742702  1
  In  In54  1  0.82653310  0.32462121  0.50568890  1
  In  In55  1  0.46633682  0.68279082  0.81633662  1
  In  In56  1  0.49098062  0.83110888  0.00778565  1
  In  In57  1  0.32967871  0.84161340  0.51651888  1
  In  In58  1  0.79231683  0.19737555  0.29699176  1
  In  In59  1  -0.00883582  0.83744325  0.15537602  1
  In  In60  1  0.16296223  0.83582494  -0.01857011  1
  In  In61  1  0.84831926  0.19461832  0.01420806  1
  In  In62  1  0.67084732  0.16005947  0.50492067  1
  In  In63  1  0.82131877  0.83735957  0.67205106  1
  In  In64  1  0.49440436  0.31349176  0.49636837  1
  In  In65  1  0.18080640  0.85521870  0.65879455  1
  In  In66  1  0.67269377  0.49692404  0.17804432  1
  In  In67  1  0.80545395  0.32134622  0.83718559  1
  In  In68  1  0.33878077  -0.00449326  0.33353257  1
  In  In69  1  0.33432411  0.31739519  0.66831021  1
  In  In70  1  0.17194761  0.66607210  0.81925232  1
  In  In71  1  0.66201159  0.49350684  0.49243709  1
  Te  Te72  1  0.05081198  0.08266228  0.08373244  1
  Te  Te73  1  0.07535845  0.06795164  0.40915029  1
  Te  Te74  1  0.11081382  0.11214444  0.73459814  1
  Te  Te75  1  0.06830350  0.39423272  0.06363115  1
  Te  Te76  1  0.09697093  0.39747150  0.44217751  1
  Te  Te77  1  0.07875628  0.43002403  0.73394353  1
  Te  Te78  1  0.08881027  0.74614909  0.08267018  1
  Te  Te79  1  0.10761851  0.74339464  0.38735137  1
  Te  Te80  1  0.07506544  0.76858216  0.74024736  1
  Te  Te81  1  0.43458201  0.06897226  0.07555589  1
  Te  Te82  1  0.40746013  0.09610366  0.42466247  1
  Te  Te83  1  0.42495623  0.09767824  0.75206505  1
  Te  Te84  1  0.42500225  0.41811272  0.08350531  1
  Te  Te85  1  0.42544588  0.42221883  0.42439765  1
  Te  Te86  1  0.42259087  0.40209457  0.76710150  1
  Te  Te87  1  0.40063021  0.75370433  0.09573598  1
  Te  Te88  1  0.41261788  0.75293375  0.42506761  1
  Te  Te89  1  0.40133289  0.76580987  0.71564883  1
  Te  Te90  1  0.75421721  0.09209337  0.08854896  1
  Te  Te91  1  0.76919252  0.07716425  0.41359928  1
  Te  Te92  1  0.70826736  0.09262729  0.72333269  1
  Te  Te93  1  0.74829988  0.39720141  0.09251457  1
  Te  Te94  1  0.75734252  0.41327423  0.40369031  1
  Te  Te95  1  0.73763536  0.41495976  0.73812935  1
  Te  Te96  1  0.76578385  0.73610904  0.02401121  1
  Te  Te97  1  0.73715452  0.75362226  0.45009237  1
  Te  Te98  1  0.75178383  0.74613151  0.77093075  1
  Te  Te99  1  0.10524340  0.23607523  0.26080382  1
  Te  Te100  1  0.09280934  0.25489620  0.56515254  1
  Te  Te101  1  0.08445840  0.27065514  0.91521105  1
  Te  Te102  1  0.09560093  0.56359557  0.23403143  1
  Te  Te103  1  0.08145414  0.58438791  0.57107731  1
  Te  Te104  1  0.07977820  0.60230791  0.92348249  1
  Te  Te105  1  0.08363902  0.91381796  0.24814749  1
  Te  Te106  1  0.06481281  0.91632004  0.57323054  1
  Te  Te107  1  0.07207751  0.92440922  0.90630781  1
  Te  Te108  1  0.39794001  0.26142058  0.27286126  1
  Te  Te109  1  0.43721342  0.23293401  0.60531882  1
  Te  Te110  1  0.40536046  0.25689952  0.91754677  1
  Te  Te111  1  0.43397481  0.57878005  0.25493244  1
  Te  Te112  1  0.40805626  0.56980677  0.58216038  1
  Te  Te113  1  0.39685928  0.58890813  0.90670274  1
  Te  Te114  1  0.42884296  0.93236413  0.23674919  1
  Te  Te115  1  0.42578132  0.90824779  0.61355341  1
  Te  Te116  1  0.41430811  0.90427460  0.89871056  1
  Te  Te117  1  0.72316619  0.28727765  0.20240145  1
  Te  Te118  1  0.74740764  0.24468683  0.60262965  1
  Te  Te119  1  0.73335295  0.23468796  0.93067296  1
  Te  Te120  1  0.75818365  0.59779652  0.24559759  1
  Te  Te121  1  0.76346767  0.57015948  0.58895551  1
  Te  Te122  1  0.73713329  0.59242075  0.93336188  1
  Te  Te123  1  0.75116327  0.91928732  0.24886467  1
  Te  Te124  1  0.72491835  0.91624611  0.59405273  1
  Te  Te125  1  0.76604852  0.92202079  0.91489221  1
  Te  Te126  1  0.26268437  0.25222111  0.08291842  1
  Te  Te127  1  0.23049919  0.21564134  0.46850952  1
  Te  Te128  1  0.22501304  0.26047138  0.75166714  1
  Te  Te129  1  0.26387139  0.60320090  0.06528205  1
  Te  Te130  1  0.25868743  0.58785516  0.43133256  1
  Te  Te131  1  0.25993309  0.56771456  0.75202712  1
  Te  Te132  1  0.24801965  0.91986018  0.08273064  1
  Te  Te133  1  0.24076014  0.91206003  0.41721983  1
  Te  Te134  1  0.23424650  0.94034902  0.76385553  1
  Te  Te135  1  0.58950458  0.23789246  0.11395885  1
  Te  Te136  1  0.60560703  0.25466121  0.40605814  1
  Te  Te137  1  0.63286705  0.22844403  0.73701429  1
  Te  Te138  1  0.58782645  0.57827637  0.07652850  1
  Te  Te139  1  0.60287094  0.59910539  0.41088403  1
  Te  Te140  1  0.57703885  0.57477417  0.75349319  1
  Te  Te141  1  0.59083857  0.90920535  0.09170363  1
  Te  Te142  1  0.57822175  0.91351877  0.41638474  1
  Te  Te143  1  0.60169128  0.91571388  0.74588578  1
  Te  Te144  1  0.92299225  0.28695480  0.10012485  1
  Te  Te145  1  0.91058599  0.24110083  0.40919004  1
  Te  Te146  1  0.90328160  0.24199570  0.74903616  1
  Te  Te147  1  0.92338329  0.59511398  0.07478222  1
  Te  Te148  1  0.94162266  0.56126603  0.40507630  1
  Te  Te149  1  0.89949821  0.59753073  0.78059675  1
  Te  Te150  1  0.92544121  0.92159631  0.05458366  1
  Te  Te151  1  0.92590448  0.89634807  0.41433293  1
  Te  Te152  1  0.91501910  0.92318514  0.75737452  1
  Te  Te153  1  0.25133763  0.09131747  0.25230227  1
  Te  Te154  1  0.26347206  0.11170013  0.58220347  1
  Te  Te155  1  0.23100346  0.08730167  0.92345953  1
  Te  Te156  1  0.25603102  0.42058913  0.25645994  1
  Te  Te157  1  0.27597681  0.40855917  0.56215423  1
  Te  Te158  1  0.22686396  0.43369758  0.89818140  1
  Te  Te159  1  0.27996773  0.77314247  0.23616911  1
  Te  Te160  1  0.27742211  0.73503618  0.62329738  1
  Te  Te161  1  0.25454843  0.76319922  0.89168066  1
  Te  Te162  1  0.57787414  0.08736411  0.23484460  1
  Te  Te163  1  0.58376582  0.07612935  0.59098432  1
  Te  Te164  1  0.59376797  0.09558996  0.91220947  1
  Te  Te165  1  0.58117700  0.43109862  0.27378544  1
  Te  Te166  1  0.59277485  0.39488522  0.58342789  1
  Te  Te167  1  0.58717479  0.39198760  0.92822300  1
  Te  Te168  1  0.60615372  0.75297388  0.24577138  1
  Te  Te169  1  0.57175797  0.75442211  0.60291531  1
  Te  Te170  1  0.56641119  0.73156354  0.92176992  1
  Te  Te171  1  0.90577790  0.11225519  0.23558380  1
  Te  Te172  1  0.90234246  0.08738856  0.60071101  1
  Te  Te173  1  0.90724166  0.09670783  0.90761305  1
  Te  Te174  1  0.91287878  0.37634531  0.22837289  1
  Te  Te175  1  0.92810464  0.41772049  0.56998538  1
  Te  Te176  1  0.90274653  0.41225408  0.91334737  1
  Te  Te177  1  0.89715451  0.74521954  0.23610647  1
  Te  Te178  1  0.90842804  0.73196406  0.58716377  1
  Te  Te179  1  0.91065664  0.73354924  0.96503914  1
