# generated using pymatgen
data_In2Te3
_symmetry_space_group_name_H-M   'P 1'
_cell_length_a   18.74123243
_cell_length_b   18.74902669
_cell_length_c   18.74321345
_cell_angle_alpha   90.05781339
_cell_angle_beta   89.98393322
_cell_angle_gamma   90.00753020
_symmetry_Int_Tables_number   1
_chemical_formula_structural   In2Te3
_chemical_formula_sum   'In72 Te108'
_cell_volume   6585.98418309
_cell_formula_units_Z   36
loop_
 _symmetry_equiv_pos_site_id
 _symmetry_equiv_pos_as_xyz
  1  'x, y, z'
loop_
 _atom_site_type_symbol
 _atom_site_label
 _atom_site_symmetry_multiplicity
 _atom_site_fract_x
 _atom_site_fract_y
 _atom_site_fract_z
 _atom_site_occupancy
  In  In0  1  0.51005376  0.65796908  0.16064914  1
  In  In1  1  0.51785541  0.82852512  0.68829506  1
  In  In2  1  0.67409356  0.84150123  0.84622371  1
  In  In3  1  0.18276457  0.68276316  0.15754495  1
  In  In4  1  0.83145058  0.82484040  0.33397730  1
  In  In5  1  0.51324950  0.19185336  0.69990338  1
  In  In6  1  -0.00986682  0.16261570  0.83224163  1
  In  In7  1  0.83278872  0.31439846  0.14287851  1
  In  In8  1  0.16664078  0.32738351  0.16058936  1
  In  In9  1  0.13631294  0.16062642  0.67965593  1
  In  In10  1  0.68143909  0.32378638  0.67798084  1
  In  In11  1  0.85343495  0.80971366  -0.02502549  1
  In  In12  1  0.16568503  -0.01981589  0.51116759  1
  In  In13  1  0.34740061  0.47993788  0.49701880  1
  In  In14  1  0.16130939  0.84967531  0.00307467  1
  In  In15  1  0.14793732  0.67368955  0.48699149  1
  In  In16  1  0.51316556  0.50555263  0.67490887  1
  In  In17  1  -0.01972077  0.00521679  0.31827136  1
  In  In18  1  0.34191196  0.65600066  0.00684725  1
  In  In19  1  0.15902568  0.52201408  0.00021371  1
  In  In20  1  0.67277722  0.48664072  0.16993577  1
  In  In21  1  0.80427545  0.03433935  0.14232851  1
  In  In22  1  -0.01452770  0.31113583  0.67136382  1
  In  In23  1  0.67566769  0.50260278  0.49081792  1
  In  In24  1  0.18026945  0.48894089  0.65259653  1
  In  In25  1  0.49856446  0.17983056  0.31261697  1
  In  In26  1  0.35622247  0.49585713  0.84127697  1
  In  In27  1  0.83353323  0.49261306  0.00573871  1
  In  In28  1  0.33876429  0.01402070  0.69274703  1
  In  In29  1  0.80828465  0.02051581  0.84082109  1
  In  In30  1  0.33468087  0.15304969  0.85433398  1
  In  In31  1  0.16578575  0.30099679  0.83323214  1
  In  In32  1  0.85512480  0.83844802  0.68368873  1
  In  In33  1  0.51658673  0.14925196  0.00065016  1
  In  In34  1  0.81616379  0.17926001  0.32696452  1
  In  In35  1  0.16960135  0.48194381  0.32437672  1
  In  In36  1  0.15413589  0.18372546  0.32323545  1
  In  In37  1  0.82259396  0.34426657  0.49623086  1
  In  In38  1  0.34223493  0.36566158  0.66829400  1
  In  In39  1  0.52087417  0.01130435  0.52829678  1
  In  In40  1  0.49557193  0.32618454  0.47622294  1
  In  In41  1  0.33428942  0.66413054  0.30522117  1
  In  In42  1  0.00275386  0.83499827  0.16884022  1
  In  In43  1  0.34483473  0.81914938  0.49220430  1
  In  In44  1  0.35769280  0.68454569  0.67661140  1
  In  In45  1  -0.02227151  0.49195088  0.16540798  1
  In  In46  1  -0.02228190  0.15731048  0.50789445  1
  In  In47  1  -0.00633558  0.64992408  0.34927437  1
  In  In48  1  0.67508417  0.66621234  0.66788609  1
  In  In49  1  0.66226459  0.48349036  0.84330460  1
  In  In50  1  0.16686118  0.85427031  0.68259924  1
  In  In51  1  0.66490427  0.63654442  0.32129814  1
  In  In52  1  -0.02843749  0.47752900  0.83826524  1
  In  In53  1  0.65107600  0.18139428  0.51044226  1
  In  In54  1  -0.01715191  0.66419693  0.68936993  1
  In  In55  1  0.50072218  0.33999813  0.16443412  1
  In  In56  1  0.67194184  0.67004629  0.00448183  1
  In  In57  1  0.47201443  0.84561126  0.31590362  1
  In  In58  1  -0.00844902  0.48551860  0.47908099  1
  In  In59  1  0.67443058  0.83223847  0.49967199  1
  In  In60  1  0.15251906  0.66904273  0.83496349  1
  In  In61  1  0.16398514  0.15117946  -0.01429522  1
  In  In62  1  0.65811915  0.84640919  0.13849504  1
  In  In63  1  0.18294249  0.00944765  0.15106524  1
  In  In64  1  0.02439422  0.81730622  0.52006638  1
  In  In65  1  0.64983662  0.02670266  0.31537409  1
  In  In66  1  -0.00004036  0.01137745  -0.00042699  1
  In  In67  1  0.32284714  0.17792868  0.47610560  1
  In  In68  1  0.34117698  0.34422567  0.01377324  1
  In  In69  1  0.47405723  0.86337648  -0.01148547  1
  In  In70  1  0.33969767  -0.00405087  0.31747088  1
  In  In71  1  0.83685938  0.00188132  0.53250258  1
  Te  Te72  1  0.07298152  0.10138005  0.09950638  1
  Te  Te73  1  0.08348375  0.07353473  0.41986804  1
  Te  Te74  1  0.10208987  0.07110972  0.79123067  1
  Te  Te75  1  0.07502011  0.41772749  0.07251440  1
  Te  Te76  1  0.07974612  0.39563205  0.40370387  1
  Te  Te77  1  0.08996677  0.41253104  0.75095326  1
  Te  Te78  1  0.07303551  0.74246158  0.06971994  1
  Te  Te79  1  0.08597621  0.76977127  0.38829965  1
  Te  Te80  1  0.06287359  0.77221248  0.76425082  1
  Te  Te81  1  0.43987524  0.06794050  0.10094455  1
  Te  Te82  1  0.43021698  0.08037395  0.42000611  1
  Te  Te83  1  0.44908437  0.07666017  0.77900082  1
  Te  Te84  1  0.43624363  0.44006142  0.07156440  1
  Te  Te85  1  0.42134794  0.41677761  0.38593464  1
  Te  Te86  1  0.45613514  0.39389294  0.77367043  1
  Te  Te87  1  0.41848516  0.75766262  0.09147472  1
  Te  Te88  1  0.43479221  0.73116883  0.41003089  1
  Te  Te89  1  0.42229898  0.76341444  0.78167691  1
  Te  Te90  1  0.71405252  0.13397719  0.07197782  1
  Te  Te91  1  0.74860716  0.07534057  0.42886132  1
  Te  Te92  1  0.71006511  0.09250158  0.75520185  1
  Te  Te93  1  0.72710792  0.39729372  0.05824959  1
  Te  Te94  1  0.74617749  0.41556392  0.39216266  1
  Te  Te95  1  0.76493505  0.41906772  0.75627738  1
  Te  Te96  1  0.76813511  0.75109477  0.09066757  1
  Te  Te97  1  0.75081658  0.72879019  0.41953349  1
  Te  Te98  1  0.76351013  0.74706124  0.76482255  1
  Te  Te99  1  0.05970281  0.25796571  0.23758893  1
  Te  Te100  1  0.08527704  0.25070539  0.56941683  1
  Te  Te101  1  0.06566864  0.25887561  0.93578554  1
  Te  Te102  1  0.09083680  0.58891808  0.24420091  1
  Te  Te103  1  0.07702555  0.58321764  0.58946815  1
  Te  Te104  1  0.04599921  0.59088468  0.91706246  1
  Te  Te105  1  0.09345736  0.92811087  0.24849362  1
  Te  Te106  1  0.05867148  0.93682508  0.61066739  1
  Te  Te107  1  0.07934241  0.92840975  0.90582266  1
  Te  Te108  1  0.39833631  0.25732667  0.23713411  1
  Te  Te109  1  0.42164580  0.23971919  0.58407016  1
  Te  Te110  1  0.42619251  0.25221301  0.92440523  1
  Te  Te111  1  0.43302930  0.56935081  0.25111121  1
  Te  Te112  1  0.42336756  0.58610886  0.58034924  1
  Te  Te113  1  0.44039481  0.58789249  0.91881600  1
  Te  Te114  1  0.43366882  0.94514857  0.20929016  1
  Te  Te115  1  0.41156954  0.91608093  0.58991883  1
  Te  Te116  1  0.38975184  0.93806284  0.89121263  1
  Te  Te117  1  0.72914831  0.23832627  0.22340584  1
  Te  Te118  1  0.77046177  0.23420633  0.58889593  1
  Te  Te119  1  0.71738827  0.20825181  0.93454444  1
  Te  Te120  1  0.76931929  0.58102843  0.23306246  1
  Te  Te121  1  0.75876536  0.56977919  0.59339010  1
  Te  Te122  1  0.75723022  0.58709725  0.91045301  1
  Te  Te123  1  0.75333408  0.92658614  0.24885099  1
  Te  Te124  1  0.74038837  0.91272702  0.61080176  1
  Te  Te125  1  0.75409065  0.92420457  0.94704305  1
  Te  Te126  1  0.25845955  0.23358855  0.07649873  1
  Te  Te127  1  0.25676551  0.27298047  0.38575381  1
  Te  Te128  1  0.27006590  0.24238975  0.73827637  1
  Te  Te129  1  0.26447576  0.56409463  0.10204876  1
  Te  Te130  1  0.25203390  0.58366667  0.42233174  1
  Te  Te131  1  0.25585550  0.58212774  0.74962686  1
  Te  Te132  1  0.27272714  0.92234932  0.07138742  1
  Te  Te133  1  0.25139438  0.90624326  0.40821837  1
  Te  Te134  1  0.27027749  0.90920703  0.77677932  1
  Te  Te135  1  0.59478696  0.25505852  0.07844834  1
  Te  Te136  1  0.60571418  0.26050116  0.39035946  1
  Te  Te137  1  0.61845017  0.24906659  0.79637197  1
  Te  Te138  1  0.58378132  0.56257187  0.06611682  1
  Te  Te139  1  0.56973731  0.57176974  0.41400168  1
  Te  Te140  1  0.58106541  0.60055257  0.76985762  1
  Te  Te141  1  0.58231708  0.94288784  0.05571466  1
  Te  Te142  1  0.57932650  0.91725436  0.41128154  1
  Te  Te143  1  0.58947920  0.93251270  0.76466240  1
  Te  Te144  1  0.90480022  0.24812510  0.02974485  1
  Te  Te145  1  0.91828612  0.25700482  0.40980079  1
  Te  Te146  1  0.89080775  0.25246714  0.76817788  1
  Te  Te147  1  0.91231973  0.59374204  0.08093856  1
  Te  Te148  1  0.88906583  0.56751758  0.41207474  1
  Te  Te149  1  0.88974271  0.56586567  0.74987911  1
  Te  Te150  1  0.90753000  0.92383988  0.08870198  1
  Te  Te151  1  0.91831983  0.91402511  0.42713021  1
  Te  Te152  1  0.91329136  0.93436048  0.78020716  1
  Te  Te153  1  0.26143438  0.10284760  0.24379628  1
  Te  Te154  1  0.25189883  0.08396712  0.58414595  1
  Te  Te155  1  0.26911761  0.04941005  0.94174876  1
  Te  Te156  1  0.26305953  0.41741039  0.22997369  1
  Te  Te157  1  0.23970402  0.38725718  0.55627450  1
  Te  Te158  1  0.23950191  0.41822281  0.90850839  1
  Te  Te159  1  0.26392651  0.77557565  0.23932627  1
  Te  Te160  1  0.23858972  0.75048468  0.59149452  1
  Te  Te161  1  0.24840576  0.74590986  0.92382678  1
  Te  Te162  1  0.56247974  0.08705784  0.20976294  1
  Te  Te163  1  0.61138067  0.08594546  0.62631344  1
  Te  Te164  1  0.62555289  0.09468435  0.90387905  1
  Te  Te165  1  0.58085257  0.41823826  0.26500151  1
  Te  Te166  1  0.58043952  0.39883850  0.58579200  1
  Te  Te167  1  0.55809940  0.39031322  0.89165760  1
  Te  Te168  1  0.59210094  0.76432397  0.25060970  1
  Te  Te169  1  0.57662931  0.74246322  0.57648352  1
  Te  Te170  1  0.57524513  0.75887171  0.92853383  1
  Te  Te171  1  0.91126655  0.10674413  0.22825064  1
  Te  Te172  1  0.91811675  0.08633612  0.62325124  1
  Te  Te173  1  0.89423584  0.11119223  0.94711620  1
  Te  Te174  1  0.89576456  0.40109595  0.24741990  1
  Te  Te175  1  0.91302526  0.42112746  0.59399022  1
  Te  Te176  1  0.90021578  0.37952268  0.92771867  1
  Te  Te177  1  0.91590000  0.73502804  0.24486184  1
  Te  Te178  1  0.90846643  0.73823029  0.57511226  1
  Te  Te179  1  0.95146806  0.72738022  0.90508095  1
