# generated using pymatgen
data_In2Te3
_symmetry_space_group_name_H-M   'P 1'
_cell_length_a   18.91805760
_cell_length_b   18.93341748
_cell_length_c   18.91505125
_cell_angle_alpha   89.95782009
_cell_angle_beta   89.90983208
_cell_angle_gamma   90.14817537
_symmetry_Int_Tables_number   1
_chemical_formula_structural   In2Te3
_chemical_formula_sum   'In72 Te108'
_cell_volume   6775.02602676
_cell_formula_units_Z   36
loop_
 _symmetry_equiv_pos_site_id
 _symmetry_equiv_pos_as_xyz
  1  'x, y, z'
loop_
 _atom_site_type_symbol
 _atom_site_label
 _atom_site_symmetry_multiplicity
 _atom_site_fract_x
 _atom_site_fract_y
 _atom_site_fract_z
 _atom_site_occupancy
  In  In0  1  0.17146075  0.50984175  0.67426830  1
  In  In1  1  0.83408561  0.02061771  0.83746218  1
  In  In2  1  0.65131593  0.67383906  0.65359098  1
  In  In3  1  -0.00459253  0.32125540  0.00826410  1
  In  In4  1  0.31154466  0.51944230  0.47169265  1
  In  In5  1  -0.00537572  -0.02685638  0.02929137  1
  In  In6  1  0.01154679  0.00266331  0.68186673  1
  In  In7  1  0.18846487  0.02923684  0.51864766  1
  In  In8  1  0.68297649  0.46855313  0.14032847  1
  In  In9  1  0.02211812  0.16488707  0.83091499  1
  In  In10  1  0.46506414  0.00242887  0.50067901  1
  In  In11  1  -0.00672630  0.66382581  0.04726476  1
  In  In12  1  0.82979036  0.63658995  0.85614853  1
  In  In13  1  0.16439163  0.85308440  0.29476313  1
  In  In14  1  0.49281926  0.85223015  0.02284204  1
  In  In15  1  0.16253668  0.18455919  0.35514103  1
  In  In16  1  -0.01124889  0.48495625  0.84588434  1
  In  In17  1  -0.00694323  0.52220077  0.16234081  1
  In  In18  1  0.51759244  0.35119745  0.87051821  1
  In  In19  1  0.00585318  0.35544406  0.33733688  1
  In  In20  1  -0.00116870  0.17616480  0.49911793  1
  In  In21  1  0.63924728  0.17067592  0.16798219  1
  In  In22  1  0.49501048  0.64429256  0.83475414  1
  In  In23  1  0.64715931  0.81763716  0.81442816  1
  In  In24  1  0.33093563  0.64526005  -0.01465826  1
  In  In25  1  0.84399262  0.83377225  0.65310056  1
  In  In26  1  0.85772662  -0.01604875  0.48344700  1
  In  In27  1  0.82666170  0.02488798  0.16801205  1
  In  In28  1  0.33757832  0.19075935  0.83819910  1
  In  In29  1  0.83019182  0.17413773  0.69901574  1
  In  In30  1  0.03911000  0.50375716  0.49575895  1
  In  In31  1  0.18200414  0.88324277  0.03392932  1
  In  In32  1  0.02929927  0.82250969  0.87463150  1
  In  In33  1  0.48074859  0.66881893  0.47399808  1
  In  In34  1  0.32940589  0.82635903  0.82506135  1
  In  In35  1  0.65435409  0.18503991  0.50982175  1
  In  In36  1  -0.00919145  0.82641103  0.47223428  1
  In  In37  1  -0.00134696  0.32851046  0.67551281  1
  In  In38  1  0.18339660  0.48148873  -0.02481713  1
  In  In39  1  0.49983568  0.51075307  0.32823679  1
  In  In40  1  0.17917111  0.34463622  0.18924322  1
  In  In41  1  0.50414015  0.47651353  0.65198405  1
  In  In42  1  0.66223187  0.64719226  0.00577568  1
  In  In43  1  0.47651408  0.35076237  0.14121972  1
  In  In44  1  0.82918050  0.19066093  0.00594858  1
  In  In45  1  0.18158299  0.83228528  0.64412843  1
  In  In46  1  0.33067618  0.15961158  0.16819019  1
  In  In47  1  0.34850487  0.32280416  0.65602166  1
  In  In48  1  0.00827305  0.68191706  0.30304472  1
  In  In49  1  0.67918260  0.32252271  0.33897455  1
  In  In50  1  0.67020306  0.66527089  0.32706248  1
  In  In51  1  0.16912275  0.14619584  0.00086355  1
  In  In52  1  0.82967232  0.17248212  0.32840789  1
  In  In53  1  0.34101414  0.82669376  0.48408701  1
  In  In54  1  0.17300920  0.67250480  0.18920097  1
  In  In55  1  0.65101635  0.00477471  0.33373786  1
  In  In56  1  0.84395535  0.49733600  0.67702781  1
  In  In57  1  0.82575688  0.48372796  0.32808742  1
  In  In58  1  0.84341965  0.86379189  0.02372396  1
  In  In59  1  0.63778193  -0.01832377  -0.01676066  1
  In  In60  1  0.66258120  0.83623755  0.47418169  1
  In  In61  1  0.32360593  0.67067335  0.67683349  1
  In  In62  1  0.67091239  0.34142014  0.67450656  1
  In  In63  1  0.67388929  0.16749035  0.84555958  1
  In  In64  1  0.49595078  0.16361609  0.65698024  1
  In  In65  1  0.66198906  0.84202868  0.14664820  1
  In  In66  1  0.34099460  0.00935288  0.33063574  1
  In  In67  1  0.82948644  0.64754443  0.49031688  1
  In  In68  1  0.48838275  0.66530805  0.18062845  1
  In  In69  1  0.16360866  0.66597160  0.82180257  1
  In  In70  1  0.32732786  0.33785278  0.34490677  1
  In  In71  1  0.50465739  0.00355353  0.81972308  1
  Te  Te72  1  0.08729437  0.06735908  0.10311441  1
  Te  Te73  1  0.07870374  0.07300112  0.42176526  1
  Te  Te74  1  0.11662948  0.09164241  0.73990681  1
  Te  Te75  1  0.08928285  0.42309973  0.08475654  1
  Te  Te76  1  0.11287574  0.39611795  0.42958921  1
  Te  Te77  1  0.09248635  0.41313402  0.76234122  1
  Te  Te78  1  0.10707763  0.75806247  0.08182807  1
  Te  Te79  1  0.09980899  0.75246253  0.39905197  1
  Te  Te80  1  0.08086196  0.76643390  0.74450906  1
  Te  Te81  1  0.39542343  0.05574154  0.08436278  1
  Te  Te82  1  0.38483124  0.10779341  0.43391821  1
  Te  Te83  1  0.40216315  0.08419500  0.74376966  1
  Te  Te84  1  0.39106756  0.43210522  0.04757959  1
  Te  Te85  1  0.42239547  0.42584373  0.42782704  1
  Te  Te86  1  0.42476550  0.40506587  0.75930071  1
  Te  Te87  1  0.40548670  0.74206988  0.07983773  1
  Te  Te88  1  0.39560595  0.73916832  0.37704224  1
  Te  Te89  1  0.43411728  0.75038940  0.74528483  1
  Te  Te90  1  0.73811200  0.07729605  0.05772436  1
  Te  Te91  1  0.75089947  0.08500131  0.42657311  1
  Te  Te92  1  0.72716451  0.06876845  0.74220116  1
  Te  Te93  1  0.74864424  0.37288389  0.05018916  1
  Te  Te94  1  0.74571182  0.41603108  0.42961862  1
  Te  Te95  1  0.76889562  0.40528722  0.76298693  1
  Te  Te96  1  0.75296210  0.74640582  0.07590291  1
  Te  Te97  1  0.76897737  0.75469288  0.40114310  1
  Te  Te98  1  0.76172974  0.73554440  0.74731279  1
  Te  Te99  1  0.07551424  0.25158279  0.25003420  1
  Te  Te100  1  0.08826507  0.25348105  0.58592976  1
  Te  Te101  1  0.10117342  0.25980152  0.91808227  1
  Te  Te102  1  0.10280186  0.55747662  0.26943222  1
  Te  Te103  1  0.08756515  0.59919895  0.59488503  1
  Te  Te104  1  0.07738596  0.59029563  0.92211732  1
  Te  Te105  1  0.09517038  0.94102662  0.19824355  1
  Te  Te106  1  0.07174851  0.91904650  0.57019530  1
  Te  Te107  1  0.10204509  0.94453918  0.91938500  1
  Te  Te108  1  0.41432846  0.25858613  0.24649819  1
  Te  Te109  1  0.42068175  0.24015191  0.55634433  1
  Te  Te110  1  0.41725370  0.26453789  0.94296014  1
  Te  Te111  1  0.39435392  0.56634864  0.24045568  1
  Te  Te112  1  0.41784544  0.58575210  0.58807673  1
  Te  Te113  1  0.43368913  0.55065309  0.93452176  1
  Te  Te114  1  0.40932010  0.93966787  0.22045946  1
  Te  Te115  1  0.38419983  0.91783071  0.59041123  1
  Te  Te116  1  0.41554770  0.91826653  0.91122160  1
  Te  Te117  1  0.75290903  0.25291937  0.22505502  1
  Te  Te118  1  0.76554848  0.25396014  0.58852571  1
  Te  Te119  1  0.73701983  0.27747703  0.92615485  1
  Te  Te120  1  0.74690858  0.57363278  0.23499806  1
  Te  Te121  1  0.74290305  0.57133083  0.58789096  1
  Te  Te122  1  0.71791866  0.54928051  0.90601462  1
  Te  Te123  1  0.74512939  0.92318913  0.24611139  1
  Te  Te124  1  0.75039417  0.91773748  0.57084968  1
  Te  Te125  1  0.74732149  0.90585602  0.90677797  1
  Te  Te126  1  0.24267783  0.25290845  0.08711593  1
  Te  Te127  1  0.26432435  0.24487952  0.44282162  1
  Te  Te128  1  0.24520699  0.25087432  0.73622267  1
  Te  Te129  1  0.23367234  0.57892123  0.07989466  1
  Te  Te130  1  0.20413475  0.57161466  0.38788801  1
  Te  Te131  1  0.27139033  0.56918892  0.77674519  1
  Te  Te132  1  0.29729069  0.94018766  0.11158498  1
  Te  Te133  1  0.23886036  0.92247305  0.41868113  1
  Te  Te134  1  0.24756840  0.91627145  0.74327120  1
  Te  Te135  1  0.56001025  0.24862230  0.07220739  1
  Te  Te136  1  0.57586017  0.22968406  0.39301426  1
  Te  Te137  1  0.57546570  0.24731768  0.75997476  1
  Te  Te138  1  0.57396271  0.56873135  0.09893881  1
  Te  Te139  1  0.59469290  0.58053393  0.42690217  1
  Te  Te140  1  0.58783963  0.56759072  0.74318470  1
  Te  Te141  1  0.56281935  0.95334026  0.11390516  1
  Te  Te142  1  0.55218501  0.91441380  0.40586406  1
  Te  Te143  1  0.58196125  0.91616866  0.73003239  1
  Te  Te144  1  0.93575126  0.22249739  0.09983589  1
  Te  Te145  1  0.90908163  0.26722991  0.41749816  1
  Te  Te146  1  0.91410177  0.26305089  0.78656220  1
  Te  Te147  1  0.88883672  0.56158448  0.06354044  1
  Te  Te148  1  0.93015073  0.58024278  0.39721535  1
  Te  Te149  1  0.93390779  0.59358828  0.75407928  1
  Te  Te150  1  0.94309787  0.87442197  0.13763431  1
  Te  Te151  1  0.91930268  0.90879856  0.37433428  1
  Te  Te152  1  0.91596464  0.91466473  0.76413950  1
  Te  Te153  1  0.23252871  0.08892111  0.25966560  1
  Te  Te154  1  0.22396023  0.12358120  0.62488397  1
  Te  Te155  1  0.27268552  0.08392966  0.91867132  1
  Te  Te156  1  0.28164638  0.43697816  0.24390094  1
  Te  Te157  1  0.26166381  0.42996911  0.58378672  1
  Te  Te158  1  0.28914033  0.38198607  0.94465625  1
  Te  Te159  1  0.27273755  0.76336194  0.25058820  1
  Te  Te160  1  0.24822654  0.72627746  0.55909455  1
  Te  Te161  1  0.23918755  0.75453455  0.92428349  1
  Te  Te162  1  0.55987557  0.10669550  0.27635490  1
  Te  Te163  1  0.58242531  0.06951920  0.57584469  1
  Te  Te164  1  0.56234564  0.09841948  0.92398796  1
  Te  Te165  1  0.58234601  0.41007722  0.24767290  1
  Te  Te166  1  0.58505594  0.38984483  0.56672908  1
  Te  Te167  1  0.61452221  0.43571543  0.94318721  1
  Te  Te168  1  0.58268992  0.76218907  0.25041209  1
  Te  Te169  1  0.56611714  0.76037676  0.56516847  1
  Te  Te170  1  0.57281128  0.74842043  0.92918695  1
  Te  Te171  1  0.92333062  0.08018514  0.26239489  1
  Te  Te172  1  0.91162313  0.08439297  0.59898492  1
  Te  Te173  1  0.93283071  0.08322712  0.93250165  1
  Te  Te174  1  0.91268441  0.41009966  0.22886983  1
  Te  Te175  1  0.93261371  0.42457270  0.57836874  1
  Te  Te176  1  0.90520598  0.42821628  0.95489727  1
  Te  Te177  1  0.92036624  0.72802263  0.19630733  1
  Te  Te178  1  0.92422330  0.73343466  0.57383315  1
  Te  Te179  1  0.90870105  0.75185699  0.92857069  1
