# generated using pymatgen
data_In2Te3
_symmetry_space_group_name_H-M   'P 1'
_cell_length_a   18.79389755
_cell_length_b   18.80356837
_cell_length_c   18.80351966
_cell_angle_alpha   90.04759636
_cell_angle_beta   89.96025418
_cell_angle_gamma   89.89268283
_symmetry_Int_Tables_number   1
_chemical_formula_structural   In2Te3
_chemical_formula_sum   'In72 Te108'
_cell_volume   6645.00421032
_cell_formula_units_Z   36
loop_
 _symmetry_equiv_pos_site_id
 _symmetry_equiv_pos_as_xyz
  1  'x, y, z'
loop_
 _atom_site_type_symbol
 _atom_site_label
 _atom_site_symmetry_multiplicity
 _atom_site_fract_x
 _atom_site_fract_y
 _atom_site_fract_z
 _atom_site_occupancy
  In  In0  1  0.50117337  0.17221863  0.65491268  1
  In  In1  1  0.15870638  0.48529888  0.34258947  1
  In  In2  1  0.67979803  0.00268033  0.68019495  1
  In  In3  1  0.52209922  0.49569026  0.63430999  1
  In  In4  1  0.66197021  0.33895212  0.33026982  1
  In  In5  1  0.32218616  0.67584723  0.02527943  1
  In  In6  1  0.83232093  0.00555739  0.15681958  1
  In  In7  1  0.51267640  0.51879113  0.02003387  1
  In  In8  1  0.17948702  -0.01427530  0.17261143  1
  In  In9  1  0.35542874  0.82318518  0.17954717  1
  In  In10  1  0.30288437  0.15926065  0.83814109  1
  In  In11  1  0.13467613  0.32788389  0.18561203  1
  In  In12  1  -0.01247714  0.17861075  0.17143337  1
  In  In13  1  0.51799463  0.35271356  0.48048757  1
  In  In14  1  -0.00308813  0.31052745  -0.00293749  1
  In  In15  1  0.52343331  0.33888344  0.16869977  1
  In  In16  1  0.66004857  0.66045050  0.02118436  1
  In  In17  1  0.34786701  0.66763397  0.67512788  1
  In  In18  1  0.15573657  0.17840441  -0.01478312  1
  In  In19  1  -0.01316759  0.82236792  0.15490123  1
  In  In20  1  0.15705109  0.84359700  0.67301844  1
  In  In21  1  0.13969019  0.84500190  0.00855377  1
  In  In22  1  0.67703351  0.49325803  0.82075864  1
  In  In23  1  0.32043013  -0.00375465  0.63727495  1
  In  In24  1  0.32334173  0.48475507  0.47443334  1
  In  In25  1  0.69144647  0.64298609  0.30394394  1
  In  In26  1  0.33332449  0.84156221  0.81470859  1
  In  In27  1  0.84650626  0.83777030  0.35140713  1
  In  In28  1  0.83135995  0.17100460  0.01099942  1
  In  In29  1  0.65422876  0.02111261  0.33581088  1
  In  In30  1  0.32942262  0.32710410  -0.01314497  1
  In  In31  1  0.51304687  0.33993027  0.83125328  1
  In  In32  1  0.81649620  -0.01269109  0.84471202  1
  In  In33  1  -0.03315201  0.63354360  0.33974608  1
  In  In34  1  0.49751271  -0.00143866  0.49247026  1
  In  In35  1  0.50659855  0.83188514  -0.00267250  1
  In  In36  1  0.53474349  0.66848965  0.86348409  1
  In  In37  1  0.69384950  0.50690430  0.49577017  1
  In  In38  1  0.80369483  0.46507856  0.02896892  1
  In  In39  1  -0.02324185  0.47697537  0.18886386  1
  In  In40  1  0.03407411  0.02799120  0.36277815  1
  In  In41  1  0.14968920  0.66679242  0.82406028  1
  In  In42  1  0.15820782  0.66308304  0.49647138  1
  In  In43  1  0.51412183  0.68599139  0.47812120  1
  In  In44  1  -0.00770074  0.00109534  -0.00790700  1
  In  In45  1  -0.00832398  0.49321636  0.84149299  1
  In  In46  1  0.18567956  0.83573348  0.33292904  1
  In  In47  1  0.83621757  0.19701300  0.34515449  1
  In  In48  1  0.34033452  0.32690906  0.33410188  1
  In  In49  1  0.32824126  0.14756298  0.18111600  1
  In  In50  1  0.51423112  -0.00264159  0.82432967  1
  In  In51  1  0.02143305  0.66706631  0.64166934  1
  In  In52  1  0.50188261  -0.00695660  0.17994769  1
  In  In53  1  0.68885974  0.15890221  0.82759773  1
  In  In54  1  -0.02334113  0.66114276  0.00077181  1
  In  In55  1  0.13669101  0.33911099  0.50981266  1
  In  In56  1  0.66663272  0.81514317  0.16697459  1
  In  In57  1  0.36335849  0.53358584  0.18952507  1
  In  In58  1  0.31935073  0.31252257  0.69801791  1
  In  In59  1  0.32437499  0.46940951  0.85972100  1
  In  In60  1  0.34080121  0.15856001  0.49225550  1
  In  In61  1  -0.00753047  0.04486854  0.66753754  1
  In  In62  1  0.83146591  0.68576920  0.83353881  1
  In  In63  1  0.82632833  0.49604532  0.65690128  1
  In  In64  1  0.67015306  0.83329338  0.49270139  1
  In  In65  1  0.84026569  0.84054081  0.66702157  1
  In  In66  1  -0.00130388  0.83497532  0.51876482  1
  In  In67  1  0.34529686  0.84075231  0.48117736  1
  In  In68  1  0.70053682  0.20386628  0.50687597  1
  In  In69  1  0.13683323  0.50834019  0.65112340  1
  In  In70  1  0.51641508  0.17110687  0.02981170  1
  In  In71  1  -0.01861700  0.32922732  0.66145472  1
  Te  Te72  1  0.07735171  0.08168329  0.09460999  1
  Te  Te73  1  0.09416307  0.10561588  0.47392175  1
  Te  Te74  1  0.08048148  0.12051735  0.76040362  1
  Te  Te75  1  0.07173627  0.41621016  0.08013269  1
  Te  Te76  1  0.05347629  0.38710143  0.38987449  1
  Te  Te77  1  0.08151096  0.40794121  0.75106573  1
  Te  Te78  1  0.08678440  0.72725501  0.08869873  1
  Te  Te79  1  0.06770125  0.75059586  0.40904611  1
  Te  Te80  1  0.05636752  0.76526367  0.75544741  1
  Te  Te81  1  0.41108115  0.07259160  0.07792878  1
  Te  Te82  1  0.41922335  0.07881096  0.39582746  1
  Te  Te83  1  0.40912337  0.08584824  0.73935790  1
  Te  Te84  1  0.41617919  0.41112955  0.08172164  1
  Te  Te85  1  0.43516021  0.43671403  0.38305450  1
  Te  Te86  1  0.42239007  0.42823851  0.73882009  1
  Te  Te87  1  0.44777447  0.72836412  0.09097537  1
  Te  Te88  1  0.40212061  0.73609190  0.39013702  1
  Te  Te89  1  0.44193505  0.74707471  0.76356009  1
  Te  Te90  1  0.73354970  0.08800561  0.08605523  1
  Te  Te91  1  0.75937755  0.08858184  0.42300728  1
  Te  Te92  1  0.78495372  0.10418890  0.72054962  1
  Te  Te93  1  0.73226443  0.37769199  0.12576719  1
  Te  Te94  1  0.76997853  0.40810821  0.40980732  1
  Te  Te95  1  0.76912186  0.39525724  0.75385274  1
  Te  Te96  1  0.76406484  0.74556403  0.08050856  1
  Te  Te97  1  0.75534630  0.73240582  0.41275133  1
  Te  Te98  1  0.74242676  0.75806120  0.74196196  1
  Te  Te99  1  0.06936742  0.23627745  0.28486536  1
  Te  Te100  1  0.05381813  0.22738362  0.56958443  1
  Te  Te101  1  0.04918872  0.22004393  0.88709331  1
  Te  Te102  1  0.07796427  0.57747437  0.25068105  1
  Te  Te103  1  0.05224774  0.55491001  0.52952336  1
  Te  Te104  1  0.08585815  0.57649945  0.92819595  1
  Te  Te105  1  0.06237355  0.91379137  0.25152807  1
  Te  Te106  1  0.08480597  0.94091861  0.58347591  1
  Te  Te107  1  0.08760090  0.93163771  0.90278527  1
  Te  Te108  1  0.43082504  0.24305587  0.24528731  1
  Te  Te109  1  0.41822726  0.27382282  0.57513713  1
  Te  Te110  1  0.43034438  0.23603713  0.90831091  1
  Te  Te111  1  0.43982403  0.63427599  0.26272003  1
  Te  Te112  1  0.41414639  0.58333565  0.56466740  1
  Te  Te113  1  0.41366431  0.58251150  0.91320192  1
  Te  Te114  1  0.40457233  0.92869617  0.27082221  1
  Te  Te115  1  0.43152117  0.90238245  0.59165385  1
  Te  Te116  1  0.41556386  0.92275216  0.91522358  1
  Te  Te117  1  0.74275767  0.24854376  0.24028941  1
  Te  Te118  1  0.82184333  0.25301627  0.58321540  1
  Te  Te119  1  0.75754022  0.25670684  0.91399671  1
  Te  Te120  1  0.79480921  0.55243595  0.24010113  1
  Te  Te121  1  0.73903932  0.60142221  0.60050612  1
  Te  Te122  1  0.75717425  0.57758821  0.92103203  1
  Te  Te123  1  0.75125861  0.91583281  0.26038330  1
  Te  Te124  1  0.75973137  0.92864221  0.57136941  1
  Te  Te125  1  0.71398406  0.91455826  0.91709280  1
  Te  Te126  1  0.24237523  0.25170037  0.09710790  1
  Te  Te127  1  0.24223602  0.26081445  0.42623884  1
  Te  Te128  1  0.20751162  0.22116908  0.73952017  1
  Te  Te129  1  0.26549624  0.55171508  0.07981390  1
  Te  Te130  1  0.25316592  0.59601419  0.39741134  1
  Te  Te131  1  0.24616059  0.57613677  0.74517546  1
  Te  Te132  1  0.26252165  0.90044101  0.07818757  1
  Te  Te133  1  0.24398458  0.93246684  0.42622504  1
  Te  Te134  1  0.23670565  0.94416315  0.75546793  1
  Te  Te135  1  0.61829743  0.27463551  0.07010324  1
  Te  Te136  1  0.58268212  0.23393237  0.41176591  1
  Te  Te137  1  0.59845918  0.25319537  0.73889337  1
  Te  Te138  1  0.61056400  0.56283006  0.12356162  1
  Te  Te139  1  0.59256370  0.57629865  0.40660123  1
  Te  Te140  1  0.58549193  0.58544797  0.74181915  1
  Te  Te141  1  0.59599633  0.92144411  0.08235496  1
  Te  Te142  1  0.57485629  0.90599485  0.39740714  1
  Te  Te143  1  0.58783783  0.90377849  0.73770150  1
  Te  Te144  1  0.89576412  0.27899560  0.10811514  1
  Te  Te145  1  0.95557303  0.26299181  0.40351750  1
  Te  Te146  1  0.87027555  0.26863600  0.74028941  1
  Te  Te147  1  0.89371387  0.57246529  0.09558821  1
  Te  Te148  1  0.91314543  0.55457401  0.45208575  1
  Te  Te149  1  0.92822760  0.58937690  0.74197814  1
  Te  Te150  1  0.89646365  0.90422589  0.06228503  1
  Te  Te151  1  0.92685874  0.93865456  0.43181415  1
  Te  Te152  1  0.92543892  0.93303648  0.75227642  1
  Te  Te153  1  0.22863086  0.08508449  0.26990127  1
  Te  Te154  1  0.23339070  0.10315754  0.58011857  1
  Te  Te155  1  0.24670641  0.07159044  0.94132271  1
  Te  Te156  1  0.25476275  0.41677459  0.24209047  1
  Te  Te157  1  0.25166932  0.41518202  0.59028935  1
  Te  Te158  1  0.21816769  0.37761881  0.90232131  1
  Te  Te159  1  0.23675237  0.74792376  0.22700610  1
  Te  Te160  1  0.24845275  0.75428289  0.58749071  1
  Te  Te161  1  0.25098056  0.74848990  0.90648416  1
  Te  Te162  1  0.59648204  0.09921407  0.22498247  1
  Te  Te163  1  0.59842388  0.09146452  0.56939368  1
  Te  Te164  1  0.58949873  0.08772624  0.92046665  1
  Te  Te165  1  0.59397639  0.44514676  0.24668591  1
  Te  Te166  1  0.62232358  0.39473143  0.58321082  1
  Te  Te167  1  0.59409086  0.42322610  0.92924469  1
  Te  Te168  1  0.57898057  0.73479646  0.25779291  1
  Te  Te169  1  0.58808002  0.75218096  0.58572062  1
  Te  Te170  1  0.63050951  0.78022498  0.91548635  1
  Te  Te171  1  0.91457562  0.07682145  0.26369092  1
  Te  Te172  1  0.89059613  0.11226923  0.58169359  1
  Te  Te173  1  0.90958362  0.09364025  0.90417660  1
  Te  Te174  1  0.87381749  0.42724769  0.28532747  1
  Te  Te175  1  0.91526232  0.42251436  0.56052885  1
  Te  Te176  1  0.89984450  0.40465212  0.92328113  1
  Te  Te177  1  0.90054734  0.73818039  0.24843008  1
  Te  Te178  1  0.90102505  0.73318552  0.57330887  1
  Te  Te179  1  0.92367566  0.76763061  0.91401447  1
