# generated using pymatgen
data_In2Te3
_symmetry_space_group_name_H-M   'P 1'
_cell_length_a   18.75866929
_cell_length_b   18.75456567
_cell_length_c   18.76040042
_cell_angle_alpha   90.01382104
_cell_angle_beta   90.00246201
_cell_angle_gamma   90.01965392
_symmetry_Int_Tables_number   1
_chemical_formula_structural   In2Te3
_chemical_formula_sum   'In72 Te108'
_cell_volume   6600.10892624
_cell_formula_units_Z   36
loop_
 _symmetry_equiv_pos_site_id
 _symmetry_equiv_pos_as_xyz
  1  'x, y, z'
loop_
 _atom_site_type_symbol
 _atom_site_label
 _atom_site_symmetry_multiplicity
 _atom_site_fract_x
 _atom_site_fract_y
 _atom_site_fract_z
 _atom_site_occupancy
  In  In0  1  0.66949862  0.69450498  0.34902694  1
  In  In1  1  0.48333007  0.81261414  0.00503200  1
  In  In2  1  0.84590328  0.69632513  0.17986915  1
  In  In3  1  0.50971256  0.16170539  0.34121071  1
  In  In4  1  0.50461868  0.17549211  -0.00123138  1
  In  In5  1  0.50166301  0.29157836  0.81277346  1
  In  In6  1  0.01058934  0.15651410  0.49581887  1
  In  In7  1  0.48586185  0.30607743  0.15584402  1
  In  In8  1  0.01834840  0.48859374  0.17112262  1
  In  In9  1  0.48017507  0.00919311  0.18982705  1
  In  In10  1  0.31850855  -0.01261509  0.34708915  1
  In  In11  1  0.14946551  0.01717266  0.18813914  1
  In  In12  1  0.85038415  -0.00188511  0.19113494  1
  In  In13  1  0.16534606  -0.00515943  0.82367853  1
  In  In14  1  0.84511716  0.83728950  0.34239130  1
  In  In15  1  0.84592746  0.84511411  0.65699513  1
  In  In16  1  0.49631326  0.11295018  0.62260835  1
  In  In17  1  0.00020541  0.30854216  0.64676862  1
  In  In18  1  0.00328700  0.85244987  0.18816611  1
  In  In19  1  0.00378556  0.52033724  0.81551842  1
  In  In20  1  0.52340391  0.70329945  0.18347921  1
  In  In21  1  0.02398196  0.31292906  0.31812591  1
  In  In22  1  -0.00368105  0.68041603  -0.00798464  1
  In  In23  1  0.67893650  0.30310785  0.65521663  1
  In  In24  1  0.50408639  0.67705404  0.79932389  1
  In  In25  1  0.67980245  0.48835687  0.17127372  1
  In  In26  1  0.49059127  0.52798776  0.65067506  1
  In  In27  1  0.83558551  0.29653083  0.17886817  1
  In  In28  1  0.34254892  0.66462754  0.01734672  1
  In  In29  1  0.85633538  0.16913299  0.00408930  1
  In  In30  1  0.30810035  0.48051817  0.81918497  1
  In  In31  1  0.83270794  0.49651595  0.64344466  1
  In  In32  1  0.48507562  0.49168343  -0.01151529  1
  In  In33  1  0.49957202  -0.00839668  0.80608057  1
  In  In34  1  0.32012429  0.31885993  0.34679913  1
  In  In35  1  0.67340969  0.84159962  0.18852658  1
  In  In36  1  0.66180680  0.29135238  -0.01120052  1
  In  In37  1  0.29883425  0.29007272  0.02972391  1
  In  In38  1  0.68568901  0.51261540  0.86183299  1
  In  In39  1  0.66654311  0.85183441  0.81749550  1
  In  In40  1  0.67798324  0.30209877  0.32663364  1
  In  In41  1  0.16773105  0.84001248  0.65371238  1
  In  In42  1  0.86709384  0.52303999  0.35959916  1
  In  In43  1  0.67640604  -0.00985578  0.00272927  1
  In  In44  1  -0.00645813  0.16856213  0.82405094  1
  In  In45  1  0.83692777  0.32185455  0.50603701  1
  In  In46  1  0.32249101  0.16643907  0.49336257  1
  In  In47  1  0.31474756  0.82910633  0.81824642  1
  In  In48  1  0.34265331  0.71416658  0.63189692  1
  In  In49  1  0.14566276  0.65976121  0.82158932  1
  In  In50  1  0.30623163  0.00784236  0.00667435  1
  In  In51  1  0.17784091  0.31490315  0.83578514  1
  In  In52  1  -0.01389293  0.31586275  0.02749139  1
  In  In53  1  0.15733662  0.86075894  0.00286077  1
  In  In54  1  0.17220315  0.48959452  0.35321756  1
  In  In55  1  0.16265895  0.50514729  0.65395140  1
  In  In56  1  0.16843544  0.01193763  0.49212502  1
  In  In57  1  0.18577254  0.67282869  0.19546658  1
  In  In58  1  0.65255019  0.70839668  0.63011527  1
  In  In59  1  0.02119830  0.69387333  0.64124135  1
  In  In60  1  0.66768531  0.50714790  0.50174366  1
  In  In61  1  0.33679610  0.69893083  0.35191502  1
  In  In62  1  0.83852989  0.84935589  -0.00670241  1
  In  In63  1  0.67470985  0.63216817  -0.01004414  1
  In  In64  1  0.49416063  0.32875319  0.47058545  1
  In  In65  1  0.00738740  -0.00658379  0.66551081  1
  In  In66  1  0.83575850  0.31614906  0.84037295  1
  In  In67  1  0.50355901  0.50061081  0.34607663  1
  In  In68  1  0.31474462  0.33418208  0.66624155  1
  In  In69  1  0.81959725  0.50585929  -0.00583985  1
  In  In70  1  0.31626007  0.50622951  0.19496588  1
  In  In71  1  0.81614196  -0.00307383  0.48463095  1
  Te  Te72  1  0.10127728  0.09450435  0.07196640  1
  Te  Te73  1  0.07434738  0.07085284  0.38920818  1
  Te  Te74  1  0.09397358  0.09890648  0.73246928  1
  Te  Te75  1  0.09540180  0.39561338  0.08740846  1
  Te  Te76  1  0.06685221  0.40988469  0.42157449  1
  Te  Te77  1  0.08054189  0.40352804  0.74962236  1
  Te  Te78  1  0.08328695  0.75051877  0.09701480  1
  Te  Te79  1  0.02794350  0.73820438  0.43479434  1
  Te  Te80  1  0.07562016  0.77865950  0.75994229  1
  Te  Te81  1  0.40682174  0.09331803  0.08554746  1
  Te  Te82  1  0.42218489  0.07185140  0.42824028  1
  Te  Te83  1  0.40851935  0.08706580  0.73944777  1
  Te  Te84  1  0.39765531  0.41216026  0.09015319  1
  Te  Te85  1  0.39255127  0.43243591  0.42521095  1
  Te  Te86  1  0.43174810  0.42228157  0.74989821  1
  Te  Te87  1  0.39434724  0.76429435  0.12024186  1
  Te  Te88  1  0.42213979  0.77919218  0.44745795  1
  Te  Te89  1  0.43505698  0.79085308  0.72785422  1
  Te  Te90  1  0.76283835  0.07936379  0.08806405  1
  Te  Te91  1  0.73371640  0.11222165  0.43659469  1
  Te  Te92  1  0.73654144  0.13359122  0.75023775  1
  Te  Te93  1  0.75876040  0.38376411  0.06937458  1
  Te  Te94  1  0.74805152  0.41371676  0.41079975  1
  Te  Te95  1  0.75251087  0.41261785  0.74614588  1
  Te  Te96  1  0.74216277  0.75429652  0.07886293  1
  Te  Te97  1  0.75574377  0.77094856  0.44095281  1
  Te  Te98  1  0.75016610  0.75176993  0.73766143  1
  Te  Te99  1  0.10826782  0.23063721  0.23045259  1
  Te  Te100  1  0.10899882  0.24515093  0.56762041  1
  Te  Te101  1  0.07864001  0.24300890  0.92753382  1
  Te  Te102  1  0.08353234  0.58481825  0.26863475  1
  Te  Te103  1  0.09353717  0.59447035  0.55652146  1
  Te  Te104  1  0.08843460  0.57139257  0.93268305  1
  Te  Te105  1  0.07496751  0.93438153  0.29172852  1
  Te  Te106  1  0.07108059  0.90989681  0.55718373  1
  Te  Te107  1  0.06461767  0.93120898  0.91369477  1
  Te  Te108  1  0.39988950  0.22686805  0.25334368  1
  Te  Te109  1  0.42723699  0.25430323  0.58609493  1
  Te  Te110  1  0.39845863  0.24783786  0.91523046  1
  Te  Te111  1  0.42518387  0.59675094  0.25420382  1
  Te  Te112  1  0.39524731  0.59398387  0.56099395  1
  Te  Te113  1  0.41432675  0.59626383  0.89634877  1
  Te  Te114  1  0.41703125  0.90366725  0.27098043  1
  Te  Te115  1  0.43681525  0.90782163  0.54075965  1
  Te  Te116  1  0.40524452  0.91190482  0.91841676  1
  Te  Te117  1  0.76649796  0.19648162  0.26666141  1
  Te  Te118  1  0.76170399  0.20750583  0.57079355  1
  Te  Te119  1  0.74079485  0.19995691  0.89170622  1
  Te  Te120  1  0.75502640  0.59613299  0.26344155  1
  Te  Te121  1  0.75805036  0.60813704  0.56950754  1
  Te  Te122  1  0.79489646  0.61829792  0.89311346  1
  Te  Te123  1  0.74045921  0.94073620  0.28063803  1
  Te  Te124  1  0.73701640  0.93241624  0.59787206  1
  Te  Te125  1  0.76696973  0.94248041  0.88941888  1
  Te  Te126  1  0.20765273  0.19646654  0.11266723  1
  Te  Te127  1  0.21650601  0.25286541  0.43301652  1
  Te  Te128  1  0.25680882  0.22668115  0.74802064  1
  Te  Te129  1  0.23693986  0.57715229  0.08440939  1
  Te  Te130  1  0.25275920  0.59604449  0.41990197  1
  Te  Te131  1  0.26062085  0.60363102  0.73771232  1
  Te  Te132  1  0.24714817  0.91445207  0.11108229  1
  Te  Te133  1  0.24080230  0.89062490  0.43481119  1
  Te  Te134  1  0.26725075  0.93535064  0.72005456  1
  Te  Te135  1  0.60246872  0.21894012  0.11023390  1
  Te  Te136  1  0.60853824  0.22948569  0.44471327  1
  Te  Te137  1  0.59572191  0.19546044  0.73375851  1
  Te  Te138  1  0.56701422  0.58273693  0.09223905  1
  Te  Te139  1  0.57319181  0.60448329  0.43165213  1
  Te  Te140  1  0.60798894  0.58195710  0.73817241  1
  Te  Te141  1  0.57345699  0.91028431  0.08609046  1
  Te  Te142  1  0.56341909  0.93070314  0.46549652  1
  Te  Te143  1  0.60220182  0.93624332  0.71211162  1
  Te  Te144  1  0.95302099  0.19855078  0.13172271  1
  Te  Te145  1  0.91894684  0.24167670  0.40505567  1
  Te  Te146  1  0.89430335  0.23111144  0.72424335  1
  Te  Te147  1  0.91198944  0.58236042  0.09273691  1
  Te  Te148  1  0.94057284  0.61043095  0.45335695  1
  Te  Te149  1  0.92139076  0.59938048  0.71766291  1
  Te  Te150  1  0.93371581  0.93420002  0.07960863  1
  Te  Te151  1  0.92999705  0.94587662  0.40093638  1
  Te  Te152  1  0.90380898  0.93889706  0.75645950  1
  Te  Te153  1  0.25550249  0.09395683  0.26197391  1
  Te  Te154  1  0.26039035  0.07353626  0.59082720  1
  Te  Te155  1  0.23638671  0.09329623  0.90979200  1
  Te  Te156  1  0.23076400  0.39253656  0.24573703  1
  Te  Te157  1  0.24546925  0.41831025  0.56819917  1
  Te  Te158  1  0.24714249  0.40802633  0.93576396  1
  Te  Te159  1  0.22555007  0.77818187  0.29068600  1
  Te  Te160  1  0.23222980  0.76265027  0.54215158  1
  Te  Te161  1  0.24265105  0.74729966  0.92595209  1
  Te  Te162  1  0.59399814  0.06671580  0.26411805  1
  Te  Te163  1  0.61296406  0.04649862  0.55512144  1
  Te  Te164  1  0.57519224  0.06796263  0.91692003  1
  Te  Te165  1  0.56917074  0.39477489  0.25683922  1
  Te  Te166  1  0.57985771  0.40981040  0.58023914  1
  Te  Te167  1  0.58450287  0.39670405  0.90776160  1
  Te  Te168  1  0.56972679  0.79869538  0.29421395  1
  Te  Te169  1  0.55082562  0.78107856  0.54966011  1
  Te  Te170  1  0.59007453  0.74926332  0.91197218  1
  Te  Te171  1  0.92326333  0.11010962  0.25503648  1
  Te  Te172  1  0.91255208  0.07741156  0.57969804  1
  Te  Te173  1  0.92607603  0.07312324  0.91584451  1
  Te  Te174  1  0.90427570  0.41475874  0.24813556  1
  Te  Te175  1  0.94008477  0.42236004  0.56333490  1
  Te  Te176  1  0.92449852  0.42116649  0.91366295  1
  Te  Te177  1  0.95293593  0.73823900  0.28091265  1
  Te  Te178  1  0.92667727  0.77225486  0.54870307  1
  Te  Te179  1  0.92291482  0.76935155  0.90101231  1
