# generated using pymatgen
data_In2Te3
_symmetry_space_group_name_H-M   'P 1'
_cell_length_a   18.92762642
_cell_length_b   18.92610718
_cell_length_c   18.92226039
_cell_angle_alpha   89.99041248
_cell_angle_beta   90.11182126
_cell_angle_gamma   89.97053378
_symmetry_Int_Tables_number   1
_chemical_formula_structural   In2Te3
_chemical_formula_sum   'In72 Te108'
_cell_volume   6778.43716539
_cell_formula_units_Z   36
loop_
 _symmetry_equiv_pos_site_id
 _symmetry_equiv_pos_as_xyz
  1  'x, y, z'
loop_
 _atom_site_type_symbol
 _atom_site_label
 _atom_site_symmetry_multiplicity
 _atom_site_fract_x
 _atom_site_fract_y
 _atom_site_fract_z
 _atom_site_occupancy
  In  In0  1  0.30932046  0.81912526  0.50982234  1
  In  In1  1  0.15675168  0.83787029  0.65766492  1
  In  In2  1  0.58251130  0.64687054  0.54943407  1
  In  In3  1  -0.00432074  0.68414824  0.00555468  1
  In  In4  1  0.50035886  0.67189689  0.16073799  1
  In  In5  1  0.46965869  0.18517793  0.32378121  1
  In  In6  1  0.17847350  0.33743037  0.85407309  1
  In  In7  1  0.83439731  0.50802023  0.01613094  1
  In  In8  1  0.67265980  0.15455812  0.51681138  1
  In  In9  1  0.17743251  0.17192397  0.66941973  1
  In  In10  1  0.45869742  0.64734965  0.85649837  1
  In  In11  1  0.15037823  0.65897930  0.19621571  1
  In  In12  1  0.34667094  0.01756088  0.26531408  1
  In  In13  1  0.83387255  -0.00808787  0.53145616  1
  In  In14  1  0.65452933  -0.00030797  0.30419337  1
  In  In15  1  0.83374739  0.31323166  0.83444439  1
  In  In16  1  0.65722206  0.31615207  0.67732736  1
  In  In17  1  0.82729517  0.82963841  0.66794743  1
  In  In18  1  0.67045705  0.82342579  0.81256881  1
  In  In19  1  0.50759461  0.00751691  0.83542514  1
  In  In20  1  0.48715091  0.34611280  0.16317115  1
  In  In21  1  0.82653287  0.84250530  0.32025826  1
  In  In22  1  0.83579738  0.82743407  -0.00542243  1
  In  In23  1  -0.02054987  0.02154560  -0.02785082  1
  In  In24  1  0.00658687  -0.00207323  0.31351182  1
  In  In25  1  0.18206139  0.16770035  0.01431504  1
  In  In26  1  0.14392799  0.00520024  0.83567664  1
  In  In27  1  0.20233540  0.65036474  0.83223312  1
  In  In28  1  0.83467870  0.33443260  0.50711355  1
  In  In29  1  0.00056271  0.84009605  0.16884353  1
  In  In30  1  0.34103017  -0.00290064  0.66371396  1
  In  In31  1  0.65440934  0.01132281  -0.00053424  1
  In  In32  1  0.67211666  0.65840188  0.34186816  1
  In  In33  1  0.50343646  0.00671953  0.49284382  1
  In  In34  1  0.66770612  0.16844223  0.14610637  1
  In  In35  1  0.48764612  0.32367270  0.51851793  1
  In  In36  1  -0.00384661  0.66327560  0.66792256  1
  In  In37  1  0.33380432  0.49898723  0.16210497  1
  In  In38  1  0.15859247  0.67636664  0.50493307  1
  In  In39  1  0.68774736  0.33335616  0.35343190  1
  In  In40  1  0.18140400  0.49676169  0.00153533  1
  In  In41  1  0.35314471  0.82697638  0.85105273  1
  In  In42  1  0.51093276  0.79816339  0.33952114  1
  In  In43  1  0.67119536  0.49343922  0.81892973  1
  In  In44  1  -0.00858901  0.33330500  0.65712432  1
  In  In45  1  0.14902265  0.83879477  0.33258981  1
  In  In46  1  0.35733315  0.49232931  0.50239697  1
  In  In47  1  -0.01666192  0.50906045  0.82339114  1
  In  In48  1  0.48429859  0.32409402  0.83263741  1
  In  In49  1  0.32055839  0.18059091  0.83037354  1
  In  In50  1  0.02510322  0.32103286  0.00272099  1
  In  In51  1  0.19516450  0.20966011  0.36004542  1
  In  In52  1  0.33045191  0.64681715  0.32109799  1
  In  In53  1  0.03979674  0.84235720  0.49625391  1
  In  In54  1  0.18480807  0.33042188  0.15859285  1
  In  In55  1  0.66375962  0.51085475  0.17250578  1
  In  In56  1  0.85918373  0.16290364  0.36227455  1
  In  In57  1  0.64843201  0.31359039  -0.02148910  1
  In  In58  1  0.83991555  0.32744671  0.15942349  1
  In  In59  1  0.84120088  0.48550830  0.33912617  1
  In  In60  1  0.33592575  0.85008131  0.14125410  1
  In  In61  1  -0.01833041  0.84800593  0.82953665  1
  In  In62  1  0.14006311  0.46746391  0.35514282  1
  In  In63  1  0.50116969  0.49343024  0.67785674  1
  In  In64  1  0.68191632  0.68063306  -0.00301694  1
  In  In65  1  0.14941697  0.00526493  0.51272391  1
  In  In66  1  0.81907603  0.65402590  0.50294052  1
  In  In67  1  -0.01564695  0.17425079  0.50028889  1
  In  In68  1  0.18602298  0.49364610  0.65396260  1
  In  In69  1  0.50380024  0.84682381  0.01302864  1
  In  In70  1  0.67853556  0.00726423  0.70203807  1
  In  In71  1  -0.00188615  0.18388599  0.16381439  1
  Te  Te72  1  0.07403755  0.08401965  0.07910153  1
  Te  Te73  1  0.08391813  0.09430036  0.40617152  1
  Te  Te74  1  0.07684820  0.08487312  0.73262402  1
  Te  Te75  1  0.08390664  0.42593009  0.09376268  1
  Te  Te76  1  0.06879906  0.36931767  0.43759356  1
  Te  Te77  1  0.08776803  0.41983263  0.75704149  1
  Te  Te78  1  0.10017657  0.75649391  0.08984603  1
  Te  Te79  1  0.06573451  0.72992998  0.39667834  1
  Te  Te80  1  0.08410205  0.74738769  0.76048969  1
  Te  Te81  1  0.34610823  0.06600703  0.12338656  1
  Te  Te82  1  0.40305448  0.07152337  0.39960011  1
  Te  Te83  1  0.41688971  0.09654244  0.74779825  1
  Te  Te84  1  0.43023322  0.44304647  0.06367823  1
  Te  Te85  1  0.42511506  0.40028378  0.40808977  1
  Te  Te86  1  0.40782920  0.39002326  0.72352460  1
  Te  Te87  1  0.40603619  0.74017310  0.06406998  1
  Te  Te88  1  0.40342925  0.73326873  0.42409249  1
  Te  Te89  1  0.42016101  0.74325040  0.75241208  1
  Te  Te90  1  0.76034755  0.09377384  0.06274785  1
  Te  Te91  1  0.75024139  0.06663047  0.41832181  1
  Te  Te92  1  0.75421171  0.09823331  0.78958981  1
  Te  Te93  1  0.73096301  0.40132259  0.07837351  1
  Te  Te94  1  0.74005087  0.43900428  0.44560428  1
  Te  Te95  1  0.76434765  0.40753478  0.73740217  1
  Te  Te96  1  0.77537946  0.73738862  0.09381427  1
  Te  Te97  1  0.74821057  0.76271359  0.42217960  1
  Te  Te98  1  0.74715723  0.72271939  0.73384378  1
  Te  Te99  1  0.09062685  0.25998028  0.25460272  1
  Te  Te100  1  0.09569954  0.25520919  0.56854346  1
  Te  Te101  1  0.08854940  0.22606217  0.90475842  1
  Te  Te102  1  0.06801533  0.56103430  0.26622424  1
  Te  Te103  1  0.07834046  0.57114784  0.57822046  1
  Te  Te104  1  0.08150240  0.58275890  0.91616534  1
  Te  Te105  1  0.11153032  0.93673742  0.22433290  1
  Te  Te106  1  0.05437905  0.94091080  0.61242590  1
  Te  Te107  1  0.07707825  0.90772546  0.93029023  1
  Te  Te108  1  0.38653740  0.25988035  0.22860255  1
  Te  Te109  1  0.39386679  0.21633597  0.55064717  1
  Te  Te110  1  0.39411225  0.25857155  0.93319967  1
  Te  Te111  1  0.43928359  0.56829351  0.25318911  1
  Te  Te112  1  0.43526060  0.59214270  0.58303221  1
  Te  Te113  1  0.39174535  0.54482238  0.93672707  1
  Te  Te114  1  0.43656982  0.89584597  0.24575429  1
  Te  Te115  1  0.41850291  0.90376208  0.57313710  1
  Te  Te116  1  0.41303536  0.93886945  0.93366760  1
  Te  Te117  1  0.75934376  0.23680401  0.26073810  1
  Te  Te118  1  0.76613979  0.23631051  0.60202385  1
  Te  Te119  1  0.73393141  0.22200619  0.89845286  1
  Te  Te120  1  0.76826800  0.58644165  0.24859428  1
  Te  Te121  1  0.72195458  0.61505773  0.60769989  1
  Te  Te122  1  0.75818662  0.58177052  0.90793926  1
  Te  Te123  1  0.76009749  0.93388932  0.22787461  1
  Te  Te124  1  0.71668880  0.90575709  0.58358808  1
  Te  Te125  1  0.73826007  0.91037078  0.91417648  1
  Te  Te126  1  0.27537542  0.27696691  0.05316676  1
  Te  Te127  1  0.30030938  0.27778859  0.44744629  1
  Te  Te128  1  0.25894352  0.28264446  0.73463281  1
  Te  Te129  1  0.24576561  0.60059107  0.09236421  1
  Te  Te130  1  0.24046972  0.57747617  0.42172268  1
  Te  Te131  1  0.27949580  0.55789101  0.74892600  1
  Te  Te132  1  0.25982412  0.95479113  0.07298995  1
  Te  Te133  1  0.24019359  0.92137616  0.42204506  1
  Te  Te134  1  0.24779597  0.91551477  0.75218981  1
  Te  Te135  1  0.55507173  0.24181300  0.07375557  1
  Te  Te136  1  0.58935688  0.23422544  0.41759028  1
  Te  Te137  1  0.57201734  0.23072523  0.75830025  1
  Te  Te138  1  0.58508124  0.58574611  0.06726922  1
  Te  Te139  1  0.57520227  0.58148392  0.41828403  1
  Te  Te140  1  0.57196530  0.59460212  0.76590225  1
  Te  Te141  1  0.59822812  0.91709327  0.09929580  1
  Te  Te142  1  0.58693353  0.91197646  0.40785707  1
  Te  Te143  1  0.56675711  0.90692522  0.73989117  1
  Te  Te144  1  0.90661758  0.23966451  0.05435095  1
  Te  Te145  1  0.93827012  0.29152890  0.39837972  1
  Te  Te146  1  0.94429598  0.24583462  0.76518942  1
  Te  Te147  1  0.92457585  0.59183118  0.09446304  1
  Te  Te148  1  0.91662127  0.56512308  0.43909746  1
  Te  Te149  1  0.89480630  0.57564970  0.72808922  1
  Te  Te150  1  0.91712554  0.92663946  0.07558876  1
  Te  Te151  1  0.92910746  0.92863457  0.42408961  1
  Te  Te152  1  0.88745089  0.93591223  0.75507813  1
  Te  Te153  1  0.24129796  0.12650972  0.24357416  1
  Te  Te154  1  0.26230126  0.08942025  0.57075952  1
  Te  Te155  1  0.25258054  0.07447887  0.91529360  1
  Te  Te156  1  0.25302165  0.41879205  0.26159092  1
  Te  Te157  1  0.24931974  0.40325252  0.55375181  1
  Te  Te158  1  0.27819421  0.44274295  0.89990550  1
  Te  Te159  1  0.26093787  0.76434616  0.25431636  1
  Te  Te160  1  0.25119023  0.72628406  0.61452671  1
  Te  Te161  1  0.24951880  0.75306676  0.92392554  1
  Te  Te162  1  0.56480702  0.09932450  0.23553293  1
  Te  Te163  1  0.57784245  0.07864565  0.60434806  1
  Te  Te164  1  0.56120909  0.10364073  0.93140055  1
  Te  Te165  1  0.59482474  0.40567967  0.25734937  1
  Te  Te166  1  0.59064929  0.41427425  0.58287126  1
  Te  Te167  1  0.57295982  0.42459617  0.90970850  1
  Te  Te168  1  0.60822579  0.74846938  0.23462968  1
  Te  Te169  1  0.62184796  0.78055642  0.59359841  1
  Te  Te170  1  0.57506127  0.75421010  0.91379420  1
  Te  Te171  1  0.90847755  0.08579559  0.23907869  1
  Te  Te172  1  0.90242992  0.10242737  0.59918459  1
  Te  Te173  1  0.88886911  0.06258296  0.86326716  1
  Te  Te174  1  0.92393169  0.42010092  0.23452984  1
  Te  Te175  1  0.91287681  0.43381718  0.58416292  1
  Te  Te176  1  0.92013991  0.41381099  0.92798608  1
  Te  Te177  1  0.92828314  0.75423238  0.26272931  1
  Te  Te178  1  0.92768609  0.76364723  0.57212672  1
  Te  Te179  1  0.90467610  0.73516220  0.89440217  1
