# generated using pymatgen
data_In2Te3
_symmetry_space_group_name_H-M   'P 1'
_cell_length_a   18.77664902
_cell_length_b   18.78179561
_cell_length_c   18.78638393
_cell_angle_alpha   89.93915654
_cell_angle_beta   90.04242915
_cell_angle_gamma   89.92566407
_symmetry_Int_Tables_number   1
_chemical_formula_structural   In2Te3
_chemical_formula_sum   'In72 Te108'
_cell_volume   6625.17969440
_cell_formula_units_Z   36
loop_
 _symmetry_equiv_pos_site_id
 _symmetry_equiv_pos_as_xyz
  1  'x, y, z'
loop_
 _atom_site_type_symbol
 _atom_site_label
 _atom_site_symmetry_multiplicity
 _atom_site_fract_x
 _atom_site_fract_y
 _atom_site_fract_z
 _atom_site_occupancy
  In  In0  1  0.68476432  0.81774218  0.12702053  1
  In  In1  1  0.33967854  -0.01958938  0.00341030  1
  In  In2  1  0.17912909  0.80094951  0.64950685  1
  In  In3  1  0.52299058  0.19921241  0.02338231  1
  In  In4  1  0.81662628  0.83155576  0.67287899  1
  In  In5  1  0.31950485  -0.00854372  0.64900973  1
  In  In6  1  0.16141739  0.47573654  -0.02319861  1
  In  In7  1  0.33541051  0.82749340  0.13513308  1
  In  In8  1  0.81760987  0.00337743  0.82424033  1
  In  In9  1  0.50489937  0.18757765  0.64659931  1
  In  In10  1  0.17879324  0.33850728  0.85255434  1
  In  In11  1  0.33120335  0.01173833  0.34869827  1
  In  In12  1  0.83358163  0.49074334  0.32312929  1
  In  In13  1  0.66826007  0.64916555  0.33111082  1
  In  In14  1  0.69039705  -0.01417986  -0.00710652  1
  In  In15  1  0.68561250  0.02891021  0.67754473  1
  In  In16  1  0.49792067  0.02503113  0.20059590  1
  In  In17  1  0.82848612  0.49370044  0.67181134  1
  In  In18  1  0.67368481  0.17355857  0.51283164  1
  In  In19  1  0.47716925  0.81645744  0.67136845  1
  In  In20  1  0.69520168  0.13657125  0.82953135  1
  In  In21  1  0.49491955  0.51397543  0.66900174  1
  In  In22  1  0.66549539  0.34472093  0.68147552  1
  In  In23  1  -0.02359190  0.31269466  0.67501584  1
  In  In24  1  0.01195326  0.67249661  0.34142613  1
  In  In25  1  0.16941039  0.51142548  0.33246810  1
  In  In26  1  0.48271475  0.33420318  0.49242111  1
  In  In27  1  0.84110890  0.18030438  0.01044820  1
  In  In28  1  0.33303521  0.17830334  0.18744381  1
  In  In29  1  0.50371652  0.48935452  0.33670711  1
  In  In30  1  0.33429252  0.48918710  0.16004279  1
  In  In31  1  -0.00547024  0.33333652  0.00108624  1
  In  In32  1  0.84923174  0.84307087  0.32739150  1
  In  In33  1  0.13941357  0.17007695  0.00571543  1
  In  In34  1  0.15699015  0.65578472  0.17513275  1
  In  In35  1  0.69064557  0.01028923  0.36095633  1
  In  In36  1  -0.00177253  0.02904537  0.33401832  1
  In  In37  1  0.50665116  0.35908934  0.83596521  1
  In  In38  1  0.33755338  0.65948525  0.35416701  1
  In  In39  1  0.01892328  0.83892245  0.49858136  1
  In  In40  1  0.17446298  0.82664019  -0.00973552  1
  In  In41  1  0.16925622  0.84828705  0.34192887  1
  In  In42  1  -0.01136212  0.82319096  0.16039181  1
  In  In43  1  -0.00608134  0.34138558  0.32139589  1
  In  In44  1  0.16185256  0.16808239  0.35272133  1
  In  In45  1  0.16711480  0.65808120  0.82051679  1
  In  In46  1  0.15142893  -0.01129910  0.81183183  1
  In  In47  1  0.67473042  0.81612391  0.82802380  1
  In  In48  1  0.69787269  0.64575254  -0.00806067  1
  In  In49  1  -0.01950162  0.00794006  0.64763291  1
  In  In50  1  0.15905759  0.16430209  0.66067104  1
  In  In51  1  0.84160358  0.02396397  0.17487116  1
  In  In52  1  0.82553840  0.65192924  0.50867188  1
  In  In53  1  0.16495726  0.34804343  0.16758214  1
  In  In54  1  0.17559833  0.50273051  0.65723423  1
  In  In55  1  0.64412080  0.83950961  0.50521316  1
  In  In56  1  0.31320360  0.16782976  0.82669967  1
  In  In57  1  0.49179631  0.18562803  0.33608329  1
  In  In58  1  0.49052131  0.68035863  0.49660861  1
  In  In59  1  0.84720147  0.35036633  0.48338227  1
  In  In60  1  0.67436878  0.34009317  0.00477362  1
  In  In61  1  -0.01872512  0.49571973  0.83445338  1
  In  In62  1  0.17147236  0.32421899  0.49963613  1
  In  In63  1  0.49135884  -0.00584693  0.84117136  1
  In  In64  1  0.49403774  0.83546837  0.01146160  1
  In  In65  1  0.00981189  0.00184766  0.00754239  1
  In  In66  1  0.67585431  0.48831491  0.15989166  1
  In  In67  1  0.48475023  0.64089806  0.83981645  1
  In  In68  1  0.02263032  0.65072949  0.66367581  1
  In  In69  1  0.34302127  0.36100568  -0.00867321  1
  In  In70  1  0.48176522  0.80819376  0.35312568  1
  In  In71  1  0.52085863  0.67546241  0.14957491  1
  Te  Te72  1  0.06815238  0.09246661  0.10791909  1
  Te  Te73  1  0.09110724  0.07222842  0.44050463  1
  Te  Te74  1  0.05906386  0.09356202  0.75226685  1
  Te  Te75  1  0.06665819  0.43485250  0.09063809  1
  Te  Te76  1  0.08086978  0.41984465  0.41748019  1
  Te  Te77  1  0.08121293  0.41362241  0.75137758  1
  Te  Te78  1  0.07750524  0.73739832  0.07256209  1
  Te  Te79  1  0.11362675  0.73818964  0.43310945  1
  Te  Te80  1  0.07361468  0.76124880  0.75404097  1
  Te  Te81  1  0.41673305  0.08909712  0.08028489  1
  Te  Te82  1  0.42687176  0.09049344  0.42779626  1
  Te  Te83  1  0.41511010  0.08564652  0.74522022  1
  Te  Te84  1  0.43861633  0.40659267  0.09426150  1
  Te  Te85  1  0.39774001  0.43594191  0.42336930  1
  Te  Te86  1  0.41135385  0.41001751  0.73777828  1
  Te  Te87  1  0.39969997  0.71203266  0.05340705  1
  Te  Te88  1  0.36828763  0.77883430  0.45543168  1
  Te  Te89  1  0.39427234  0.72203354  0.74964777  1
  Te  Te90  1  0.73355977  0.09988517  0.08739879  1
  Te  Te91  1  0.78403204  0.09722465  0.44108119  1
  Te  Te92  1  0.80977977  0.12435818  0.71688357  1
  Te  Te93  1  0.78009245  0.41157610  0.08454267  1
  Te  Te94  1  0.73657358  0.41673142  0.40748302  1
  Te  Te95  1  0.74817975  0.42274385  0.77526542  1
  Te  Te96  1  0.79521720  0.73262612  0.07097980  1
  Te  Te97  1  0.74764770  0.75926422  0.41511605  1
  Te  Te98  1  0.74428599  0.72117737  0.73913380  1
  Te  Te99  1  0.08502704  0.24481938  0.24313054  1
  Te  Te100  1  0.06042217  0.24016820  0.57118811  1
  Te  Te101  1  0.06495387  0.24592437  0.89664146  1
  Te  Te102  1  0.05494258  0.56391525  0.24186827  1
  Te  Te103  1  0.08833525  0.57397080  0.55872777  1
  Te  Te104  1  0.07315869  0.58607971  0.91698769  1
  Te  Te105  1  0.06761513  0.91661161  0.25120499  1
  Te  Te106  1  0.09827066  0.92311709  0.59659242  1
  Te  Te107  1  0.06915635  0.90257311  0.90799188  1
  Te  Te108  1  0.43014198  0.27725682  0.23602098  1
  Te  Te109  1  0.39267488  0.24683251  0.57350188  1
  Te  Te110  1  0.41486763  0.24206763  0.91468288  1
  Te  Te111  1  0.42403935  0.59650502  0.24262582  1
  Te  Te112  1  0.40031682  0.59853295  0.58437845  1
  Te  Te113  1  0.40545556  0.59202161  0.95291370  1
  Te  Te114  1  0.40993339  0.90276153  0.24642129  1
  Te  Te115  1  0.43276843  0.92368320  0.58084574  1
  Te  Te116  1  0.40127237  0.88588749  0.89967460  1
  Te  Te117  1  0.71939321  0.21353542  0.21466491  1
  Te  Te118  1  0.76110654  0.27330562  0.58699912  1
  Te  Te119  1  0.75841153  0.25568776  0.90544796  1
  Te  Te120  1  0.76406711  0.59278328  0.22931455  1
  Te  Te121  1  0.73280538  0.56758945  0.58362570  1
  Te  Te122  1  0.79808488  0.56187139  0.91691209  1
  Te  Te123  1  0.74451262  0.91686349  0.24276220  1
  Te  Te124  1  0.74674998  0.92701949  0.57719201  1
  Te  Te125  1  0.77587558  0.88655378  0.91820097  1
  Te  Te126  1  0.24928981  0.25771049  0.06897626  1
  Te  Te127  1  0.26681406  0.25370965  0.40916675  1
  Te  Te128  1  0.24706024  0.26796700  0.73475237  1
  Te  Te129  1  0.23628019  0.57025324  0.07739695  1
  Te  Te130  1  0.25083970  0.57548911  0.43884371  1
  Te  Te131  1  0.26822190  0.59905956  0.72730647  1
  Te  Te132  1  0.22729367  0.92799022  0.09367874  1
  Te  Te133  1  0.24228651  0.93273531  0.43809824  1
  Te  Te134  1  0.25438783  0.89664520  0.74896219  1
  Te  Te135  1  0.60778939  0.27284702  0.12859143  1
  Te  Te136  1  0.59694566  0.26311893  0.41639155  1
  Te  Te137  1  0.58670696  0.23412303  0.76673358  1
  Te  Te138  1  0.58555642  0.56848597  0.06473211  1
  Te  Te139  1  0.58620708  0.57705146  0.43418923  1
  Te  Te140  1  0.59199780  0.57175217  0.76637104  1
  Te  Te141  1  0.57824753  0.93371256  0.09403858  1
  Te  Te142  1  0.56863427  0.92736867  0.40586200  1
  Te  Te143  1  0.59283267  0.92281813  0.75075102  1
  Te  Te144  1  0.92525833  0.25405492  0.10702053  1
  Te  Te145  1  0.91523188  0.24412276  0.40323251  1
  Te  Te146  1  0.88152179  0.25415923  0.76965564  1
  Te  Te147  1  0.90571218  0.60118276  0.02949862  1
  Te  Te148  1  0.92074446  0.57555689  0.41822449  1
  Te  Te149  1  0.90839355  0.60310285  0.74899496  1
  Te  Te150  1  0.90193759  0.91911943  0.07972992  1
  Te  Te151  1  0.91983584  0.93049329  0.42696880  1
  Te  Te152  1  0.91840588  0.91212479  0.75178553  1
  Te  Te153  1  0.24000789  0.07623008  0.24536019  1
  Te  Te154  1  0.24935798  0.09289891  0.56793287  1
  Te  Te155  1  0.23833194  0.07033879  0.91927538  1
  Te  Te156  1  0.26223204  0.40720517  0.26773086  1
  Te  Te157  1  0.26240837  0.41340258  0.57631552  1
  Te  Te158  1  0.28190678  0.44928232  0.88271049  1
  Te  Te159  1  0.25495404  0.74872702  0.24869323  1
  Te  Te160  1  0.28363163  0.72327484  0.57661780  1
  Te  Te161  1  0.25728065  0.73233442  0.91404313  1
  Te  Te162  1  0.61709802  0.10612202  0.26307532  1
  Te  Te163  1  0.57733195  0.07339461  0.57618973  1
  Te  Te164  1  0.58076290  0.08208202  0.92843291  1
  Te  Te165  1  0.61215519  0.41166745  0.27147473  1
  Te  Te166  1  0.57758713  0.41756762  0.58144356  1
  Te  Te167  1  0.59794489  0.43746513  0.91943590  1
  Te  Te168  1  0.59367309  0.76522784  0.25090442  1
  Te  Te169  1  0.58882015  0.73703652  0.60275434  1
  Te  Te170  1  0.58785969  0.74402848  0.93120711  1
  Te  Te171  1  0.89771455  0.12185207  0.27192007  1
  Te  Te172  1  0.88502979  0.08574196  0.56715061  1
  Te  Te173  1  0.91278061  0.08045336  0.91931127  1
  Te  Te174  1  0.88860618  0.39088277  0.22524727  1
  Te  Te175  1  0.93452348  0.42748839  0.58333119  1
  Te  Te176  1  0.89384377  0.42594401  0.93625084  1
  Te  Te177  1  0.90526376  0.72789143  0.24590677  1
  Te  Te178  1  0.92059349  0.75278100  0.57952765  1
  Te  Te179  1  0.88417175  0.70119632  0.92600760  1
