# generated using pymatgen
data_In2Te3
_symmetry_space_group_name_H-M   'P 1'
_cell_length_a   18.83174099
_cell_length_b   18.82168266
_cell_length_c   18.83193527
_cell_angle_alpha   90.08303935
_cell_angle_beta   90.02244431
_cell_angle_gamma   90.06415349
_symmetry_Int_Tables_number   1
_chemical_formula_structural   In2Te3
_chemical_formula_sum   'In72 Te108'
_cell_volume   6674.87458202
_cell_formula_units_Z   36
loop_
 _symmetry_equiv_pos_site_id
 _symmetry_equiv_pos_as_xyz
  1  'x, y, z'
loop_
 _atom_site_type_symbol
 _atom_site_label
 _atom_site_symmetry_multiplicity
 _atom_site_fract_x
 _atom_site_fract_y
 _atom_site_fract_z
 _atom_site_occupancy
  In  In0  1  0.15480759  0.86321050  0.68091779  1
  In  In1  1  0.81310006  0.16405505  0.31291830  1
  In  In2  1  0.16079233  0.65950842  0.18508183  1
  In  In3  1  0.51268456  0.81175728  0.69084316  1
  In  In4  1  0.35460413  0.49397343  0.83757272  1
  In  In5  1  -0.01189899  0.16565009  0.51269072  1
  In  In6  1  0.14704081  0.14392704  0.72828954  1
  In  In7  1  0.52193368  0.34289501  0.49146142  1
  In  In8  1  0.14660148  0.48602866  -0.01119482  1
  In  In9  1  0.66921998  0.48779272  0.13882444  1
  In  In10  1  0.68343328  0.48518681  0.51021129  1
  In  In11  1  0.81848813  0.32613217  0.83788604  1
  In  In12  1  0.81573099  0.82379582  -0.00355694  1
  In  In13  1  0.15789249  0.65319698  0.48389336  1
  In  In14  1  0.33350554  0.15577270  0.48968757  1
  In  In15  1  -0.01436855  -0.00356220  0.35577323  1
  In  In16  1  -0.05416659  0.20622205  0.13162002  1
  In  In17  1  0.15953990  0.15843142  -0.02535788  1
  In  In18  1  -0.03496832  0.01981165  -0.03784053  1
  In  In19  1  0.52700301  0.83005399  0.31706726  1
  In  In20  1  0.52571714  0.67987324  0.84894515  1
  In  In21  1  0.35145386  0.83867335  0.17151708  1
  In  In22  1  0.14212432  0.85033645  -0.01168599  1
  In  In23  1  0.66745955  -0.00426217  0.30674386  1
  In  In24  1  0.50518523  0.34018506  0.14210284  1
  In  In25  1  0.47595177  0.01315069  0.50099543  1
  In  In26  1  0.66684531  0.18204275  0.50438372  1
  In  In27  1  0.68784785  0.82164039  0.47818236  1
  In  In28  1  0.53581960  -0.00839154  0.13740141  1
  In  In29  1  0.66283042  0.65689294  0.30955745  1
  In  In30  1  -0.00545886  0.81855888  0.17097420  1
  In  In31  1  0.00333847  0.50160158  0.49793696  1
  In  In32  1  0.82303745  0.17305916  0.68001048  1
  In  In33  1  0.34587193  0.67442978  0.01670803  1
  In  In34  1  0.84679877  -0.02145489  0.50220325  1
  In  In35  1  0.68380007  0.18174537  0.14294137  1
  In  In36  1  0.33897181  0.33098551  0.67221693  1
  In  In37  1  0.16999137  0.17324083  0.32257674  1
  In  In38  1  0.00274936  0.65144922  0.32820926  1
  In  In39  1  0.17409482  0.32085101  0.50886344  1
  In  In40  1  -0.01160473  0.66098131  0.67946679  1
  In  In41  1  0.82189571  0.48765783  -0.01236899  1
  In  In42  1  0.69407381  0.03234061  0.68592949  1
  In  In43  1  0.51827373  0.02568046  0.87649850  1
  In  In44  1  0.32725676  0.49453804  0.50558579  1
  In  In45  1  0.34347955  0.65878804  0.66393678  1
  In  In46  1  0.87296226  0.84697378  0.68521825  1
  In  In47  1  0.66047321  0.66784763  0.02950649  1
  In  In48  1  0.32737017  0.82808154  0.49418725  1
  In  In49  1  0.17051063  0.49502950  0.34169010  1
  In  In50  1  0.35566002  0.18888894  0.15541206  1
  In  In51  1  0.48232574  0.66017878  0.50891044  1
  In  In52  1  0.15303202  0.02581348  0.16469216  1
  In  In53  1  0.15159405  0.33005105  0.82933840  1
  In  In54  1  0.32710716  0.00033925  -0.01536614  1
  In  In55  1  -0.03728541  0.65664629  -0.00521454  1
  In  In56  1  0.17682863  0.83713364  0.35606663  1
  In  In57  1  0.49887663  0.50681308  0.31159378  1
  In  In58  1  0.16482076  0.33523858  0.15291065  1
  In  In59  1  0.84761240  0.67244730  0.82931817  1
  In  In60  1  0.52285045  0.19450707  0.70120524  1
  In  In61  1  0.17430307  -0.02440360  0.52534956  1
  In  In62  1  0.34834485  0.01617396  0.68437038  1
  In  In63  1  0.68471660  0.63275786  0.66986807  1
  In  In64  1  0.68294656  0.86526646  0.83601542  1
  In  In65  1  0.81431883  -0.00798359  0.16674723  1
  In  In66  1  -0.00758382  0.34695677  0.68582624  1
  In  In67  1  0.16692997  0.66913123  0.85144669  1
  In  In68  1  -0.04044345  0.35855081  0.28824675  1
  In  In69  1  0.81455252  0.30774959  0.50281765  1
  In  In70  1  0.35193836  0.49474992  0.16170875  1
  In  In71  1  0.66594228  0.47488938  0.84542354  1
  Te  Te72  1  0.05577721  0.09709653  0.07348079  1
  Te  Te73  1  0.09311082  0.08706879  0.42571380  1
  Te  Te74  1  0.05092479  0.03403819  0.74947841  1
  Te  Te75  1  0.06085550  0.41279885  0.08333864  1
  Te  Te76  1  0.07962510  0.39352053  0.41223306  1
  Te  Te77  1  0.08619630  0.43785236  0.75198605  1
  Te  Te78  1  0.08459631  0.73059059  0.07150652  1
  Te  Te79  1  0.06660187  0.75730515  0.42353468  1
  Te  Te80  1  0.07967170  0.75607440  0.76088409  1
  Te  Te81  1  0.42323279  0.07708720  0.07414673  1
  Te  Te82  1  0.43703580  0.10776596  0.39642273  1
  Te  Te83  1  0.42745560  0.10794272  0.77909121  1
  Te  Te84  1  0.40029698  0.40283387  0.05262164  1
  Te  Te85  1  0.41685076  0.41874616  0.40970715  1
  Te  Te86  1  0.43736762  0.39784967  0.76056731  1
  Te  Te87  1  0.44186627  0.76560141  0.08235120  1
  Te  Te88  1  0.42371632  0.75287000  0.40357947  1
  Te  Te89  1  0.40588070  0.74481179  0.77445304  1
  Te  Te90  1  0.75763480  0.07979211  0.06200183  1
  Te  Te91  1  0.75411247  0.07677805  0.42462610  1
  Te  Te92  1  0.77652410  0.08809465  0.79901027  1
  Te  Te93  1  0.72954307  0.38214866  0.04736556  1
  Te  Te94  1  0.74238177  0.39461212  0.40930501  1
  Te  Te95  1  0.77614595  0.43983231  0.75050747  1
  Te  Te96  1  0.77279283  0.73126481  0.10273998  1
  Te  Te97  1  0.75770409  0.71327457  0.41000911  1
  Te  Te98  1  0.74336052  0.75556481  0.74837948  1
  Te  Te99  1  0.06770908  0.24831518  0.23837184  1
  Te  Te100  1  0.08463398  0.24102256  0.60361461  1
  Te  Te101  1  0.06233354  0.25513257  0.92086877  1
  Te  Te102  1  0.07266703  0.54817984  0.23756473  1
  Te  Te103  1  0.09073775  0.57806874  0.59607552  1
  Te  Te104  1  0.05694180  0.57718586  0.90419632  1
  Te  Te105  1  0.08815718  0.91826847  0.25574379  1
  Te  Te106  1  0.05819143  0.90164123  0.57573051  1
  Te  Te107  1  0.08216748  0.95100728  0.89566049  1
  Te  Te108  1  0.42531888  0.27650641  0.24988839  1
  Te  Te109  1  0.42547641  0.24148255  0.58256825  1
  Te  Te110  1  0.45627193  0.28227174  0.95791485  1
  Te  Te111  1  0.42449365  0.60361302  0.22948663  1
  Te  Te112  1  0.43192758  0.55076661  0.60223295  1
  Te  Te113  1  0.43678836  0.58513921  0.93144826  1
  Te  Te114  1  0.43901232  0.93459156  0.25011337  1
  Te  Te115  1  0.41663135  0.89802442  0.59684377  1
  Te  Te116  1  0.42644421  0.91778774  0.91403340  1
  Te  Te117  1  0.75882882  0.27389541  0.23212559  1
  Te  Te118  1  0.72105101  0.26880498  0.61862557  1
  Te  Te119  1  0.71558694  0.23709183  0.90203290  1
  Te  Te120  1  0.75346577  0.55081643  0.24818171  1
  Te  Te121  1  0.77784087  0.58521550  0.56760764  1
  Te  Te122  1  0.73793871  0.60146151  0.91271717  1
  Te  Te123  1  0.75871872  0.89160328  0.25917524  1
  Te  Te124  1  0.74374914  0.91386841  0.59639170  1
  Te  Te125  1  0.75036893  0.94628431  0.94159407  1
  Te  Te126  1  0.24999648  0.24714050  0.06246896  1
  Te  Te127  1  0.26528205  0.26213079  0.40249694  1
  Te  Te128  1  0.25970060  0.24034408  0.76694127  1
  Te  Te129  1  0.23850656  0.57659659  0.07887585  1
  Te  Te130  1  0.27120058  0.59311893  0.40286216  1
  Te  Te131  1  0.25348644  0.58153030  0.76075950  1
  Te  Te132  1  0.23574759  0.91677993  0.09296504  1
  Te  Te133  1  0.27203581  0.94359449  0.41087136  1
  Te  Te134  1  0.26697279  0.91806991  0.75872021  1
  Te  Te135  1  0.55914382  0.22212288  0.05284345  1
  Te  Te136  1  0.59272761  0.25156905  0.39897802  1
  Te  Te137  1  0.60321879  0.27339753  0.80072510  1
  Te  Te138  1  0.56258556  0.56774044  0.07534941  1
  Te  Te139  1  0.57920156  0.57916538  0.42304303  1
  Te  Te140  1  0.57744098  0.57137629  0.75559032  1
  Te  Te141  1  0.60437109  0.88775575  0.06027577  1
  Te  Te142  1  0.58499476  0.92663725  0.43076813  1
  Te  Te143  1  0.57813447  0.93806579  0.74763317  1
  Te  Te144  1  0.86780654  0.30631634  0.05372443  1
  Te  Te145  1  0.91845224  0.24264049  0.40194845  1
  Te  Te146  1  0.93444974  0.23369189  0.76874431  1
  Te  Te147  1  0.89972640  0.56307710  0.09246857  1
  Te  Te148  1  0.90905602  0.57066949  0.40974037  1
  Te  Te149  1  0.90151946  0.55976728  0.74950965  1
  Te  Te150  1  0.92674068  0.91965563  0.08017434  1
  Te  Te151  1  0.89356251  0.88809558  0.39456241  1
  Te  Te152  1  0.91856636  0.95268606  0.77435689  1
  Te  Te153  1  0.26636895  0.08826752  0.24208521  1
  Te  Te154  1  0.24256094  0.09122580  0.59865738  1
  Te  Te155  1  0.24050692  0.07051123  0.88593993  1
  Te  Te156  1  0.25763931  0.41115599  0.24814309  1
  Te  Te157  1  0.23623545  0.42223863  0.60387447  1
  Te  Te158  1  0.25372809  0.40753539  0.91529998  1
  Te  Te159  1  0.25688247  0.75116313  0.25868572  1
  Te  Te160  1  0.24022893  0.74270879  0.58586838  1
  Te  Te161  1  0.25600690  0.76458233  0.93009408  1
  Te  Te162  1  0.58999652  0.10209434  0.23599785  1
  Te  Te163  1  0.57607835  0.08654446  0.59372124  1
  Te  Te164  1  0.61483405  0.11894814  0.93783185  1
  Te  Te165  1  0.59432721  0.40876521  0.24801494  1
  Te  Te166  1  0.59472561  0.40857039  0.60133464  1
  Te  Te167  1  0.55945438  0.38969373  0.91057832  1
  Te  Te168  1  0.60199276  0.75490784  0.21563821  1
  Te  Te169  1  0.59247418  0.74070933  0.58083021  1
  Te  Te170  1  0.59338992  0.78727854  0.93834381  1
  Te  Te171  1  0.92153972  0.07991382  0.24424997  1
  Te  Te172  1  0.91367415  0.07123961  0.60338375  1
  Te  Te173  1  0.89367868  0.13187070  0.89798613  1
  Te  Te174  1  0.87178094  0.45072991  0.21400927  1
  Te  Te175  1  0.91031519  0.40592805  0.57400351  1
  Te  Te176  1  0.92248554  0.39591949  0.92262293  1
  Te  Te177  1  0.90752581  0.72190620  0.23727249  1
  Te  Te178  1  0.90400455  0.74242298  0.58850148  1
  Te  Te179  1  0.92873698  0.77657425  0.90587463  1
