# generated using pymatgen
data_In2Te3
_symmetry_space_group_name_H-M   'P 1'
_cell_length_a   18.76885600
_cell_length_b   18.76449173
_cell_length_c   18.76599283
_cell_angle_alpha   90.03249121
_cell_angle_beta   89.95319484
_cell_angle_gamma   90.04906302
_symmetry_Int_Tables_number   1
_chemical_formula_structural   In2Te3
_chemical_formula_sum   'In72 Te108'
_cell_volume   6609.15260445
_cell_formula_units_Z   36
loop_
 _symmetry_equiv_pos_site_id
 _symmetry_equiv_pos_as_xyz
  1  'x, y, z'
loop_
 _atom_site_type_symbol
 _atom_site_label
 _atom_site_symmetry_multiplicity
 _atom_site_fract_x
 _atom_site_fract_y
 _atom_site_fract_z
 _atom_site_occupancy
  In  In0  1  0.18077243  -0.00526408  0.48060374  1
  In  In1  1  0.33557639  -0.00009296  0.68129364  1
  In  In2  1  0.17160254  0.64628929  0.49034882  1
  In  In3  1  0.49131654  0.64717895  0.82968609  1
  In  In4  1  0.49107695  -0.01422912  0.17711768  1
  In  In5  1  0.80941596  0.37388347  0.13072465  1
  In  In6  1  0.34278156  0.49030487  0.16820554  1
  In  In7  1  0.64533557  0.80946530  0.83164322  1
  In  In8  1  0.32697371  0.64110662  -0.02574513  1
  In  In9  1  0.00227771  0.67497064  0.32931591  1
  In  In10  1  0.85547570  0.00425825  0.84580185  1
  In  In11  1  0.83530108  0.65027023  0.82284660  1
  In  In12  1  0.29653606  0.17793221  0.15922977  1
  In  In13  1  0.81954836  0.16905471  -0.01877477  1
  In  In14  1  0.18508743  0.33450181  0.15243984  1
  In  In15  1  0.15850129  0.19874021  0.00261743  1
  In  In16  1  0.35596237  0.79973745  0.47161678  1
  In  In17  1  -0.00988866  0.35318636  -0.03593797  1
  In  In18  1  0.14065238  0.79949089  0.66431904  1
  In  In19  1  0.32586493  0.51093762  0.56448037  1
  In  In20  1  0.64987939  0.49711211  0.51189622  1
  In  In21  1  0.31691892  0.20929257  0.84137845  1
  In  In22  1  0.19384670  0.16281403  0.34458775  1
  In  In23  1  0.81168645  0.66010102  0.49829896  1
  In  In24  1  0.84703629  0.17983293  0.32374094  1
  In  In25  1  0.15566902  -0.00944127  0.83288155  1
  In  In26  1  -0.00437678  0.82827704  0.49543960  1
  In  In27  1  0.66173439  0.34311183  0.33473743  1
  In  In28  1  0.64997992  0.16921727  0.48816657  1
  In  In29  1  -0.00377827  0.50885628  0.16406895  1
  In  In30  1  0.01108030  0.35779968  0.33543915  1
  In  In31  1  0.15997987  0.67204334  0.17077749  1
  In  In32  1  -0.00775283  0.65847789  0.69171242  1
  In  In33  1  0.33937417  0.79559964  0.83505466  1
  In  In34  1  0.84762372  -0.00890390  0.50947609  1
  In  In35  1  0.15667442  0.19225752  0.66250732  1
  In  In36  1  0.51797211  0.35052657  0.16247659  1
  In  In37  1  0.49858382  0.50205447  0.34178837  1
  In  In38  1  0.67377507  0.50454075  0.84154740  1
  In  In39  1  -0.00166668  0.01572926  0.68352575  1
  In  In40  1  0.48186156  0.01676236  0.82545014  1
  In  In41  1  0.68124615  -0.03089790  0.32982845  1
  In  In42  1  0.67811644  0.00533932  0.00219567  1
  In  In43  1  0.49124530  0.19974315  -0.01453931  1
  In  In44  1  0.51986633  0.64307019  0.15563951  1
  In  In45  1  0.48978937  0.16741813  0.35157217  1
  In  In46  1  0.01111217  -0.01800426  0.34843456  1
  In  In47  1  0.50684637  0.01629371  0.50638114  1
  In  In48  1  0.01150061  0.82230957  0.82018968  1
  In  In49  1  0.67088309  0.01436703  0.63584560  1
  In  In50  1  0.16628591  0.50287637  -0.05383525  1
  In  In51  1  0.35484840  0.20087794  0.53017818  1
  In  In52  1  0.82373958  0.34755723  0.49809224  1
  In  In53  1  -0.00019033  0.16535154  0.16008017  1
  In  In54  1  0.66172280  0.35606175  0.67185090  1
  In  In55  1  0.66996364  0.20306138  0.82330526  1
  In  In56  1  0.66902118  0.81790575  0.48863207  1
  In  In57  1  0.32191364  0.00310770  0.02766817  1
  In  In58  1  0.33799550  0.32798201  0.34404157  1
  In  In59  1  0.65562163  0.64907074  0.67645205  1
  In  In60  1  0.65451462  0.16117920  0.14682313  1
  In  In61  1  0.02075715  0.35028812  0.68970805  1
  In  In62  1  0.16571138  -0.00541420  0.16750009  1
  In  In63  1  0.66897335  0.80302277  0.19814100  1
  In  In64  1  0.49236447  0.80988100  0.68191428  1
  In  In65  1  0.50612291  0.81539774  -0.01314850  1
  In  In66  1  0.83581187  0.81919270  0.01970884  1
  In  In67  1  0.81961830  0.62649908  0.16429472  1
  In  In68  1  -0.00278218  0.82429858  0.15328490  1
  In  In69  1  0.00117366  0.48788712  0.50563865  1
  In  In70  1  0.84987411  0.18494068  0.69032100  1
  In  In71  1  0.32889041  0.82624357  0.18006500  1
  Te  Te72  1  0.08738520  0.08014677  0.06767692  1
  Te  Te73  1  0.07975136  0.09591493  0.42359191  1
  Te  Te74  1  0.08187913  0.10847589  0.76972758  1
  Te  Te75  1  0.08651520  0.41983309  0.07274413  1
  Te  Te76  1  0.10787114  0.42207937  0.42542675  1
  Te  Te77  1  0.12334889  0.45047994  0.73970707  1
  Te  Te78  1  0.06138783  0.71760015  0.07153135  1
  Te  Te79  1  0.10089194  0.75852252  0.41192061  1
  Te  Te80  1  0.11464674  0.70330393  0.78442021  1
  Te  Te81  1  0.43173026  0.09525439  0.08647138  1
  Te  Te82  1  0.39247978  0.08453317  0.43155866  1
  Te  Te83  1  0.40594911  0.11916710  0.74488328  1
  Te  Te84  1  0.42049008  0.41342748  0.06893506  1
  Te  Te85  1  0.39940672  0.43255896  0.43500942  1
  Te  Te86  1  0.37424727  0.47142496  0.76801583  1
  Te  Te87  1  0.41323795  0.73411856  0.07665902  1
  Te  Te88  1  0.46016070  0.72535923  0.39795375  1
  Te  Te89  1  0.38773822  0.70078987  0.71981369  1
  Te  Te90  1  0.77326730  0.07840439  0.09647596  1
  Te  Te91  1  0.75734471  0.08351271  0.41644449  1
  Te  Te92  1  0.74645492  0.07957261  0.75412530  1
  Te  Te93  1  0.72650209  0.47212025  0.05152222  1
  Te  Te94  1  0.75219321  0.44465356  0.40635292  1
  Te  Te95  1  0.76445621  0.40717362  0.77001390  1
  Te  Te96  1  0.72840661  0.72948215  0.08080503  1
  Te  Te97  1  0.74830755  0.74027542  0.39121051  1
  Te  Te98  1  0.75150562  0.74925691  0.74014975  1
  Te  Te99  1  0.09541849  0.24497330  0.25047507  1
  Te  Te100  1  0.06661248  0.26830361  0.57463084  1
  Te  Te101  1  0.09949501  0.27947108  0.89530915  1
  Te  Te102  1  0.09232486  0.56935747  0.26592317  1
  Te  Te103  1  0.08387900  0.58072457  0.59591942  1
  Te  Te104  1  0.06358630  0.58907751  0.88466932  1
  Te  Te105  1  0.09246530  0.89388734  0.25437272  1
  Te  Te106  1  0.08072739  0.92632424  0.58585384  1
  Te  Te107  1  0.07006961  0.91145392  0.92247646  1
  Te  Te108  1  0.41940422  0.24869641  0.23717819  1
  Te  Te109  1  0.44366474  0.29425145  0.60085946  1
  Te  Te110  1  0.43966225  0.28981764  0.87813205  1
  Te  Te111  1  0.41020737  0.59443063  0.25431830  1
  Te  Te112  1  0.43291683  0.60541082  0.60428700  1
  Te  Te113  1  0.41933450  0.54126853  0.91159736  1
  Te  Te114  1  0.41384533  0.90681075  0.27309075  1
  Te  Te115  1  0.41953486  0.91118688  0.58695324  1
  Te  Te116  1  0.41043610  0.91776706  0.91897388  1
  Te  Te117  1  0.74663077  0.25761328  0.23770904  1
  Te  Te118  1  0.74343189  0.24489461  0.58753881  1
  Te  Te119  1  0.75827617  0.28361152  0.91122959  1
  Te  Te120  1  0.72621858  0.55882871  0.25487151  1
  Te  Te121  1  0.75667764  0.56183785  0.60257193  1
  Te  Te122  1  0.76384099  0.58357788  0.93721422  1
  Te  Te123  1  0.76204505  0.91543878  0.22005060  1
  Te  Te124  1  0.75598815  0.89757331  0.58906360  1
  Te  Te125  1  0.74430212  0.90327835  0.90906030  1
  Te  Te126  1  0.28244693  0.27901293  0.04729149  1
  Te  Te127  1  0.24343585  0.26457465  0.44760958  1
  Te  Te128  1  0.26630823  0.28118298  0.71774871  1
  Te  Te129  1  0.23979877  0.56431217  0.07766112  1
  Te  Te130  1  0.27986814  0.56441643  0.43041367  1
  Te  Te131  1  0.24897337  0.54657206  0.75675279  1
  Te  Te132  1  0.23275603  0.89090484  0.07503666  1
  Te  Te133  1  0.26193816  0.89625975  0.40776672  1
  Te  Te134  1  0.24493094  0.89600851  0.74804232  1
  Te  Te135  1  0.60542327  0.27357935  0.05879703  1
  Te  Te136  1  0.56051554  0.27873373  0.42891769  1
  Te  Te137  1  0.56308609  0.29026616  0.76569127  1
  Te  Te138  1  0.57669690  0.54106737  0.05734147  1
  Te  Te139  1  0.57917038  0.59694532  0.42521536  1
  Te  Te140  1  0.56462224  0.54548322  0.73961165  1
  Te  Te141  1  0.58484543  0.90930689  0.08143319  1
  Te  Te142  1  0.57041983  0.91088611  0.41533501  1
  Te  Te143  1  0.57936728  0.92535215  0.74693929  1
  Te  Te144  1  0.91674515  0.26828952  0.08374454  1
  Te  Te145  1  0.92696264  0.26181955  0.42371361  1
  Te  Te146  1  0.93398743  0.26664272  0.77912871  1
  Te  Te147  1  0.91836408  0.58230336  0.06276321  1
  Te  Te148  1  0.91759007  0.58254976  0.41648804  1
  Te  Te149  1  0.93982093  0.54316307  0.78093308  1
  Te  Te150  1  0.92447884  0.92486539  0.07110073  1
  Te  Te151  1  0.89583875  0.89462390  0.40077470  1
  Te  Te152  1  0.90921324  0.90659197  0.74063993  1
  Te  Te153  1  0.27010746  0.06311371  0.25583517  1
  Te  Te154  1  0.24724072  0.08444201  0.58885910  1
  Te  Te155  1  0.25662266  0.08365669  0.91536082  1
  Te  Te156  1  0.24514427  0.41964399  0.26357672  1
  Te  Te157  1  0.22985074  0.41179560  0.62857842  1
  Te  Te158  1  0.27114490  0.42284135  0.87709848  1
  Te  Te159  1  0.25745599  0.72913060  0.26567113  1
  Te  Te160  1  0.25163292  0.74578468  0.57757117  1
  Te  Te161  1  0.23461720  0.74690364  0.92654176  1
  Te  Te162  1  0.58862968  0.08580519  0.26566112  1
  Te  Te163  1  0.56333960  0.11749434  0.60641252  1
  Te  Te164  1  0.58752440  0.09230106  0.91436603  1
  Te  Te165  1  0.61020787  0.45277442  0.23601432  1
  Te  Te166  1  0.54808304  0.41299076  0.58635162  1
  Te  Te167  1  0.59471379  0.43304102  0.94829183  1
  Te  Te168  1  0.55391943  0.74299523  0.27043335  1
  Te  Te169  1  0.57404158  0.73327501  0.57822162  1
  Te  Te170  1  0.59430824  0.70508314  0.92879576  1
  Te  Te171  1  0.92502783  0.06932064  0.25259493  1
  Te  Te172  1  0.92330448  0.10224237  0.58169345  1
  Te  Te173  1  0.93578447  0.10174767  0.92004168  1
  Te  Te174  1  0.90250915  0.42044380  0.24806565  1
  Te  Te175  1  0.90569242  0.41897874  0.60278788  1
  Te  Te176  1  0.89516050  0.43601803  0.88682082  1
  Te  Te177  1  0.90141805  0.73847804  0.23748795  1
  Te  Te178  1  0.91388160  0.73819402  0.58626620  1
  Te  Te179  1  0.91698438  0.74378916  0.91318352  1
