# generated using pymatgen
data_In2Te3
_symmetry_space_group_name_H-M   'P 1'
_cell_length_a   18.75784807
_cell_length_b   18.75575297
_cell_length_c   18.75748200
_cell_angle_alpha   89.95942928
_cell_angle_beta   89.99479629
_cell_angle_gamma   90.04888367
_symmetry_Int_Tables_number   1
_chemical_formula_structural   In2Te3
_chemical_formula_sum   'In72 Te108'
_cell_volume   6599.20754877
_cell_formula_units_Z   36
loop_
 _symmetry_equiv_pos_site_id
 _symmetry_equiv_pos_as_xyz
  1  'x, y, z'
loop_
 _atom_site_type_symbol
 _atom_site_label
 _atom_site_symmetry_multiplicity
 _atom_site_fract_x
 _atom_site_fract_y
 _atom_site_fract_z
 _atom_site_occupancy
  In  In0  1  0.15142922  0.31716974  0.83324738  1
  In  In1  1  0.84188706  0.16973778  0.68046825  1
  In  In2  1  0.66019660  0.63836208  0.34562529  1
  In  In3  1  0.83624966  0.49304778  -0.01236961  1
  In  In4  1  0.32451886  0.15811064  0.48676170  1
  In  In5  1  0.17403770  0.48900375  0.66871510  1
  In  In6  1  0.51145412  0.66806091  0.82515093  1
  In  In7  1  0.35542896  0.49381689  0.16991901  1
  In  In8  1  0.67060101  0.48882585  0.16885820  1
  In  In9  1  -0.00344914  0.50602549  0.17755798  1
  In  In10  1  0.17360706  0.32268949  0.15615362  1
  In  In11  1  0.34213569  0.68458336  0.02372461  1
  In  In12  1  -0.02067782  0.50328397  0.50439864  1
  In  In13  1  0.65574749  -0.00215690  0.33303832  1
  In  In14  1  0.83289191  0.16126556  -0.00133529  1
  In  In15  1  0.33039526  0.82255395  0.83590301  1
  In  In16  1  0.15420581  0.30618755  0.53268139  1
  In  In17  1  0.01709411  0.02527149  0.01932934  1
  In  In18  1  0.64050806  0.66634518  0.65139011  1
  In  In19  1  0.83765065  0.68658451  0.50890145  1
  In  In20  1  0.49011004  0.15286571  0.34708951  1
  In  In21  1  0.66220712  0.84662121  0.15584772  1
  In  In22  1  0.31877734  0.50193160  0.82454489  1
  In  In23  1  0.65298354  0.82498944  0.50258132  1
  In  In24  1  0.50104316  0.48694335  0.00939527  1
  In  In25  1  0.87974835  0.81753388  0.30393387  1
  In  In26  1  0.68304322  0.68190912  -0.00288883  1
  In  In27  1  0.18019163  0.49208189  -0.02760524  1
  In  In28  1  0.19495486  0.67959653  0.47900218  1
  In  In29  1  -0.02188343  0.32170303  -0.00056445  1
  In  In30  1  0.16231778  -0.01352511  0.49731871  1
  In  In31  1  0.33244759  0.16341599  0.17760251  1
  In  In32  1  0.50490547  -0.00611643  0.17267993  1
  In  In33  1  0.51526254  0.32930356  0.17344711  1
  In  In34  1  0.14974216  0.01922020  0.82385063  1
  In  In35  1  0.82395653  0.65391534  0.84053284  1
  In  In36  1  0.34609692  -0.02394761  0.63229928  1
  In  In37  1  0.86188016  0.86097981  0.70087972  1
  In  In38  1  0.65703472  0.31939713  0.32189658  1
  In  In39  1  0.47440357  0.35952236  0.47119727  1
  In  In40  1  0.33226973  -0.00194632  0.01245124  1
  In  In41  1  0.65723832  0.33243732  0.66858164  1
  In  In42  1  0.17109241  0.64819044  0.81205981  1
  In  In43  1  -0.00173489  0.67025006  0.66420369  1
  In  In44  1  0.67478789  0.16488634  0.82436241  1
  In  In45  1  0.48048965  0.67768778  0.17467788  1
  In  In46  1  0.84166590  0.01146667  0.50410680  1
  In  In47  1  0.51396080  0.00410687  0.83710291  1
  In  In48  1  0.84486588  0.50661121  0.33461938  1
  In  In49  1  0.83066111  0.47180198  0.65703420  1
  In  In50  1  0.65712367  0.33088314  -0.00764472  1
  In  In51  1  0.18358281  0.83832458  0.34063519  1
  In  In52  1  0.47675395  0.81770866  0.35074471  1
  In  In53  1  0.16847491  0.86614434  0.00027850  1
  In  In54  1  0.50436031  0.15933953  0.66752276  1
  In  In55  1  0.83235237  0.31565573  0.51399795  1
  In  In56  1  0.33352389  0.33328845  0.68462221  1
  In  In57  1  -0.00710613  0.16855004  0.83306629  1
  In  In58  1  0.02507992  0.32535497  0.32326948  1
  In  In59  1  0.16135106  0.83108695  0.64713886  1
  In  In60  1  0.01482372  0.66727329  -0.00219928  1
  In  In61  1  0.18306862  0.16494272  0.32562892  1
  In  In62  1  0.18612288  0.69405764  0.17341249  1
  In  In63  1  0.82645905  0.17517263  0.33012867  1
  In  In64  1  0.02091440  -0.00281883  0.32923981  1
  In  In65  1  0.82716149  0.00928915  0.14622055  1
  In  In66  1  0.65011501  0.00345517  0.66352137  1
  In  In67  1  0.17430888  0.51403101  0.32359993  1
  In  In68  1  0.83662937  0.85388882  -0.00965982  1
  In  In69  1  0.66728725  0.82957934  0.83502831  1
  In  In70  1  0.63905650  0.49126635  0.49429728  1
  In  In71  1  0.34360663  0.17905133  0.85492394  1
  Te  Te72  1  0.09989453  0.10915174  0.10667843  1
  Te  Te73  1  0.08624854  0.09856914  0.42315333  1
  Te  Te74  1  0.07859865  0.10596716  0.72325129  1
  Te  Te75  1  0.08265139  0.42577546  0.07865394  1
  Te  Te76  1  0.08558892  0.42649840  0.42158200  1
  Te  Te77  1  0.07685383  0.41363307  0.74938330  1
  Te  Te78  1  0.08403904  0.76879250  0.08820605  1
  Te  Te79  1  0.08622018  0.76108602  0.42325305  1
  Te  Te80  1  0.08100020  0.75806269  0.75810558  1
  Te  Te81  1  0.42925614  0.09341840  0.07989449  1
  Te  Te82  1  0.39053872  0.05371312  0.40191540  1
  Te  Te83  1  0.40440632  0.07230014  0.74883170  1
  Te  Te84  1  0.40623464  0.38339696  0.07384950  1
  Te  Te85  1  0.39845298  0.46351869  0.39893466  1
  Te  Te86  1  0.42385619  0.43166840  0.74750892  1
  Te  Te87  1  0.41812755  0.78694801  0.09702491  1
  Te  Te88  1  0.39571733  0.72939423  0.44839827  1
  Te  Te89  1  0.40502011  0.73368633  0.74527034  1
  Te  Te90  1  0.72641994  0.07940834  0.06546204  1
  Te  Te91  1  0.73830517  0.09053553  0.42347636  1
  Te  Te92  1  0.75975485  0.06026665  0.75288282  1
  Te  Te93  1  0.76050623  0.40178033  0.08491807  1
  Te  Te94  1  0.75569830  0.41366012  0.42133621  1
  Te  Te95  1  0.74578436  0.40872581  0.75883699  1
  Te  Te96  1  0.77094952  0.75776705  0.09402406  1
  Te  Te97  1  0.75057752  0.75655416  0.40384456  1
  Te  Te98  1  0.75392794  0.74430577  0.73465875  1
  Te  Te99  1  0.07432376  0.21770384  0.21885238  1
  Te  Te100  1  0.06753967  0.21505323  0.60805032  1
  Te  Te101  1  0.08497225  0.22993356  0.93988655  1
  Te  Te102  1  0.07404788  0.61337753  0.25907264  1
  Te  Te103  1  0.09075058  0.58802896  0.57425569  1
  Te  Te104  1  0.07131397  0.56723950  0.89593208  1
  Te  Te105  1  0.10447518  0.91613527  0.23858800  1
  Te  Te106  1  0.06426759  0.92746662  0.59198013  1
  Te  Te107  1  0.06461911  0.91716450  0.90120317  1
  Te  Te108  1  0.41500413  0.25863745  0.26681880  1
  Te  Te109  1  0.41508460  0.24781224  0.57509949  1
  Te  Te110  1  0.40908114  0.28718459  0.92866353  1
  Te  Te111  1  0.41506444  0.58533346  0.27206540  1
  Te  Te112  1  0.42945174  0.61710670  0.54266195  1
  Te  Te113  1  0.40682314  0.58465950  0.92765522  1
  Te  Te114  1  0.41230503  0.90934079  0.25268275  1
  Te  Te115  1  0.45062425  0.89229824  0.57485652  1
  Te  Te116  1  0.41952345  0.91267336  0.92037428  1
  Te  Te117  1  0.74703727  0.25016982  0.22930016  1
  Te  Te118  1  0.73230587  0.22725425  0.58717966  1
  Te  Te119  1  0.76344163  0.25984791  0.90459030  1
  Te  Te120  1  0.76022459  0.59179840  0.23883739  1
  Te  Te121  1  0.74967389  0.57778316  0.57155258  1
  Te  Te122  1  0.72234177  0.56352473  0.90992057  1
  Te  Te123  1  0.76249791  0.91631165  0.26010226  1
  Te  Te124  1  0.75358746  0.91038792  0.58378004  1
  Te  Te125  1  0.73518886  0.93203940  0.91659404  1
  Te  Te126  1  0.24881094  0.22854516  0.07116913  1
  Te  Te127  1  0.24797592  0.27011257  0.41590369  1
  Te  Te128  1  0.24330330  0.22960952  0.74763900  1
  Te  Te129  1  0.24245777  0.57215967  0.08869979  1
  Te  Te130  1  0.27311519  0.55772172  0.42981656  1
  Te  Te131  1  0.27273162  0.59840286  0.71081139  1
  Te  Te132  1  0.24511604  0.92672712  0.11138652  1
  Te  Te133  1  0.27602322  0.93200764  0.41743820  1
  Te  Te134  1  0.24792603  0.92171932  0.75155435  1
  Te  Te135  1  0.58356278  0.23692096  0.08095751  1
  Te  Te136  1  0.57683440  0.25132627  0.43042870  1
  Te  Te137  1  0.56426847  0.25650085  0.76612922  1
  Te  Te138  1  0.58388967  0.59358384  0.08851372  1
  Te  Te139  1  0.54894026  0.60197450  0.44173189  1
  Te  Te140  1  0.58114853  0.56706185  0.74279252  1
  Te  Te141  1  0.58965721  0.93443509  0.06403631  1
  Te  Te142  1  0.56154321  0.92383422  0.42643766  1
  Te  Te143  1  0.56823110  0.89888031  0.74055907  1
  Te  Te144  1  0.90827973  0.23985781  0.09987579  1
  Te  Te145  1  0.92991986  0.24737916  0.41790582  1
  Te  Te146  1  0.90565772  0.27053926  0.76900762  1
  Te  Te147  1  0.91080338  0.58952793  0.08020144  1
  Te  Te148  1  0.92754638  0.61167957  0.41012192  1
  Te  Te149  1  0.91100568  0.57379345  0.74326203  1
  Te  Te150  1  0.93525949  0.91621930  0.09118249  1
  Te  Te151  1  0.92250605  0.91292531  0.41311820  1
  Te  Te152  1  0.94265517  0.94566085  0.78756544  1
  Te  Te153  1  0.24877909  0.05933531  0.24523111  1
  Te  Te154  1  0.24471085  0.08252384  0.59121245  1
  Te  Te155  1  0.24248877  0.08649407  0.92493847  1
  Te  Te156  1  0.25714956  0.40669382  0.25210390  1
  Te  Te157  1  0.26152434  0.40990423  0.57289897  1
  Te  Te158  1  0.27086000  0.38323378  0.91380654  1
  Te  Te159  1  0.28054193  0.74421025  0.27340017  1
  Te  Te160  1  0.27353159  0.76576545  0.57367350  1
  Te  Te161  1  0.23213497  0.73655820  0.92827287  1
  Te  Te162  1  0.59066947  0.10180907  0.24395785  1
  Te  Te163  1  0.57098124  0.07852537  0.56398913  1
  Te  Te164  1  0.57656787  0.10785549  0.92033975  1
  Te  Te165  1  0.57194622  0.43602392  0.27155406  1
  Te  Te166  1  0.55229005  0.41780851  0.59327718  1
  Te  Te167  1  0.57257101  0.41501738  0.90302136  1
  Te  Te168  1  0.59267690  0.75482596  0.26000383  1
  Te  Te169  1  0.54199539  0.76307446  0.58786380  1
  Te  Te170  1  0.56984265  0.76036535  0.93265206  1
  Te  Te171  1  0.91416327  0.07846241  0.25097535  1
  Te  Te172  1  0.93309512  0.09672132  0.58555974  1
  Te  Te173  1  0.91083280  0.06140790  0.90892612  1
  Te  Te174  1  0.91203188  0.39913710  0.24809398  1
  Te  Te175  1  0.94201526  0.38649861  0.59549104  1
  Te  Te176  1  0.92604907  0.41639111  0.89853222  1
  Te  Te177  1  0.95143374  0.71446210  0.23197169  1
  Te  Te178  1  0.92933552  0.78093953  0.58474647  1
  Te  Te179  1  0.91826254  0.75053781  0.90990255  1
