# generated using pymatgen
data_In2Te3
_symmetry_space_group_name_H-M   'P 1'
_cell_length_a   18.76309201
_cell_length_b   18.75965386
_cell_length_c   18.76452745
_cell_angle_alpha   90.05959075
_cell_angle_beta   89.91613948
_cell_angle_gamma   90.02505204
_symmetry_Int_Tables_number   1
_chemical_formula_structural   In2Te3
_chemical_formula_sum   'In72 Te108'
_cell_volume   6604.89807002
_cell_formula_units_Z   36
loop_
 _symmetry_equiv_pos_site_id
 _symmetry_equiv_pos_as_xyz
  1  'x, y, z'
loop_
 _atom_site_type_symbol
 _atom_site_label
 _atom_site_symmetry_multiplicity
 _atom_site_fract_x
 _atom_site_fract_y
 _atom_site_fract_z
 _atom_site_occupancy
  In  In0  1  0.17834514  0.85352362  0.01153446  1
  In  In1  1  -0.01613544  0.16304055  0.21503638  1
  In  In2  1  0.18666001  0.65023804  0.20277992  1
  In  In3  1  0.35992255  0.31652577  -0.01577432  1
  In  In4  1  0.34549336  0.01246383  0.65693593  1
  In  In5  1  -0.00328892  0.34463874  -0.01730781  1
  In  In6  1  0.82566596  0.82513190  0.34011650  1
  In  In7  1  0.00566130  0.51796987  0.17856847  1
  In  In8  1  0.66874008  0.49481502  0.84077115  1
  In  In9  1  0.31497723  0.35851283  0.34787648  1
  In  In10  1  0.51669778  0.80766829  0.35626637  1
  In  In11  1  0.83094476  0.00089471  0.50846193  1
  In  In12  1  0.14107392  0.00794954  0.49782094  1
  In  In13  1  0.50818823  0.50028232  0.00708477  1
  In  In14  1  0.65298257  0.82077880  0.19503103  1
  In  In15  1  0.14845066  0.47683906  0.65566771  1
  In  In16  1  0.69679050  -0.00535369  -0.02126273  1
  In  In17  1  0.34806202  0.66382766  0.00801116  1
  In  In18  1  0.49391099  0.15600338  0.34335116  1
  In  In19  1  0.67271121  0.65409477  0.34812081  1
  In  In20  1  0.33272681  0.68221851  0.65794390  1
  In  In21  1  0.13261532  0.19215967  0.64668056  1
  In  In22  1  0.15897842  0.18269802  0.35422750  1
  In  In23  1  0.68738693  0.15427961  0.50286155  1
  In  In24  1  0.32934677  0.16923230  0.15816596  1
  In  In25  1  0.34198157  0.49640871  0.83918714  1
  In  In26  1  0.30261006  -0.00235228  0.01040926  1
  In  In27  1  0.16007221  -0.02483338  0.15359270  1
  In  In28  1  0.67628365  -0.00075469  0.35642208  1
  In  In29  1  0.16964278  0.19643065  0.00551010  1
  In  In30  1  0.02439561  0.85147050  0.16136503  1
  In  In31  1  0.51711077  0.34940128  0.18407574  1
  In  In32  1  0.00071707  0.49119596  0.49966753  1
  In  In33  1  0.66148163  0.64997644  -0.00561323  1
  In  In34  1  0.85894919  0.82681535  -0.00692682  1
  In  In35  1  0.32067177  0.35068604  0.65633669  1
  In  In36  1  -0.01785084  0.65127610  0.64760287  1
  In  In37  1  0.50872919  0.83527760  0.65151507  1
  In  In38  1  0.68727015  0.37205427  0.36107530  1
  In  In39  1  0.33060022  -0.00632165  0.33458924  1
  In  In40  1  0.14549639  0.51754447  0.00169361  1
  In  In41  1  0.49385086  0.34582072  0.49591138  1
  In  In42  1  0.83193121  0.18904502  0.65067434  1
  In  In43  1  0.83287324  0.35147103  0.15622943  1
  In  In44  1  0.66642446  0.16078823  0.80227559  1
  In  In45  1  0.50586538  0.80672161  -0.00148862  1
  In  In46  1  0.15040678  0.33708552  0.82332584  1
  In  In47  1  0.48824469  0.64943369  0.49936997  1
  In  In48  1  0.83678934  0.49298051  0.64692154  1
  In  In49  1  -0.00107881  0.67149470  -0.01188692  1
  In  In50  1  0.81827352  0.65870036  0.17283986  1
  In  In51  1  0.17386940  0.82455261  0.63959602  1
  In  In52  1  -0.00461708  0.33116623  0.35396732  1
  In  In53  1  0.70619016  0.67352076  0.67540740  1
  In  In54  1  0.68260484  -0.00995737  0.65240007  1
  In  In55  1  0.84280951  0.33661371  0.82090453  1
  In  In56  1  -0.00094213  0.00642014  -0.00804506  1
  In  In57  1  0.15705609  0.65904134  0.84019242  1
  In  In58  1  -0.03456133  0.84781149  0.79564603  1
  In  In59  1  0.84065163  0.15933856  -0.00874235  1
  In  In60  1  0.66726264  0.34717972  0.01034864  1
  In  In61  1  0.16792663  0.82888042  0.31455627  1
  In  In62  1  0.50455107  0.18070211  0.66778435  1
  In  In63  1  -0.02365076  0.65781978  0.35291978  1
  In  In64  1  0.51354591  0.49584560  0.66137676  1
  In  In65  1  -0.00302232  0.82512065  0.51080853  1
  In  In66  1  0.49790565  0.00324150  0.15558830  1
  In  In67  1  0.35078706  0.84007134  0.81570950  1
  In  In68  1  0.51273956  0.00357919  0.82151835  1
  In  In69  1  0.48972817  -0.01807304  0.47485980  1
  In  In70  1  0.68211235  0.19952822  0.17056524  1
  In  In71  1  0.15370068  0.02660898  0.83242910  1
  Te  Te72  1  0.08655945  0.09174452  0.08567270  1
  Te  Te73  1  0.05128329  0.10111016  0.42075898  1
  Te  Te74  1  0.06594180  0.08781989  0.73156351  1
  Te  Te75  1  0.07944874  0.41413036  0.09206925  1
  Te  Te76  1  0.10211197  0.41118607  0.42317127  1
  Te  Te77  1  0.05071270  0.41667274  0.74860857  1
  Te  Te78  1  0.10059584  0.73458589  0.08591038  1
  Te  Te79  1  0.08559456  0.74491624  0.41557248  1
  Te  Te80  1  0.08268695  0.74966103  0.74185423  1
  Te  Te81  1  0.41864776  0.09239126  0.06215641  1
  Te  Te82  1  0.39096257  0.09307628  0.43555455  1
  Te  Te83  1  0.40918067  0.10350087  0.76425215  1
  Te  Te84  1  0.41350977  0.41429130  0.09007181  1
  Te  Te85  1  0.43121595  0.44478202  0.39951725  1
  Te  Te86  1  0.42618339  0.40368487  0.75310292  1
  Te  Te87  1  0.42609690  0.74324681  0.10457886  1
  Te  Te88  1  0.40065276  0.74265322  0.42119582  1
  Te  Te89  1  0.44002778  0.73704917  0.75216139  1
  Te  Te90  1  0.75129480  0.08679554  0.09178721  1
  Te  Te91  1  0.78533375  0.10383780  0.39054095  1
  Te  Te92  1  0.77221024  0.06652071  0.74900912  1
  Te  Te93  1  0.73224741  0.44419383  0.10006398  1
  Te  Te94  1  0.77265705  0.46196902  0.44696537  1
  Te  Te95  1  0.74076100  0.40986191  0.73586471  1
  Te  Te96  1  0.74919727  0.76414546  0.08557017  1
  Te  Te97  1  0.76125206  0.73467316  0.43611221  1
  Te  Te98  1  0.74018620  0.77601836  0.77722420  1
  Te  Te99  1  0.09084488  0.26566505  0.24521219  1
  Te  Te100  1  0.05309062  0.28567028  0.55847109  1
  Te  Te101  1  0.06504172  0.23500517  0.90166952  1
  Te  Te102  1  0.09069593  0.57197518  0.29384562  1
  Te  Te103  1  0.09751007  0.59303021  0.56862923  1
  Te  Te104  1  0.05187062  0.56110871  0.88995476  1
  Te  Te105  1  0.07240537  0.94277488  0.27475428  1
  Te  Te106  1  0.06571994  0.92566064  0.60368391  1
  Te  Te107  1  0.07428993  0.90015290  0.90701485  1
  Te  Te108  1  0.41307937  0.25369529  0.25817438  1
  Te  Te109  1  0.40572248  0.24972966  0.57503534  1
  Te  Te110  1  0.40860236  0.21477904  0.89462240  1
  Te  Te111  1  0.38190429  0.54427838  0.26502838  1
  Te  Te112  1  0.39671822  0.56147841  0.58705932  1
  Te  Te113  1  0.43779526  0.59391662  0.90656103  1
  Te  Te114  1  0.44388036  0.91600063  0.26798976  1
  Te  Te115  1  0.39820529  0.90016831  0.56782225  1
  Te  Te116  1  0.41699821  0.92556895  0.92406316  1
  Te  Te117  1  0.76747401  0.27393240  0.27344562  1
  Te  Te118  1  0.74806291  0.27431112  0.56269322  1
  Te  Te119  1  0.74254147  0.24877615  0.91503728  1
  Te  Te120  1  0.76081816  0.56277320  0.26738352  1
  Te  Te121  1  0.73100160  0.56574609  0.56847352  1
  Te  Te122  1  0.76553395  0.57366620  0.92123615  1
  Te  Te123  1  0.75403228  0.92325718  0.24640537  1
  Te  Te124  1  0.77581763  0.88607163  0.59278484  1
  Te  Te125  1  0.76313065  0.89053428  0.89263588  1
  Te  Te126  1  0.25224797  0.28462435  0.09658877  1
  Te  Te127  1  0.24831120  0.26292780  0.44057558  1
  Te  Te128  1  0.24317462  0.25006099  0.74099133  1
  Te  Te129  1  0.25736375  0.57272820  0.08994334  1
  Te  Te130  1  0.29090281  0.54157968  0.38011682  1
  Te  Te131  1  0.24713860  0.57600450  0.74709483  1
  Te  Te132  1  0.28247341  0.89059848  0.11846038  1
  Te  Te133  1  0.23764496  0.91423881  0.42499386  1
  Te  Te134  1  0.24398392  0.92551966  0.74812952  1
  Te  Te135  1  0.57000736  0.24831355  0.07977593  1
  Te  Te136  1  0.59276134  0.24806053  0.41344085  1
  Te  Te137  1  0.59749494  0.27190079  0.73559229  1
  Te  Te138  1  0.58301205  0.58524858  0.10215319  1
  Te  Te139  1  0.56821595  0.56183198  0.40663645  1
  Te  Te140  1  0.59463256  0.59121134  0.74861451  1
  Te  Te141  1  0.59686442  0.91582839  0.07645195  1
  Te  Te142  1  0.61082995  0.89361741  0.44311130  1
  Te  Te143  1  0.60312561  0.90289858  0.75230768  1
  Te  Te144  1  0.92517306  0.24434337  0.09033085  1
  Te  Te145  1  0.94854649  0.23052970  0.45620806  1
  Te  Te146  1  0.93202590  0.24798088  0.74442651  1
  Te  Te147  1  0.91163843  0.58176717  0.07684960  1
  Te  Te148  1  0.88744468  0.57069165  0.43666654  1
  Te  Te149  1  0.89858302  0.58209555  0.74752481  1
  Te  Te150  1  0.91261123  0.93083457  0.09307066  1
  Te  Te151  1  0.92130032  0.91717156  0.41478866  1
  Te  Te152  1  0.86985576  0.92739109  0.71656685  1
  Te  Te153  1  0.24004308  0.08477650  0.24983678  1
  Te  Te154  1  0.23584885  0.09056827  0.58615800  1
  Te  Te155  1  0.25503180  0.10734945  0.91355766  1
  Te  Te156  1  0.25163616  0.45172931  0.24983025  1
  Te  Te157  1  0.23434580  0.41226679  0.55094653  1
  Te  Te158  1  0.23941624  0.41789283  0.92149819  1
  Te  Te159  1  0.28082227  0.74114682  0.27258094  1
  Te  Te160  1  0.24566110  0.73192270  0.54946892  1
  Te  Te161  1  0.25601688  0.75330136  0.91295824  1
  Te  Te162  1  0.59235002  0.08501572  0.24912603  1
  Te  Te163  1  0.57002744  0.07136302  0.57941403  1
  Te  Te164  1  0.59402833  0.09048938  0.91798854  1
  Te  Te165  1  0.59385682  0.44471948  0.26892212  1
  Te  Te166  1  0.60022690  0.41342507  0.57300374  1
  Te  Te167  1  0.56718316  0.40024506  0.90802606  1
  Te  Te168  1  0.56369028  0.71077969  0.24687652  1
  Te  Te169  1  0.59142462  0.73023878  0.58141505  1
  Te  Te170  1  0.60189807  0.75122484  0.90169655  1
  Te  Te171  1  0.88132653  0.07564535  0.26752512  1
  Te  Te172  1  0.92329883  0.09513770  0.57722472  1
  Te  Te173  1  0.91473944  0.07657979  0.89415403  1
  Te  Te174  1  0.91557414  0.42689813  0.26255678  1
  Te  Te175  1  0.93373919  0.39037580  0.59112925  1
  Te  Te176  1  0.88364448  0.42545446  0.93363401  1
  Te  Te177  1  0.93061462  0.75124786  0.23833502  1
  Te  Te178  1  0.89001031  0.74905642  0.58257992  1
  Te  Te179  1  0.90820886  0.73297669  0.88077977  1
