# generated using pymatgen
data_In2Te3
_symmetry_space_group_name_H-M   'P 1'
_cell_length_a   18.88134964
_cell_length_b   18.88685785
_cell_length_c   18.87082431
_cell_angle_alpha   89.97682071
_cell_angle_beta   89.97910953
_cell_angle_gamma   90.12061015
_symmetry_Int_Tables_number   1
_chemical_formula_structural   In2Te3
_chemical_formula_sum   'In72 Te108'
_cell_volume   6729.49679406
_cell_formula_units_Z   36
loop_
 _symmetry_equiv_pos_site_id
 _symmetry_equiv_pos_as_xyz
  1  'x, y, z'
loop_
 _atom_site_type_symbol
 _atom_site_label
 _atom_site_symmetry_multiplicity
 _atom_site_fract_x
 _atom_site_fract_y
 _atom_site_fract_z
 _atom_site_occupancy
  In  In0  1  0.02139502  0.82507747  0.49859366  1
  In  In1  1  0.83295332  0.01269224  0.19141227  1
  In  In2  1  0.18530019  0.00037672  0.16519277  1
  In  In3  1  0.81324600  0.01023542  0.80890478  1
  In  In4  1  -0.01298898  0.00049484  -0.00511207  1
  In  In5  1  0.15371516  0.80923174  0.00840627  1
  In  In6  1  0.01227925  0.01263125  0.63517390  1
  In  In7  1  0.16648202  0.80187673  0.33541814  1
  In  In8  1  0.15519872  0.34304733  0.83272729  1
  In  In9  1  0.66152701  0.33879165  0.34160707  1
  In  In10  1  0.84269035  0.85023433  0.65325021  1
  In  In11  1  0.82684668  0.67668686  0.18491854  1
  In  In12  1  0.82138780  0.01568071  0.49767857  1
  In  In13  1  0.34727418  0.65301068  0.64520541  1
  In  In14  1  0.19255109  0.17053139  0.64886720  1
  In  In15  1  0.65546758  -0.00684902  -0.01646798  1
  In  In16  1  0.50654531  0.83549952  0.32175092  1
  In  In17  1  0.33416865  0.51156401  0.18734845  1
  In  In18  1  0.51993636  0.46681747  0.63397884  1
  In  In19  1  -0.01424396  0.17087043  0.17393878  1
  In  In20  1  0.87594540  0.68903847  0.82656194  1
  In  In21  1  0.49248085  0.84163870  0.65695766  1
  In  In22  1  0.51733024  0.63228280  0.47499926  1
  In  In23  1  0.84587698  0.49168154  0.33760260  1
  In  In24  1  0.32148325  -0.00541747  -0.02421885  1
  In  In25  1  0.00392489  0.64446561  0.00718973  1
  In  In26  1  0.14965057  0.21212184  -0.00064003  1
  In  In27  1  0.35280152  0.18147396  0.48805412  1
  In  In28  1  0.33502293  0.48606159  0.81879849  1
  In  In29  1  0.81780355  0.49968533  0.63790803  1
  In  In30  1  0.31606128  0.84020737  0.84277988  1
  In  In31  1  0.83594950  0.65492598  0.48382256  1
  In  In32  1  0.64623730  0.48588571  0.17717421  1
  In  In33  1  0.67926353  0.82015432  0.50439450  1
  In  In34  1  0.32883467  0.65209212  0.34258703  1
  In  In35  1  0.48944152  0.01870017  0.81139125  1
  In  In36  1  0.65551569  0.84510877  0.85058879  1
  In  In37  1  0.49933809  0.64226865  0.83282390  1
  In  In38  1  0.03970701  0.64521960  0.64448148  1
  In  In39  1  0.00974681  0.50737488  0.84388376  1
  In  In40  1  0.70447828  0.65846765  0.65294148  1
  In  In41  1  -0.01195371  0.31643501  0.34014120  1
  In  In42  1  0.36031042  0.19183204  0.21536230  1
  In  In43  1  0.16646414  0.35143280  0.18482293  1
  In  In44  1  0.00095217  0.81161594  0.17012715  1
  In  In45  1  0.64878735  0.19237819  0.16551506  1
  In  In46  1  -0.00763800  0.17250349  0.50638860  1
  In  In47  1  0.02224555  0.35697153  0.02497136  1
  In  In48  1  0.64880086  0.13187531  0.62653533  1
  In  In49  1  0.66355378  0.82053717  0.17665276  1
  In  In50  1  0.45778415  0.79113656  0.02253367  1
  In  In51  1  -0.02564071  0.35600603  0.67440602  1
  In  In52  1  0.33409240  0.32910216  -0.01143148  1
  In  In53  1  0.34424388  0.34381118  0.63746821  1
  In  In54  1  0.16476088  0.51644280  0.33546210  1
  In  In55  1  0.81463308  0.16594938  -0.01352993  1
  In  In56  1  0.81180623  0.35380491  0.17205518  1
  In  In57  1  0.65856272  0.49383145  0.84225396  1
  In  In58  1  0.18042101  0.34493006  0.49610279  1
  In  In59  1  0.67163957  0.63760937  0.01934724  1
  In  In60  1  0.49540018  0.15984294  0.01311536  1
  In  In61  1  0.81416176  0.50994139  0.01425191  1
  In  In62  1  0.16070961  -0.01162176  0.79661807  1
  In  In63  1  0.66087408  0.01462588  0.34251307  1
  In  In64  1  0.34012078  0.14114247  0.81620256  1
  In  In65  1  0.32896683  0.83962727  0.50759280  1
  In  In66  1  0.49905250  -0.00088448  0.17371561  1
  In  In67  1  0.00976418  0.80313143  0.82074134  1
  In  In68  1  0.33608059  -0.00807253  0.34308580  1
  In  In69  1  0.49437054  0.49196241  0.00629753  1
  In  In70  1  0.81584648  0.33053237  0.83121821  1
  In  In71  1  0.01050181  -0.00371826  0.36466447  1
  Te  Te72  1  0.07987215  0.08801356  0.08365126  1
  Te  Te73  1  0.09617997  0.08758674  0.44311392  1
  Te  Te74  1  0.08318378  0.10200603  0.73818418  1
  Te  Te75  1  0.10924942  0.45895031  0.09569598  1
  Te  Te76  1  0.07519598  0.41691626  0.41324321  1
  Te  Te77  1  0.08970860  0.43750014  0.73518176  1
  Te  Te78  1  0.10059029  0.71160915  0.11439038  1
  Te  Te79  1  0.06467388  0.71983969  0.40339629  1
  Te  Te80  1  0.10981160  0.73985498  0.73495907  1
  Te  Te81  1  0.39413729  0.07631882  0.08971287  1
  Te  Te82  1  0.43622178  0.07722177  0.41317463  1
  Te  Te83  1  0.42875431  0.10065836  0.70220340  1
  Te  Te84  1  0.40658143  0.40570067  0.09633274  1
  Te  Te85  1  0.46618163  0.35869165  0.44289551  1
  Te  Te86  1  0.44055398  0.40314185  0.74774791  1
  Te  Te87  1  0.38346043  0.71291371  0.12382661  1
  Te  Te88  1  0.42431513  0.75008413  0.42620152  1
  Te  Te89  1  0.42035079  0.74961480  0.75899083  1
  Te  Te90  1  0.73274677  0.07548680  0.09327899  1
  Te  Te91  1  0.73911293  0.11211648  0.42233434  1
  Te  Te92  1  0.72014590  0.11534826  0.76322096  1
  Te  Te93  1  0.71562220  0.40701142  0.06662939  1
  Te  Te94  1  0.77906574  0.38712806  0.42099223  1
  Te  Te95  1  0.73254142  0.41675200  0.73309692  1
  Te  Te96  1  0.75503149  0.75275564  0.07399845  1
  Te  Te97  1  0.75040814  0.74284913  0.40300023  1
  Te  Te98  1  0.75245331  0.76643572  0.75332094  1
  Te  Te99  1  0.09168727  0.23913217  0.25854433  1
  Te  Te100  1  0.08455967  0.26543518  0.59278623  1
  Te  Te101  1  0.04601262  0.26320681  0.90210320  1
  Te  Te102  1  0.10105380  0.56408144  0.21253271  1
  Te  Te103  1  0.12749661  0.56369279  0.55848235  1
  Te  Te104  1  0.10352664  0.59959442  0.90892782  1
  Te  Te105  1  0.08434024  0.92141979  0.24833437  1
  Te  Te106  1  0.09871543  0.90168766  0.59700452  1
  Te  Te107  1  0.09285807  0.92098560  0.91580488  1
  Te  Te108  1  0.43003432  0.28548258  0.30669253  1
  Te  Te109  1  0.43436172  0.23024054  0.60716132  1
  Te  Te110  1  0.42052313  0.23811287  0.90322756  1
  Te  Te111  1  0.42796283  0.55373505  0.29522382  1
  Te  Te112  1  0.41906404  0.55031883  0.55521803  1
  Te  Te113  1  0.39894946  0.58165994  0.92767618  1
  Te  Te114  1  0.39976835  0.90290154  0.23709359  1
  Te  Te115  1  0.42230569  0.93587012  0.57058649  1
  Te  Te116  1  0.43847194  0.91431474  0.91779637  1
  Te  Te117  1  0.75692071  0.24330627  0.25774326  1
  Te  Te118  1  0.70533739  0.27100237  0.60645371  1
  Te  Te119  1  0.72385295  0.26301482  0.92610818  1
  Te  Te120  1  0.74132882  0.57252931  0.25856369  1
  Te  Te121  1  0.71463772  0.55791526  0.53291125  1
  Te  Te122  1  0.76246171  0.59762578  0.89404908  1
  Te  Te123  1  0.74689233  0.91255424  0.26679485  1
  Te  Te124  1  0.73270539  0.93379944  0.59327300  1
  Te  Te125  1  0.77100911  0.91618373  0.92243422  1
  Te  Te126  1  0.25618700  0.24850822  0.10244150  1
  Te  Te127  1  0.25974634  0.26165187  0.40405557  1
  Te  Te128  1  0.25972940  0.26403105  0.75633402  1
  Te  Te129  1  0.29519118  0.60134387  0.07647256  1
  Te  Te130  1  0.23074904  0.59837030  0.44476622  1
  Te  Te131  1  0.25958085  0.58475941  0.74245245  1
  Te  Te132  1  0.25735369  0.89990002  0.07759226  1
  Te  Te133  1  0.22888593  0.91285856  0.41726294  1
  Te  Te134  1  0.28059084  0.93348176  0.73511417  1
  Te  Te135  1  0.54835996  0.27070728  0.09409937  1
  Te  Te136  1  0.57043172  0.24668169  0.42788229  1
  Te  Te137  1  0.61422946  0.24182218  0.72403626  1
  Te  Te138  1  0.55843203  0.58985042  0.10565969  1
  Te  Te139  1  0.62728702  0.56368454  0.40879134  1
  Te  Te140  1  0.58642248  0.57893321  0.72575058  1
  Te  Te141  1  0.57465793  0.90370579  0.08058475  1
  Te  Te142  1  0.58385681  0.91228598  0.42648303  1
  Te  Te143  1  0.58969391  0.92719108  0.74144371  1
  Te  Te144  1  0.90483463  0.25682194  0.07850716  1
  Te  Te145  1  0.89239449  0.25965988  0.43937788  1
  Te  Te146  1  0.89590266  0.25029948  0.73838659  1
  Te  Te147  1  0.91204202  0.57538347  0.10811723  1
  Te  Te148  1  0.94007372  0.58226750  0.40883597  1
  Te  Te149  1  0.91799375  0.57571998  0.73418758  1
  Te  Te150  1  0.91384697  0.92096870  0.10155106  1
  Te  Te151  1  0.90793572  0.90854726  0.43358698  1
  Te  Te152  1  0.93207710  0.92069996  0.75450311  1
  Te  Te153  1  0.25297688  0.09317372  0.26452248  1
  Te  Te154  1  0.25232187  0.08496141  0.54761777  1
  Te  Te155  1  0.22950063  0.10279570  0.91947966  1
  Te  Te156  1  0.26415534  0.41203564  0.28322783  1
  Te  Te157  1  0.24372640  0.44276486  0.59090267  1
  Te  Te158  1  0.23663044  0.42730792  0.92869075  1
  Te  Te159  1  0.26282508  0.74052478  0.24157412  1
  Te  Te160  1  0.24727879  0.74345898  0.58492044  1
  Te  Te161  1  0.24945942  0.73709160  0.92248215  1
  Te  Te162  1  0.56675421  0.10284976  0.25882242  1
  Te  Te163  1  0.57032562  0.10579298  0.50083428  1
  Te  Te164  1  0.58265899  0.09814466  0.90431506  1
  Te  Te165  1  0.55373721  0.40820581  0.26431472  1
  Te  Te166  1  0.58818917  0.37771569  0.53414415  1
  Te  Te167  1  0.56327720  0.40526338  0.90853147  1
  Te  Te168  1  0.57850976  0.72865095  0.25246510  1
  Te  Te169  1  0.57923558  0.73512935  0.58693048  1
  Te  Te170  1  0.58323552  0.73229551  0.92674482  1
  Te  Te171  1  0.91884134  0.09310001  0.28652408  1
  Te  Te172  1  0.89374844  0.09915072  0.60256123  1
  Te  Te173  1  0.91360051  0.09125152  0.89907558  1
  Te  Te174  1  0.93350579  0.41466621  0.23588521  1
  Te  Te175  1  0.92107243  0.43115427  0.55937234  1
  Te  Te176  1  0.90983191  0.42710945  0.92666326  1
  Te  Te177  1  0.91779332  0.75026308  0.27439914  1
  Te  Te178  1  0.91930888  0.73540462  0.59180411  1
  Te  Te179  1  0.93105699  0.76397208  0.94720702  1
