# generated using pymatgen
data_In2Te3
_symmetry_space_group_name_H-M   'P 1'
_cell_length_a   18.86427160
_cell_length_b   18.85257994
_cell_length_c   18.85202705
_cell_angle_alpha   90.01600380
_cell_angle_beta   89.89603946
_cell_angle_gamma   90.04797931
_symmetry_Int_Tables_number   1
_chemical_formula_structural   In2Te3
_chemical_formula_sum   'In72 Te108'
_cell_volume   6704.52480331
_cell_formula_units_Z   36
loop_
 _symmetry_equiv_pos_site_id
 _symmetry_equiv_pos_as_xyz
  1  'x, y, z'
loop_
 _atom_site_type_symbol
 _atom_site_label
 _atom_site_symmetry_multiplicity
 _atom_site_fract_x
 _atom_site_fract_y
 _atom_site_fract_z
 _atom_site_occupancy
  In  In0  1  -0.00987191  0.17326393  0.50908843  1
  In  In1  1  -0.01741544  0.84247858  0.49498386  1
  In  In2  1  0.65627862  -0.00252050  0.66939319  1
  In  In3  1  0.50250678  0.45809932  0.01588090  1
  In  In4  1  0.67190096  0.46646583  0.15438866  1
  In  In5  1  0.21186249  0.18491346  0.68975706  1
  In  In6  1  -0.02460834  0.00465449  0.68415148  1
  In  In7  1  0.80531855  0.84686512  -0.02886966  1
  In  In8  1  0.16831333  0.18566688  0.32981907  1
  In  In9  1  0.51767616  0.67650868  0.16259006  1
  In  In10  1  0.83327272  0.67051042  0.16124990  1
  In  In11  1  0.17435515  0.02062063  0.51052653  1
  In  In12  1  0.51104073  0.82613691  -0.00463707  1
  In  In13  1  0.81661301  0.49745841  0.67515973  1
  In  In14  1  0.16936371  0.33555117  0.16515542  1
  In  In15  1  0.16221052  0.36404765  0.50334856  1
  In  In16  1  0.68212489  0.51203120  0.49224325  1
  In  In17  1  0.34215278  0.32094148  0.33444685  1
  In  In18  1  0.66261328  0.65364515  -0.05946772  1
  In  In19  1  0.63604008  0.67132313  0.30882833  1
  In  In20  1  0.64959716  0.85027358  0.50304750  1
  In  In21  1  0.31314950  0.01969601  -0.00007848  1
  In  In22  1  -0.00593575  0.47628412  0.18953328  1
  In  In23  1  0.15291058  0.01881912  0.15945793  1
  In  In24  1  0.81345333  0.32992152  0.83331565  1
  In  In25  1  0.79471346  0.16884159  0.66718900  1
  In  In26  1  0.01406850  0.66768437  0.64108083  1
  In  In27  1  0.18857440  0.84255049  -0.00207044  1
  In  In28  1  0.35814501  0.49210080  0.13606033  1
  In  In29  1  0.17901314  0.83839131  0.32888431  1
  In  In30  1  0.35704054  0.70346272  0.35853574  1
  In  In31  1  0.65095912  0.00307979  -0.02090779  1
  In  In32  1  0.51211480  0.17297745  0.01288470  1
  In  In33  1  -0.00452822  0.49510724  0.83068288  1
  In  In34  1  0.17089141  0.49117549  -0.00002888  1
  In  In35  1  0.18119573  0.83528693  0.67087219  1
  In  In36  1  0.33294679  0.35675459  0.01158909  1
  In  In37  1  -0.02046853  0.02967843  0.02983272  1
  In  In38  1  0.00972099  0.68042720  0.32702319  1
  In  In39  1  0.33305163  0.67511269  0.66022863  1
  In  In40  1  0.00790080  0.84321802  0.16706667  1
  In  In41  1  0.52408720  0.30071278  0.82780433  1
  In  In42  1  0.32094544  0.48187461  0.85362064  1
  In  In43  1  0.83659836  0.47425156  0.01867858  1
  In  In44  1  0.64154701  0.79770219  0.16723973  1
  In  In45  1  0.66504962  0.02549649  0.32278740  1
  In  In46  1  0.51662549  0.29923897  0.49195483  1
  In  In47  1  0.80413889  0.87139877  0.37060164  1
  In  In48  1  0.82217210  0.17151253  0.32616811  1
  In  In49  1  0.49812734  0.48317707  0.65799243  1
  In  In50  1  0.84059116  0.47302917  0.32644917  1
  In  In51  1  0.34602667  0.83015135  0.84778638  1
  In  In52  1  0.15848303  -0.00298156  0.83651513  1
  In  In53  1  -0.01285225  0.33707259  0.64625415  1
  In  In54  1  0.36629965  -0.02766632  0.33288562  1
  In  In55  1  0.33252509  0.66593525  -0.00845252  1
  In  In56  1  -0.00863326  0.85047702  0.82204065  1
  In  In57  1  0.83935817  0.66352983  0.49837149  1
  In  In58  1  0.36637733  0.14824376  0.50746042  1
  In  In59  1  0.49461701  0.68119870  0.82864679  1
  In  In60  1  0.50767355  0.50080176  0.33230675  1
  In  In61  1  0.02041452  0.19085534  0.85596488  1
  In  In62  1  0.47472907  0.00871628  0.66093170  1
  In  In63  1  0.15838668  0.50567438  0.66851956  1
  In  In64  1  0.15604558  0.50249770  0.34162378  1
  In  In65  1  0.01461834  0.68840615  -0.00795534  1
  In  In66  1  0.35396792  0.17043751  0.18530872  1
  In  In67  1  0.81470800  0.32006948  0.52007967  1
  In  In68  1  0.81865752  0.02479281  0.18181813  1
  In  In69  1  0.65228658  0.48747384  0.82304913  1
  In  In70  1  0.84491700  0.18316570  -0.01930877  1
  In  In71  1  0.30722097  0.49828300  0.50807972  1
  Te  Te72  1  0.08818085  0.11995938  0.07186808  1
  Te  Te73  1  0.08040373  0.09245436  0.41617188  1
  Te  Te74  1  0.08640311  0.09438717  0.74150518  1
  Te  Te75  1  0.06733178  0.40612619  0.07330857  1
  Te  Te76  1  0.06846847  0.39745637  0.39579360  1
  Te  Te77  1  0.08113235  0.39963696  0.74824963  1
  Te  Te78  1  0.10665746  0.75356780  0.09434277  1
  Te  Te79  1  0.09017429  0.75793844  0.42875086  1
  Te  Te80  1  0.08271809  0.75072961  0.75074172  1
  Te  Te81  1  0.42310258  0.07419864  0.09116943  1
  Te  Te82  1  0.45209948  0.05837621  0.42324273  1
  Te  Te83  1  0.45077921  0.10657317  0.77406925  1
  Te  Te84  1  0.44438978  0.36933187  0.12381263  1
  Te  Te85  1  0.41594152  0.41634039  0.42948108  1
  Te  Te86  1  0.43012979  0.41087361  0.77331279  1
  Te  Te87  1  0.40937645  0.75645342  0.08521333  1
  Te  Te88  1  0.43093814  0.78020358  0.46165397  1
  Te  Te89  1  0.42470871  0.77440894  0.73016345  1
  Te  Te90  1  0.75449785  0.08380666  0.06002241  1
  Te  Te91  1  0.75610786  0.08171468  0.42478396  1
  Te  Te92  1  0.72140150  0.09110162  0.77026002  1
  Te  Te93  1  0.74794860  0.36516550  0.07208346  1
  Te  Te94  1  0.73814781  0.39803075  0.40823676  1
  Te  Te95  1  0.72202253  0.38923566  0.72644586  1
  Te  Te96  1  0.73848660  0.73267583  0.05866574  1
  Te  Te97  1  0.74063048  0.73759417  0.40677663  1
  Te  Te98  1  0.71651809  0.71935956  0.81979136  1
  Te  Te99  1  0.07330735  0.25433573  0.24212506  1
  Te  Te100  1  0.10101529  0.24239089  0.59010494  1
  Te  Te101  1  0.08953644  0.26730078  0.95715840  1
  Te  Te102  1  0.08844173  0.58850332  0.23516630  1
  Te  Te103  1  0.08456623  0.56852520  0.55851778  1
  Te  Te104  1  0.09091030  0.58436100  0.90907666  1
  Te  Te105  1  0.07841738  0.93512302  0.26366508  1
  Te  Te106  1  0.07943651  0.92830988  0.59210921  1
  Te  Te107  1  0.07201173  0.92181329  0.93993696  1
  Te  Te108  1  0.44569493  0.21748356  0.29638383  1
  Te  Te109  1  0.41744320  0.25792574  0.59580785  1
  Te  Te110  1  0.41349134  0.25551832  0.92660016  1
  Te  Te111  1  0.41820313  0.58768755  0.24426339  1
  Te  Te112  1  0.41726966  0.58097937  0.57399707  1
  Te  Te113  1  0.43362519  0.57116123  0.92630832  1
  Te  Te114  1  0.45605013  0.91146241  0.23467416  1
  Te  Te115  1  0.44193947  0.89771395  0.56500037  1
  Te  Te116  1  0.41868465  0.93192577  0.92996164  1
  Te  Te117  1  0.70193701  0.22132841  0.24845542  1
  Te  Te118  1  0.71428906  0.21308169  0.54919599  1
  Te  Te119  1  0.73136628  0.21943389  0.88993503  1
  Te  Te120  1  0.74726259  0.57690094  0.24673486  1
  Te  Te121  1  0.73866262  0.60579403  0.59883232  1
  Te  Te122  1  0.76964953  0.54831322  0.90321504  1
  Te  Te123  1  0.73757972  0.90029819  0.23739596  1
  Te  Te124  1  0.75029411  0.92081050  0.58314123  1
  Te  Te125  1  0.75163282  0.95075907  0.88076663  1
  Te  Te126  1  0.26195808  0.24266024  0.08860860  1
  Te  Te127  1  0.25767805  0.24824511  0.44044291  1
  Te  Te128  1  0.28976382  0.23051161  0.80361792  1
  Te  Te129  1  0.24759268  0.58672006  0.08999151  1
  Te  Te130  1  0.25170092  0.59873901  0.40917650  1
  Te  Te131  1  0.25717113  0.58098647  0.75705782  1
  Te  Te132  1  0.25834129  0.92226196  0.10609919  1
  Te  Te133  1  0.25820203  0.92144879  0.43103172  1
  Te  Te134  1  0.26768088  0.92644711  0.75667660  1
  Te  Te135  1  0.60255966  0.22851382  0.11678800  1
  Te  Te136  1  0.57978114  0.23290028  0.37585807  1
  Te  Te137  1  0.54160781  0.21252040  0.70499488  1
  Te  Te138  1  0.59245460  0.57519263  0.07327759  1
  Te  Te139  1  0.57351944  0.59865422  0.42864389  1
  Te  Te140  1  0.57664534  0.58934756  0.73655221  1
  Te  Te141  1  0.58503280  0.92015516  0.08924879  1
  Te  Te142  1  0.57653745  0.95233365  0.42003784  1
  Te  Te143  1  0.55689054  0.91435482  0.74447692  1
  Te  Te144  1  0.88140733  0.27073888  0.09322156  1
  Te  Te145  1  0.91247505  0.26375719  0.41801918  1
  Te  Te146  1  0.91190124  0.24523499  0.74179592  1
  Te  Te147  1  0.93146328  0.58582920  0.08040501  1
  Te  Te148  1  0.92215442  0.57978274  0.40162140  1
  Te  Te149  1  0.92069916  0.58924182  0.73871942  1
  Te  Te150  1  0.89866241  0.90618904  0.08113609  1
  Te  Te151  1  0.92215486  0.94652088  0.41153197  1
  Te  Te152  1  0.88096059  0.90748088  0.74287985  1
  Te  Te153  1  0.25894773  0.07858003  0.26618340  1
  Te  Te154  1  0.27784397  0.07301686  0.60933936  1
  Te  Te155  1  0.24092216  0.10549307  0.90139664  1
  Te  Te156  1  0.26338638  0.42495612  0.25386810  1
  Te  Te157  1  0.25933179  0.40186646  0.61535644  1
  Te  Te158  1  0.21746512  0.38027977  0.90507770  1
  Te  Te159  1  0.27128902  0.75439657  0.25122519  1
  Te  Te160  1  0.24410051  0.74957638  0.57006742  1
  Te  Te161  1  0.23665034  0.73773521  0.89806053  1
  Te  Te162  1  0.60247087  0.10385729  0.21288131  1
  Te  Te163  1  0.57890046  0.10160701  0.59028223  1
  Te  Te164  1  0.55323001  0.08415860  0.89738656  1
  Te  Te165  1  0.59372236  0.40393812  0.26275138  1
  Te  Te166  1  0.59439716  0.40937961  0.56684611  1
  Te  Te167  1  0.60303970  0.38703119  0.92813022  1
  Te  Te168  1  0.53847105  0.78983114  0.28519028  1
  Te  Te169  1  0.54443616  0.77115272  0.57096883  1
  Te  Te170  1  0.59553707  0.80012645  0.86738865  1
  Te  Te171  1  0.92523424  0.10332919  0.24235736  1
  Te  Te172  1  0.89393165  0.08348710  0.58402607  1
  Te  Te173  1  0.92572131  0.07926459  0.89731463  1
  Te  Te174  1  0.88831554  0.37540558  0.22282246  1
  Te  Te175  1  0.90533789  0.43635273  0.56723539  1
  Te  Te176  1  0.92164026  0.39524106  0.91796043  1
  Te  Te177  1  0.90551680  0.76583474  0.25614095  1
  Te  Te178  1  0.90162256  0.76237393  0.59591994  1
  Te  Te179  1  0.90748749  0.74965104  0.90600547  1
