# generated using pymatgen
data_In2Te3
_symmetry_space_group_name_H-M   'P 1'
_cell_length_a   18.82918353
_cell_length_b   18.81531112
_cell_length_c   18.81952248
_cell_angle_alpha   90.03955053
_cell_angle_beta   90.02224989
_cell_angle_gamma   89.97169851
_symmetry_Int_Tables_number   1
_chemical_formula_structural   In2Te3
_chemical_formula_sum   'In72 Te108'
_cell_volume   6667.32005078
_cell_formula_units_Z   36
loop_
 _symmetry_equiv_pos_site_id
 _symmetry_equiv_pos_as_xyz
  1  'x, y, z'
loop_
 _atom_site_type_symbol
 _atom_site_label
 _atom_site_symmetry_multiplicity
 _atom_site_fract_x
 _atom_site_fract_y
 _atom_site_fract_z
 _atom_site_occupancy
  In  In0  1  0.51645372  0.67687043  0.16066044  1
  In  In1  1  0.54356865  -0.03874264  0.13975264  1
  In  In2  1  0.18175486  0.17591361  0.66453249  1
  In  In3  1  0.32709184  0.15304724  0.19167532  1
  In  In4  1  -0.00976657  0.14706512  0.15907593  1
  In  In5  1  0.84131611  -0.01984837  0.81740736  1
  In  In6  1  0.50321620  0.81125276  0.32559356  1
  In  In7  1  0.65414123  0.15398131  0.50567080  1
  In  In8  1  0.51333009  -0.02242261  0.49166538  1
  In  In9  1  0.67259537  0.33209110  0.01067655  1
  In  In10  1  0.50541083  0.33146518  0.51879894  1
  In  In11  1  -0.00976605  0.51937713  0.16795923  1
  In  In12  1  0.31815384  -0.02029999  0.34317191  1
  In  In13  1  0.32077844  -0.01106350  0.01787785  1
  In  In14  1  0.30618812  0.50072227  0.50551361  1
  In  In15  1  0.33004653  -0.00085894  0.67574396  1
  In  In16  1  0.34232792  0.16078719  0.51658161  1
  In  In17  1  0.15893983  0.66450598  0.49682125  1
  In  In18  1  -0.01291090  0.51331527  0.48545882  1
  In  In19  1  0.31420043  0.50958599  0.83066640  1
  In  In20  1  0.01747959  0.16093449  0.51223574  1
  In  In21  1  -0.00204399  -0.03854122  0.32471964  1
  In  In22  1  0.50204614  0.33928811  0.13832408  1
  In  In23  1  0.82596337  0.15333209  0.32495177  1
  In  In24  1  0.15900086  0.50106797  0.66347842  1
  In  In25  1  0.17269769  0.82495499  0.32067211  1
  In  In26  1  0.67719447  0.80140446  0.86335620  1
  In  In27  1  0.17494182  0.14948763  -0.00762367  1
  In  In28  1  0.85719606  0.00059224  0.48515484  1
  In  In29  1  0.81405484  0.15790229  0.02207595  1
  In  In30  1  -0.02213986  0.67429321  0.32750040  1
  In  In31  1  0.82836351  0.81601757  0.00762862  1
  In  In32  1  0.16484043  0.32390600  0.17415961  1
  In  In33  1  0.89064244  0.83960313  0.67386044  1
  In  In34  1  0.68066280  0.50776124  0.17379944  1
  In  In35  1  0.84772009  0.66038492  0.82226863  1
  In  In36  1  0.49491197  0.67752848  0.49795207  1
  In  In37  1  0.66530952  0.17419671  0.85645409  1
  In  In38  1  0.70756792  0.64792766  0.64546370  1
  In  In39  1  0.48552177  0.51055591  0.01156356  1
  In  In40  1  -0.00287318  -0.04087926  -0.00973183  1
  In  In41  1  0.66587756  -0.00016981  0.65104902  1
  In  In42  1  0.65872340  0.35513243  0.68303598  1
  In  In43  1  0.83859806  0.36018089  0.49534444  1
  In  In44  1  0.49322881  0.16918043  -0.01043533  1
  In  In45  1  0.68232114  0.52862050  0.83426726  1
  In  In46  1  0.16304927  0.11846073  0.34214247  1
  In  In47  1  0.49480463  0.00824446  0.83766733  1
  In  In48  1  0.52490247  0.50653791  0.68608455  1
  In  In49  1  0.69537894  0.80398578  0.48541453  1
  In  In50  1  0.84539736  0.18003358  0.65827223  1
  In  In51  1  0.83345180  0.67238971  0.17033988  1
  In  In52  1  0.31390569  0.67208842  0.66466538  1
  In  In53  1  0.85274889  0.35166196  0.18095055  1
  In  In54  1  0.51950035  0.53329314  0.32763709  1
  In  In55  1  0.16459003  0.34342939  0.82369920  1
  In  In56  1  0.69767959  0.33137948  0.33946039  1
  In  In57  1  -0.00591414  0.17341582  0.83337814  1
  In  In58  1  0.49147807  0.84272517  0.67467890  1
  In  In59  1  0.14388893  0.53081071  0.32633763  1
  In  In60  1  0.15305966  0.52635166  -0.00070198  1
  In  In61  1  -0.02015457  0.38254730  -0.04216242  1
  In  In62  1  0.16591316  -0.01263888  0.83910601  1
  In  In63  1  0.49824895  0.32998492  0.83883456  1
  In  In64  1  0.31854786  0.67437431  -0.00962721  1
  In  In65  1  0.32521054  0.83950514  0.16868317  1
  In  In66  1  -0.01780899  0.34213237  0.32087109  1
  In  In67  1  0.32211353  0.35259149  0.33905236  1
  In  In68  1  0.16131132  0.31641093  0.51525261  1
  In  In69  1  0.32124591  0.83819274  0.84265666  1
  In  In70  1  0.51760330  0.14148703  0.29987185  1
  In  In71  1  0.01174433  0.69845748  0.01875177  1
  Te  Te72  1  0.08301393  0.06125877  0.07397186  1
  Te  Te73  1  0.07368830  0.04037367  0.43526596  1
  Te  Te74  1  0.09007231  0.08812743  0.75161500  1
  Te  Te75  1  0.06938495  0.41301255  0.09277942  1
  Te  Te76  1  0.09416526  0.41357177  0.41575954  1
  Te  Te77  1  0.06587984  0.43529049  0.76101278  1
  Te  Te78  1  0.09841827  0.78905449  0.09991975  1
  Te  Te79  1  0.06986858  0.75718704  0.41529970  1
  Te  Te80  1  0.02610915  0.74912602  0.71223862  1
  Te  Te81  1  0.42199662  0.07813166  0.09624007  1
  Te  Te82  1  0.42246747  0.08411304  0.40992463  1
  Te  Te83  1  0.41640835  0.09382987  0.74799293  1
  Te  Te84  1  0.39412223  0.42040293  0.08244199  1
  Te  Te85  1  0.42267033  0.42973444  0.42457225  1
  Te  Te86  1  0.41542945  0.42406499  0.75097421  1
  Te  Te87  1  0.41575964  0.75737862  0.07668784  1
  Te  Te88  1  0.40271972  0.76112832  0.42023196  1
  Te  Te89  1  0.41142487  0.74594633  0.75809465  1
  Te  Te90  1  0.74466767  0.04746796  0.09423645  1
  Te  Te91  1  0.73706446  0.06655856  0.41378038  1
  Te  Te92  1  0.74916128  0.08800070  0.74899919  1
  Te  Te93  1  0.76976215  0.42885062  0.07729210  1
  Te  Te94  1  0.74460346  0.44455184  0.41954107  1
  Te  Te95  1  0.76320562  0.43205067  0.75289288  1
  Te  Te96  1  0.72511500  0.76633703  0.11015082  1
  Te  Te97  1  0.77628691  0.72265638  0.39217861  1
  Te  Te98  1  0.75972616  0.76531187  0.73748469  1
  Te  Te99  1  0.07922124  0.22766859  0.26252639  1
  Te  Te100  1  0.06265080  0.26241497  0.61634139  1
  Te  Te101  1  0.08192474  0.25508109  0.93193482  1
  Te  Te102  1  0.08418750  0.62440865  0.22429839  1
  Te  Te103  1  0.06222493  0.59393780  0.59302110  1
  Te  Te104  1  0.06535962  0.60746754  0.91359660  1
  Te  Te105  1  0.08299056  0.89371237  0.21986902  1
  Te  Te106  1  0.03716041  0.86868056  0.61969813  1
  Te  Te107  1  0.09409148  0.87743926  0.90980964  1
  Te  Te108  1  0.41594135  0.25922926  0.25864155  1
  Te  Te109  1  0.40576065  0.26258898  0.60138886  1
  Te  Te110  1  0.40001351  0.26062370  0.92329640  1
  Te  Te111  1  0.42278486  0.58811703  0.23492970  1
  Te  Te112  1  0.41314826  0.57584828  0.59326766  1
  Te  Te113  1  0.41936878  0.59316595  0.90266045  1
  Te  Te114  1  0.43090862  0.92886499  0.24908945  1
  Te  Te115  1  0.40322027  0.90921289  0.57119082  1
  Te  Te116  1  0.42160874  0.91241550  0.93033663  1
  Te  Te117  1  0.75229491  0.24414935  0.22744056  1
  Te  Te118  1  0.74144664  0.25816032  0.57469226  1
  Te  Te119  1  0.77127818  0.26409021  0.91542368  1
  Te  Te120  1  0.74428987  0.60279690  0.26955570  1
  Te  Te121  1  0.80765977  0.56849983  0.57459307  1
  Te  Te122  1  0.74711548  0.62357906  0.92680996  1
  Te  Te123  1  0.74035981  0.95222835  0.20809875  1
  Te  Te124  1  0.76401514  0.91157178  0.57658559  1
  Te  Te125  1  0.75078195  0.92228069  0.92236102  1
  Te  Te126  1  0.25739063  0.23979560  0.08686740  1
  Te  Te127  1  0.24530178  0.23662096  0.40804561  1
  Te  Te128  1  0.25986413  0.24728186  0.76623331  1
  Te  Te129  1  0.24113781  0.59866574  0.09149622  1
  Te  Te130  1  0.26053146  0.59808360  0.39997282  1
  Te  Te131  1  0.21701634  0.60427361  0.76108788  1
  Te  Te132  1  0.22415864  0.88312095  0.06403754  1
  Te  Te133  1  0.22979188  0.90504992  0.43338878  1
  Te  Te134  1  0.23179484  0.89806943  0.73260594  1
  Te  Te135  1  0.59385426  0.22812467  0.08969839  1
  Te  Te136  1  0.57974313  0.24681633  0.40708073  1
  Te  Te137  1  0.58202152  0.24016112  0.74677104  1
  Te  Te138  1  0.60322682  0.58715058  0.06932592  1
  Te  Te139  1  0.60097066  0.60399286  0.42615055  1
  Te  Te140  1  0.59366924  0.62207448  0.75282664  1
  Te  Te141  1  0.60519053  0.85081246  0.05362266  1
  Te  Te142  1  0.60681508  0.90071003  0.40335589  1
  Te  Te143  1  0.59699497  0.91557069  0.75906231  1
  Te  Te144  1  0.92182083  0.25689353  0.07947350  1
  Te  Te145  1  0.91733948  0.23434053  0.42145591  1
  Te  Te146  1  0.90470135  0.26654920  0.76100094  1
  Te  Te147  1  0.90767506  0.59086520  0.06487672  1
  Te  Te148  1  0.88055020  0.61403447  0.43984953  1
  Te  Te149  1  0.93669298  0.55273720  0.77032761  1
  Te  Te150  1  0.91434691  0.89802765  0.09745873  1
  Te  Te151  1  0.89770285  0.88440389  0.40334859  1
  Te  Te152  1  0.97216717  0.93271846  0.76217797  1
  Te  Te153  1  0.23087089  0.04204326  0.23041270  1
  Te  Te154  1  0.23608764  0.06798264  0.57161975  1
  Te  Te155  1  0.27297855  0.07591701  0.90184844  1
  Te  Te156  1  0.23982967  0.43690698  0.24373653  1
  Te  Te157  1  0.25462054  0.39762149  0.60482586  1
  Te  Te158  1  0.24213469  0.42153915  0.93113932  1
  Te  Te159  1  0.27131917  0.73447661  0.25624351  1
  Te  Te160  1  0.23803875  0.76144413  0.57621942  1
  Te  Te161  1  0.22092173  0.74716793  0.90314769  1
  Te  Te162  1  0.62413120  0.05512910  0.23528620  1
  Te  Te163  1  0.55245203  0.08557401  0.59505486  1
  Te  Te164  1  0.59566495  0.06682718  0.93743586  1
  Te  Te165  1  0.58783469  0.40660135  0.24735132  1
  Te  Te166  1  0.59963718  0.44006385  0.57059835  1
  Te  Te167  1  0.59016458  0.42268928  0.91838564  1
  Te  Te168  1  0.61381710  0.75538169  0.24396552  1
  Te  Te169  1  0.58974998  0.75909628  0.59002406  1
  Te  Te170  1  0.55802818  0.76223188  0.93783557  1
  Te  Te171  1  0.90373388  0.05242819  0.24109743  1
  Te  Te172  1  0.93109201  0.06859415  0.60027028  1
  Te  Te173  1  0.91100407  0.07891492  0.92363142  1
  Te  Te174  1  0.90022889  0.46106117  0.27737153  1
  Te  Te175  1  0.93673570  0.41744626  0.58738797  1
  Te  Te176  1  0.88139078  0.46735330  0.88378323  1
  Te  Te177  1  0.91435724  0.77726479  0.23914921  1
  Te  Te178  1  0.94242348  0.73102601  0.58504609  1
  Te  Te179  1  0.92650727  0.76259348  0.90435019  1
