# generated using pymatgen
data_In2Te3
_symmetry_space_group_name_H-M   'P 1'
_cell_length_a   18.90616804
_cell_length_b   18.89217465
_cell_length_c   18.90146155
_cell_angle_alpha   89.97282177
_cell_angle_beta   89.83718316
_cell_angle_gamma   89.97253577
_symmetry_Int_Tables_number   1
_chemical_formula_structural   In2Te3
_chemical_formula_sum   'In72 Te108'
_cell_volume   6751.16932725
_cell_formula_units_Z   36
loop_
 _symmetry_equiv_pos_site_id
 _symmetry_equiv_pos_as_xyz
  1  'x, y, z'
loop_
 _atom_site_type_symbol
 _atom_site_label
 _atom_site_symmetry_multiplicity
 _atom_site_fract_x
 _atom_site_fract_y
 _atom_site_fract_z
 _atom_site_occupancy
  In  In0  1  -0.00430672  0.64011040  0.66133330  1
  In  In1  1  0.18030783  0.16421599  0.67459154  1
  In  In2  1  0.17553694  0.02047118  0.53657029  1
  In  In3  1  0.16777933  0.66463194  0.85268034  1
  In  In4  1  -0.00876111  0.84279727  0.82678345  1
  In  In5  1  0.50582459  0.49002025  0.35285365  1
  In  In6  1  0.66114038  0.67020737  0.00393478  1
  In  In7  1  0.16477696  0.18532602  0.33354222  1
  In  In8  1  0.68228722  -0.01879031  0.63927440  1
  In  In9  1  -0.01205130  0.65373559  0.02240599  1
  In  In10  1  0.83512762  -0.00711758  0.83761469  1
  In  In11  1  0.65363540  0.18250701  0.83283202  1
  In  In12  1  0.34422011  0.49518913  0.84778051  1
  In  In13  1  -0.02163321  -0.02030605  0.35271242  1
  In  In14  1  -0.00014967  -0.01129868  0.67252948  1
  In  In15  1  0.17854288  0.18618247  -0.00173579  1
  In  In16  1  0.34817171  -0.00147535  0.02186144  1
  In  In17  1  -0.00374999  0.47555129  0.51531369  1
  In  In18  1  0.16852853  0.33639892  0.48839910  1
  In  In19  1  -0.01712017  0.80138628  0.17852527  1
  In  In20  1  0.32561465  0.82611437  0.16074669  1
  In  In21  1  0.32883469  0.68839184  0.66272853  1
  In  In22  1  0.65037075  0.19343162  0.17408212  1
  In  In23  1  0.52130783  0.01698478  0.17572089  1
  In  In24  1  0.82438473  0.15922936  -0.01709143  1
  In  In25  1  -0.01516654  0.17501371  0.47969593  1
  In  In26  1  0.34829709  0.18775381  0.18157320  1
  In  In27  1  0.80921236  0.66235055  0.48460133  1
  In  In28  1  -0.00537432  0.33601187  0.67667431  1
  In  In29  1  0.50703011  0.82472871  0.66569038  1
  In  In30  1  0.84102719  0.82274565  0.00381238  1
  In  In31  1  0.17960910  -0.01860101  0.82581603  1
  In  In32  1  0.66667921  0.51106823  0.83399189  1
  In  In33  1  0.14362458  0.82610454  0.34411172  1
  In  In34  1  0.52009924  0.66677601  0.49866515  1
  In  In35  1  0.83545475  0.51683796  0.02871417  1
  In  In36  1  0.81567252  0.50695592  0.32731289  1
  In  In37  1  0.34023904  0.48193525  0.49499675  1
  In  In38  1  0.66169573  0.80447919  0.17354656  1
  In  In39  1  0.33825409  0.64519325  0.35267665  1
  In  In40  1  0.82887323  0.17613100  0.65572344  1
  In  In41  1  0.32231574  0.33633111  0.02288481  1
  In  In42  1  0.31944422  0.02680759  0.65503526  1
  In  In43  1  0.14257463  0.63746426  0.18336407  1
  In  In44  1  0.84409292  -0.02491598  0.16637577  1
  In  In45  1  0.66399483  0.66816086  0.66560210  1
  In  In46  1  0.00519801  0.32550236  0.00171273  1
  In  In47  1  0.65832468  0.32627404  0.62876886  1
  In  In48  1  0.50618992  0.04193864  0.49128030  1
  In  In49  1  0.16912274  0.83216226  0.64665357  1
  In  In50  1  0.34227885  0.66594082  -0.02200301  1
  In  In51  1  0.82876621  0.32844130  0.83837312  1
  In  In52  1  0.50922339  0.34339024  0.83935022  1
  In  In53  1  0.66717876  0.33208979  0.34819782  1
  In  In54  1  0.16864458  0.47433733  0.66601639  1
  In  In55  1  0.50491697  0.35422144  0.15466306  1
  In  In56  1  0.67674858  0.82572538  0.80910160  1
  In  In57  1  0.49033035  0.62525199  0.17104800  1
  In  In58  1  0.69213768  0.03142710  0.35059061  1
  In  In59  1  0.01270234  0.17635927  0.18110860  1
  In  In60  1  0.33811657  0.18072366  0.82041280  1
  In  In61  1  0.17035012  0.01542207  0.16107601  1
  In  In62  1  0.33713181  0.83380058  0.50872717  1
  In  In63  1  0.49330345  0.84535360  -0.01627561  1
  In  In64  1  0.65380187  0.03261356  -0.01048187  1
  In  In65  1  0.51128278  0.48332242  0.66721265  1
  In  In66  1  -0.03370481  0.80883767  0.47328152  1
  In  In67  1  0.83865105  0.49734104  0.65765860  1
  In  In68  1  0.35952372  0.00914009  0.37037176  1
  In  In69  1  0.17916099  0.49714517  0.03411084  1
  In  In70  1  0.82671717  0.35874374  0.16588721  1
  In  In71  1  0.52962437  0.84888228  0.31407678  1
  Te  Te72  1  0.07822688  0.09331171  0.07124551  1
  Te  Te73  1  0.08870317  0.07453369  0.41300059  1
  Te  Te74  1  0.08441877  0.07911394  0.75863138  1
  Te  Te75  1  0.07325102  0.41192285  0.10289597  1
  Te  Te76  1  0.04933701  0.38205639  0.41164339  1
  Te  Te77  1  0.06263307  0.43544678  0.76170193  1
  Te  Te78  1  0.09075002  0.74436528  0.08704644  1
  Te  Te79  1  0.05726108  0.72096584  0.39747673  1
  Te  Te80  1  0.08509374  0.74646498  0.74012767  1
  Te  Te81  1  0.43488247  0.10480353  0.08705113  1
  Te  Te82  1  0.41637923  0.13801694  0.41789866  1
  Te  Te83  1  0.42067318  0.10497974  0.72550926  1
  Te  Te84  1  0.40529404  0.43945608  0.08518941  1
  Te  Te85  1  0.42142480  0.38202417  0.41739611  1
  Te  Te86  1  0.40712967  0.40433434  0.74225499  1
  Te  Te87  1  0.43981385  0.75102141  0.09390197  1
  Te  Te88  1  0.42722782  0.76571878  0.40734272  1
  Te  Te89  1  0.42001272  0.75089644  0.75806788  1
  Te  Te90  1  0.74726074  0.08113207  0.09915546  1
  Te  Te91  1  0.78382069  0.11853913  0.42741720  1
  Te  Te92  1  0.74862462  0.08861656  0.75563095  1
  Te  Te93  1  0.72773260  0.43230843  0.08505438  1
  Te  Te94  1  0.76164067  0.41318491  0.42687468  1
  Te  Te95  1  0.73558751  0.40390000  0.74267183  1
  Te  Te96  1  0.77203007  0.72828914  0.09856410  1
  Te  Te97  1  0.75750232  0.74103726  0.36859496  1
  Te  Te98  1  0.76794373  0.72896062  0.74914208  1
  Te  Te99  1  0.05910290  0.27688158  0.27979931  1
  Te  Te100  1  0.07830617  0.24215407  0.58475054  1
  Te  Te101  1  0.08970026  0.25513643  0.90437137  1
  Te  Te102  1  0.12033955  0.53723690  0.28862322  1
  Te  Te103  1  0.09928976  0.57237889  0.57328752  1
  Te  Te104  1  0.08211724  0.57282635  0.93421708  1
  Te  Te105  1  0.07818896  0.92003514  0.24272366  1
  Te  Te106  1  0.06593075  0.90380929  0.56090821  1
  Te  Te107  1  0.08478131  0.91264393  0.91409572  1
  Te  Te108  1  0.43164415  0.27800196  0.26025523  1
  Te  Te109  1  0.47186863  0.26133533  0.52368358  1
  Te  Te110  1  0.41351124  0.26053861  0.92523449  1
  Te  Te111  1  0.39673108  0.54251441  0.25815589  1
  Te  Te112  1  0.41544237  0.59080077  0.57974643  1
  Te  Te113  1  0.44173083  0.56934842  0.92958135  1
  Te  Te114  1  0.41065561  0.92542159  0.24283200  1
  Te  Te115  1  0.42635914  0.93301618  0.57833127  1
  Te  Te116  1  0.41719609  0.94194550  0.90493262  1
  Te  Te117  1  0.76369554  0.25118732  0.25611336  1
  Te  Te118  1  0.73573229  0.22467508  0.54595345  1
  Te  Te119  1  0.72786544  0.26680910  0.93505560  1
  Te  Te120  1  0.77770874  0.63443025  0.25714262  1
  Te  Te121  1  0.73164441  0.56572320  0.57581951  1
  Te  Te122  1  0.76139663  0.59509235  0.91618093  1
  Te  Te123  1  0.73283516  0.91680829  0.24983932  1
  Te  Te124  1  0.77609771  0.90898341  0.55609766  1
  Te  Te125  1  0.74049086  0.91215604  0.93173423  1
  Te  Te126  1  0.22961586  0.26015233  0.12039281  1
  Te  Te127  1  0.25559299  0.29293853  0.37645196  1
  Te  Te128  1  0.23508472  0.26791767  0.76200973  1
  Te  Te129  1  0.26738254  0.60664654  0.09483834  1
  Te  Te130  1  0.23750643  0.55288814  0.41291870  1
  Te  Te131  1  0.25349663  0.58210648  0.74795859  1
  Te  Te132  1  0.23501993  0.90909651  0.07262307  1
  Te  Te133  1  0.24175366  0.91914327  0.42223308  1
  Te  Te134  1  0.27049893  0.90310747  0.73265122  1
  Te  Te135  1  0.57026079  0.25181866  0.06835708  1
  Te  Te136  1  0.59353204  0.23764439  0.44668914  1
  Te  Te137  1  0.56937624  0.25456476  0.72913502  1
  Te  Te138  1  0.60663202  0.56925019  0.09796834  1
  Te  Te139  1  0.60276520  0.58659410  0.40872144  1
  Te  Te140  1  0.56464385  0.59382465  0.75363598  1
  Te  Te141  1  0.59015059  0.91545715  0.08454883  1
  Te  Te142  1  0.59347410  0.93305769  0.41974774  1
  Te  Te143  1  0.58523358  0.92797055  0.74652946  1
  Te  Te144  1  0.90312394  0.24039486  0.08816959  1
  Te  Te145  1  0.88548751  0.22688420  0.38540569  1
  Te  Te146  1  0.92081376  0.23339768  0.76381149  1
  Te  Te147  1  0.93669901  0.56322843  0.12908430  1
  Te  Te148  1  0.91739642  0.57104828  0.42786655  1
  Te  Te149  1  0.92784396  0.55335753  0.76025184  1
  Te  Te150  1  0.94305462  0.90931942  0.07299999  1
  Te  Te151  1  0.86584812  0.91352579  0.42793746  1
  Te  Te152  1  0.88956894  0.90084315  0.72965425  1
  Te  Te153  1  0.26305331  0.07912188  0.26212495  1
  Te  Te154  1  0.27164007  0.13559869  0.55520100  1
  Te  Te155  1  0.25806529  0.08088914  0.91959325  1
  Te  Te156  1  0.19854124  0.45603433  0.18666535  1
  Te  Te157  1  0.26830819  0.38726655  0.59177560  1
  Te  Te158  1  0.23976556  0.41295270  0.91940357  1
  Te  Te159  1  0.25113369  0.74482312  0.26543969  1
  Te  Te160  1  0.23260678  0.73243052  0.55052036  1
  Te  Te161  1  0.25746743  0.76391368  0.91138103  1
  Te  Te162  1  0.58008730  0.10872565  0.27966242  1
  Te  Te163  1  0.60545900  0.09568388  0.58596185  1
  Te  Te164  1  0.55728774  0.09135666  0.89879611  1
  Te  Te165  1  0.60071109  0.42767849  0.25073276  1
  Te  Te166  1  0.56905590  0.41535110  0.55026393  1
  Te  Te167  1  0.57661956  0.44014933  0.92662848  1
  Te  Te168  1  0.57627645  0.71416009  0.26387371  1
  Te  Te169  1  0.60837004  0.77016563  0.56609470  1
  Te  Te170  1  0.58135731  0.75092238  0.90255037  1
  Te  Te171  1  0.91835533  0.07618280  0.25231726  1
  Te  Te172  1  0.91939849  0.07875253  0.58051984  1
  Te  Te173  1  0.92477319  0.07315126  0.92025262  1
  Te  Te174  1  0.92229587  0.43976526  0.24481129  1
  Te  Te175  1  0.89094816  0.38066586  0.57566865  1
  Te  Te176  1  0.90713322  0.41777085  0.93119287  1
  Te  Te177  1  0.88768656  0.74697772  0.27677990  1
  Te  Te178  1  0.90051354  0.73211852  0.58789514  1
  Te  Te179  1  0.92088990  0.73630612  0.90924062  1
