# generated using pymatgen
data_In2Te3
_symmetry_space_group_name_H-M   'P 1'
_cell_length_a   18.78447979
_cell_length_b   18.81119079
_cell_length_c   18.80194463
_cell_angle_alpha   89.95278570
_cell_angle_beta   89.98861189
_cell_angle_gamma   90.04053723
_symmetry_Int_Tables_number   1
_chemical_formula_structural   In2Te3
_chemical_formula_sum   'In72 Te108'
_cell_volume   6643.82164457
_cell_formula_units_Z   36
loop_
 _symmetry_equiv_pos_site_id
 _symmetry_equiv_pos_as_xyz
  1  'x, y, z'
loop_
 _atom_site_type_symbol
 _atom_site_label
 _atom_site_symmetry_multiplicity
 _atom_site_fract_x
 _atom_site_fract_y
 _atom_site_fract_z
 _atom_site_occupancy
  In  In0  1  0.54329158  0.69013340  0.84993299  1
  In  In1  1  0.14017174  0.47908971  0.02159812  1
  In  In2  1  0.82856061  0.83484469  0.69483912  1
  In  In3  1  0.15947340  0.31791933  0.83020458  1
  In  In4  1  0.51716092  0.17059209  0.32515360  1
  In  In5  1  0.33884418  0.65992866  0.30205378  1
  In  In6  1  0.16437125  0.50180846  0.66372641  1
  In  In7  1  -0.01671960  0.47797309  0.50254320  1
  In  In8  1  0.52802177  0.50395105  0.01070166  1
  In  In9  1  0.34951735  0.68970354  0.67681613  1
  In  In10  1  0.14934147  0.49717827  0.33612461  1
  In  In11  1  -0.01269759  0.84648457  0.15180001  1
  In  In12  1  0.50639802  0.01340568  0.53407815  1
  In  In13  1  0.82638919  0.33236287  0.50753416  1
  In  In14  1  0.15731114  0.67447178  0.16934936  1
  In  In15  1  0.85856481  0.47672404  0.32003376  1
  In  In16  1  0.66143889  0.17458508  0.84692446  1
  In  In17  1  0.33626881  0.68960103  -0.00524443  1
  In  In18  1  0.36511883  0.01290905  0.68284808  1
  In  In19  1  0.35608698  0.46716147  0.48314151  1
  In  In20  1  0.15299379  0.34229014  0.16106603  1
  In  In21  1  0.69007620  0.50143679  0.49938717  1
  In  In22  1  0.68535162  0.65726270  0.66517505  1
  In  In23  1  -0.01184529  0.15631100  0.17917841  1
  In  In24  1  0.50570117  -0.01519455  0.86252427  1
  In  In25  1  0.17689298  0.15354082  -0.00252061  1
  In  In26  1  -0.02881549  0.68791168  0.33249959  1
  In  In27  1  0.33826539  0.50015875  0.83326113  1
  In  In28  1  0.33554532  0.83138549  0.14433842  1
  In  In29  1  0.37265321  0.15596412  0.16580658  1
  In  In30  1  0.68047157  0.66034440  0.34110219  1
  In  In31  1  0.67391071  0.31249880  0.01935587  1
  In  In32  1  0.82654886  0.18080460  0.67665326  1
  In  In33  1  -0.03057036  0.52198095  0.81820110  1
  In  In34  1  0.82529941  0.35303710  0.80673961  1
  In  In35  1  -0.01775590  -0.02443801  0.68644304  1
  In  In36  1  0.16859600  0.70191838  0.85647423  1
  In  In37  1  -0.00015042  0.17329112  0.49667330  1
  In  In38  1  0.65901485  0.01952228  0.68368910  1
  In  In39  1  -0.00148029  0.66402876  0.02257904  1
  In  In40  1  0.81786389  0.83540277  -0.00114755  1
  In  In41  1  0.15616886  0.65152286  0.50384783  1
  In  In42  1  0.16028156  0.83048726  0.68049535  1
  In  In43  1  0.51215201  0.00094032  0.14070597  1
  In  In44  1  0.67740100  0.84593167  0.15692971  1
  In  In45  1  0.33360292  0.17886344  0.49098166  1
  In  In46  1  0.00962727  0.83404606  0.84371886  1
  In  In47  1  0.16666247  0.01885929  0.47678656  1
  In  In48  1  0.50067922  0.82701164  0.33044989  1
  In  In49  1  0.80481245  0.18667381  0.30182975  1
  In  In50  1  0.49653964  0.87188189  0.68606683  1
  In  In51  1  0.51215069  0.32543506  0.84624370  1
  In  In52  1  0.49583250  0.32676950  0.47884680  1
  In  In53  1  0.32005417  0.32712492  0.66473141  1
  In  In54  1  -0.00626006  0.32272335  0.01677981  1
  In  In55  1  0.16456773  0.17316589  0.35224110  1
  In  In56  1  0.35470404  0.49686641  0.15385398  1
  In  In57  1  0.66788340  0.81582176  0.50961367  1
  In  In58  1  0.80655158  0.52221372  -0.01152234  1
  In  In59  1  0.68206537  -0.00979803  0.32516209  1
  In  In60  1  -0.01706411  0.83381403  0.49278950  1
  In  In61  1  0.15562846  -0.00041108  0.83725241  1
  In  In62  1  0.51445353  0.67144231  0.48638734  1
  In  In63  1  0.15680410  0.17374155  0.67196213  1
  In  In64  1  0.36238975  0.33116181  -0.00218399  1
  In  In65  1  0.30896930  0.00721475  0.32411893  1
  In  In66  1  0.83585119  0.11941466  0.00242165  1
  In  In67  1  0.15839967  -0.02008835  0.15568661  1
  In  In68  1  0.78826832  0.67246038  0.51198147  1
  In  In69  1  0.52402971  0.51939627  0.65788260  1
  In  In70  1  0.65638741  0.48878237  0.17685596  1
  In  In71  1  0.83389692  -0.00289471  0.47780131  1
  Te  Te72  1  0.07009859  0.07782742  0.07732867  1
  Te  Te73  1  0.05355351  0.07365384  0.39223855  1
  Te  Te74  1  0.06104716  0.08830922  0.75433961  1
  Te  Te75  1  0.02918956  0.43488320  0.12392585  1
  Te  Te76  1  0.07185408  0.39996458  0.41415573  1
  Te  Te77  1  0.07546333  0.42142971  0.75794328  1
  Te  Te78  1  0.09996171  0.76871204  0.06661049  1
  Te  Te79  1  0.08583714  0.75183539  0.41303962  1
  Te  Te80  1  0.06605905  0.73049534  0.74458588  1
  Te  Te81  1  0.41131801  0.07005365  0.05333885  1
  Te  Te82  1  0.42022572  0.07619451  0.41709875  1
  Te  Te83  1  0.46162271  0.08792372  0.76399505  1
  Te  Te84  1  0.45722477  0.39743798  0.09642619  1
  Te  Te85  1  0.43971309  0.41803748  0.36791454  1
  Te  Te86  1  0.42183923  0.41930086  0.73638019  1
  Te  Te87  1  0.43606164  0.73665708  0.09270108  1
  Te  Te88  1  0.40399946  0.74816992  0.41761361  1
  Te  Te89  1  0.42433496  0.76912541  0.78219527  1
  Te  Te90  1  0.70263626  0.09103151  0.06085403  1
  Te  Te91  1  0.74052183  0.09811962  0.41630629  1
  Te  Te92  1  0.76252805  0.08231011  0.77380865  1
  Te  Te93  1  0.76022404  0.41509180  0.09133910  1
  Te  Te94  1  0.74664810  0.40542230  0.39585377  1
  Te  Te95  1  0.73361390  0.43780203  0.73114011  1
  Te  Te96  1  0.74085220  0.73348822  0.07956575  1
  Te  Te97  1  0.76359802  0.77571970  0.39852634  1
  Te  Te98  1  0.76306468  0.72519608  0.78038289  1
  Te  Te99  1  0.07250116  0.25586042  0.25834374  1
  Te  Te100  1  0.09093382  0.26057091  0.57321411  1
  Te  Te101  1  0.06858709  0.23342059  0.91916035  1
  Te  Te102  1  0.06233734  0.59035238  0.25308639  1
  Te  Te103  1  0.05537219  0.58221448  0.59320266  1
  Te  Te104  1  0.08540291  0.58077289  0.91588761  1
  Te  Te105  1  0.07633822  0.90856853  0.25373440  1
  Te  Te106  1  0.08260165  0.92239860  0.58142520  1
  Te  Te107  1  0.08459625  0.91781247  0.93884855  1
  Te  Te108  1  0.40987230  0.25544471  0.26581345  1
  Te  Te109  1  0.42532930  0.24385319  0.59278208  1
  Te  Te110  1  0.43301132  0.22724190  0.92225145  1
  Te  Te111  1  0.44412302  0.58979275  0.22778218  1
  Te  Te112  1  0.40473702  0.58125527  0.58258445  1
  Te  Te113  1  0.43056594  0.58643233  0.91698392  1
  Te  Te114  1  0.42086397  0.92958938  0.24891880  1
  Te  Te115  1  0.40230614  0.90852375  0.57260174  1
  Te  Te116  1  0.40611096  0.88377325  0.90575669  1
  Te  Te117  1  0.70665049  0.25280615  0.21182286  1
  Te  Te118  1  0.73154954  0.24785108  0.58576417  1
  Te  Te119  1  0.77543049  0.25303534  0.91682755  1
  Te  Te120  1  0.76638358  0.57623570  0.25028612  1
  Te  Te121  1  0.78622214  0.53665259  0.62310468  1
  Te  Te122  1  0.74582188  0.60711376  0.88402392  1
  Te  Te123  1  0.77717601  0.93658948  0.22334197  1
  Te  Te124  1  0.74740524  0.92021600  0.58992106  1
  Te  Te125  1  0.71277542  0.89800642  0.91081941  1
  Te  Te126  1  0.25429135  0.25871115  0.08179456  1
  Te  Te127  1  0.25985723  0.27253636  0.40550440  1
  Te  Te128  1  0.26626454  0.22837198  0.76750841  1
  Te  Te129  1  0.24643433  0.58497981  0.07731014  1
  Te  Te130  1  0.25924493  0.58003304  0.41428036  1
  Te  Te131  1  0.24733298  0.59653022  0.75600355  1
  Te  Te132  1  0.27700932  0.94679745  0.07297779  1
  Te  Te133  1  0.24586903  0.91129285  0.41555907  1
  Te  Te134  1  0.25732830  0.92309264  0.74851655  1
  Te  Te135  1  0.59554561  0.22285774  0.10793363  1
  Te  Te136  1  0.60409058  0.25072425  0.41342824  1
  Te  Te137  1  0.59845313  0.26210033  0.74544549  1
  Te  Te138  1  0.62224153  0.59704415  0.07765426  1
  Te  Te139  1  0.58185922  0.56372289  0.40702064  1
  Te  Te140  1  0.60629569  0.56859123  0.77502379  1
  Te  Te141  1  0.56804926  0.88748767  0.05930709  1
  Te  Te142  1  0.58201188  0.91830660  0.42702350  1
  Te  Te143  1  0.61777741  0.90163538  0.77341581  1
  Te  Te144  1  0.89239834  0.23519267  0.08884138  1
  Te  Te145  1  0.90454826  0.24780819  0.40547585  1
  Te  Te146  1  0.92775709  0.26394838  0.74658517  1
  Te  Te147  1  0.89594565  0.58336364  0.09140482  1
  Te  Te148  1  0.89715099  0.59026555  0.43007255  1
  Te  Te149  1  0.87594859  0.60093995  0.73647910  1
  Te  Te150  1  0.91019898  0.93646135  0.05910316  1
  Te  Te151  1  0.91347105  0.91115314  0.38879624  1
  Te  Te152  1  0.88882912  0.93357128  0.80353083  1
  Te  Te153  1  0.23497479  0.10383437  0.23192259  1
  Te  Te154  1  0.25141447  0.08245692  0.58905393  1
  Te  Te155  1  0.26226282  0.07986684  0.90349746  1
  Te  Te156  1  0.25023301  0.42691373  0.24361913  1
  Te  Te157  1  0.23836248  0.41044350  0.56670522  1
  Te  Te158  1  0.24785775  0.41294556  0.91974217  1
  Te  Te159  1  0.24449181  0.76901073  0.25150595  1
  Te  Te160  1  0.24598335  0.75025024  0.58259343  1
  Te  Te161  1  0.26771123  0.79845998  0.91574547  1
  Te  Te162  1  0.60332025  0.08304556  0.23362044  1
  Te  Te163  1  0.60269381  0.11294828  0.58347871  1
  Te  Te164  1  0.60392190  0.07382806  0.94415278  1
  Te  Te165  1  0.55988853  0.42300851  0.26612856  1
  Te  Te166  1  0.58740739  0.41371736  0.57263966  1
  Te  Te167  1  0.61086476  0.41260530  0.92157172  1
  Te  Te168  1  0.59493972  0.74575487  0.24750559  1
  Te  Te169  1  0.56652067  0.74674808  0.61039878  1
  Te  Te170  1  0.61515207  0.78245910  0.94589136  1
  Te  Te171  1  0.87901767  0.07209226  0.23862369  1
  Te  Te172  1  0.91363054  0.07436158  0.58665770  1
  Te  Te173  1  0.91925754  0.05020616  0.90501620  1
  Te  Te174  1  0.93025985  0.38277737  0.23454904  1
  Te  Te175  1  0.92704163  0.38456339  0.60467661  1
  Te  Te176  1  0.91822038  0.42329336  0.92496834  1
  Te  Te177  1  0.90177493  0.74070771  0.21356225  1
  Te  Te178  1  0.89938046  0.75058129  0.58851613  1
  Te  Te179  1  0.91681025  0.74082881  0.92073934  1
