# generated using pymatgen
data_In2Te3
_symmetry_space_group_name_H-M   'P 1'
_cell_length_a   18.88165629
_cell_length_b   18.89753609
_cell_length_c   18.89581163
_cell_angle_alpha   89.95022040
_cell_angle_beta   89.96914352
_cell_angle_gamma   90.11690953
_symmetry_Int_Tables_number   1
_chemical_formula_structural   In2Te3
_chemical_formula_sum   'In72 Te108'
_cell_volume   6742.32512131
_cell_formula_units_Z   36
loop_
 _symmetry_equiv_pos_site_id
 _symmetry_equiv_pos_as_xyz
  1  'x, y, z'
loop_
 _atom_site_type_symbol
 _atom_site_label
 _atom_site_symmetry_multiplicity
 _atom_site_fract_x
 _atom_site_fract_y
 _atom_site_fract_z
 _atom_site_occupancy
  In  In0  1  0.35913679  -0.01661625  0.33730587  1
  In  In1  1  0.49037685  -0.01490036  0.79660095  1
  In  In2  1  0.63664742  0.67640543  -0.00542823  1
  In  In3  1  0.80024957  0.31807448  0.80096986  1
  In  In4  1  0.49502555  0.83444480  -0.01727908  1
  In  In5  1  0.16493618  0.33013575  0.15184147  1
  In  In6  1  0.16954524  0.67662458  0.15206823  1
  In  In7  1  0.21099036  -0.00821626  0.80874976  1
  In  In8  1  -0.00400288  0.47831421  0.16742873  1
  In  In9  1  0.34161510  0.32985406  -0.01778493  1
  In  In10  1  0.64477440  0.87751014  0.52732254  1
  In  In11  1  0.18450705  0.49558101  0.66891851  1
  In  In12  1  0.78290995  0.00830145  0.78224942  1
  In  In13  1  0.48697987  0.68297735  0.82862606  1
  In  In14  1  0.00920156  0.00983200  0.00743064  1
  In  In15  1  -0.00153411  0.18359486  0.83047927  1
  In  In16  1  0.32931341  0.13866806  0.80863441  1
  In  In17  1  0.01823085  0.82724123  0.49682101  1
  In  In18  1  0.80883146  0.83602887  0.35543022  1
  In  In19  1  0.36679307  0.36852992  0.36910081  1
  In  In20  1  0.66516288  -0.00335973  -0.01376737  1
  In  In21  1  -0.01208564  0.83537539  0.85032131  1
  In  In22  1  0.17999481  0.83400537  0.01348977  1
  In  In23  1  0.81448909  0.17796853  0.36112604  1
  In  In24  1  0.01024008  -0.02204783  0.34751304  1
  In  In25  1  -0.02475488  0.16708588  0.15595133  1
  In  In26  1  0.34572040  0.48489192  0.81613978  1
  In  In27  1  0.53119077  0.49978758  0.64570176  1
  In  In28  1  0.16415993  0.15770024  -0.01997823  1
  In  In29  1  0.67096535  0.34461001  0.33624194  1
  In  In30  1  0.16952224  0.68682777  0.83176765  1
  In  In31  1  0.81592308  0.31478058  0.50803904  1
  In  In32  1  0.84354274  0.48393878  0.00165069  1
  In  In33  1  0.82027659  0.51055555  0.31773164  1
  In  In34  1  0.35756579  0.13336149  0.16151507  1
  In  In35  1  0.16985914  0.17396752  0.32977760  1
  In  In36  1  0.82411956  0.16323249  -0.01877071  1
  In  In37  1  0.18267770  0.83892797  0.34800637  1
  In  In38  1  0.65829983  0.68300676  0.66131342  1
  In  In39  1  0.35159386  0.52318987  0.19440517  1
  In  In40  1  0.64342689  0.14489182  0.50910966  1
  In  In41  1  0.50181271  0.31001453  0.16088653  1
  In  In42  1  0.35145656  0.84762266  0.16810553  1
  In  In43  1  0.64322326  0.00916851  0.34576000  1
  In  In44  1  0.31309924  0.67577120  0.01826443  1
  In  In45  1  -0.01425490  0.83773411  0.17509485  1
  In  In46  1  0.20327959  0.14987022  0.66868694  1
  In  In47  1  -0.02229563  0.64141365  -0.02981615  1
  In  In48  1  -0.00562392  0.00964377  0.65366691  1
  In  In49  1  0.77231487  0.66192159  0.15926383  1
  In  In50  1  0.67340243  0.50431982  0.17996251  1
  In  In51  1  0.01777494  0.50027312  0.50687114  1
  In  In52  1  0.34797817  0.66416874  0.37025155  1
  In  In53  1  0.81699961  0.32027499  0.15564717  1
  In  In54  1  0.19811289  0.52113041  0.34661110  1
  In  In55  1  -0.00537221  0.14729639  0.48911910  1
  In  In56  1  0.81668999  0.66335261  0.50853317  1
  In  In57  1  0.35859932  0.17168550  0.51979943  1
  In  In58  1  0.50840524  0.48706454  -0.01852646  1
  In  In59  1  -0.00385693  0.51379469  0.82779219  1
  In  In60  1  -0.01185503  0.32237155  0.67013924  1
  In  In61  1  0.35581690  0.31541336  0.66932671  1
  In  In62  1  0.81588776  0.66548227  0.82369137  1
  In  In63  1  0.49398369  0.15091571  0.32094986  1
  In  In64  1  0.16628260  0.34120835  0.51383269  1
  In  In65  1  0.00312797  0.68799070  0.32481177  1
  In  In66  1  0.82139773  -0.00407508  0.18835467  1
  In  In67  1  0.50945457  0.67087147  0.50920407  1
  In  In68  1  0.49248805  0.15605104  -0.00395761  1
  In  In69  1  0.33035484  0.71824120  0.63962436  1
  In  In70  1  -0.00897064  0.67063689  0.68772407  1
  In  In71  1  0.67029834  0.46803220  0.83483570  1
  Te  Te72  1  0.09525031  0.09056108  0.10175651  1
  Te  Te73  1  0.10685288  0.06871939  0.42265884  1
  Te  Te74  1  0.09306749  0.08284939  0.76091511  1
  Te  Te75  1  0.07603575  0.41070166  0.06607629  1
  Te  Te76  1  0.09335607  0.41834241  0.40535980  1
  Te  Te77  1  0.08183246  0.41516514  0.74723644  1
  Te  Te78  1  0.05998574  0.74859043  0.07025282  1
  Te  Te79  1  0.10899416  0.72801297  0.42376910  1
  Te  Te80  1  0.08363801  0.77666852  0.74613300  1
  Te  Te81  1  0.44992092  0.04506886  0.08854758  1
  Te  Te82  1  0.43749502  0.07110035  0.43722357  1
  Te  Te83  1  0.44608788  0.11164596  0.71404283  1
  Te  Te84  1  0.41190630  0.41965390  0.09016826  1
  Te  Te85  1  0.46463321  0.44853949  0.44858521  1
  Te  Te86  1  0.45205978  0.40734206  0.74593334  1
  Te  Te87  1  0.42737861  0.74065204  0.09109413  1
  Te  Te88  1  0.42033638  0.77091309  0.44324230  1
  Te  Te89  1  0.41633073  0.78174420  0.74322026  1
  Te  Te90  1  0.75033743  0.08375082  0.08704042  1
  Te  Te91  1  0.75284544  0.06337288  0.43706375  1
  Te  Te92  1  0.69086609  0.11782684  0.72282834  1
  Te  Te93  1  0.72881763  0.41180189  0.07245045  1
  Te  Te94  1  0.75120637  0.43327154  0.42884507  1
  Te  Te95  1  0.72635940  0.41070220  0.71039355  1
  Te  Te96  1  0.72022107  0.77347048  0.07233711  1
  Te  Te97  1  0.71756163  0.76252143  0.44961412  1
  Te  Te98  1  0.77076691  0.76283357  0.72037574  1
  Te  Te99  1  0.07173639  0.25251535  0.24494817  1
  Te  Te100  1  0.08627038  0.23478614  0.58894630  1
  Te  Te101  1  0.08083393  0.26282270  0.92231050  1
  Te  Te102  1  0.08427154  0.58258704  0.24692911  1
  Te  Te103  1  0.09125778  0.59530973  0.59891753  1
  Te  Te104  1  0.10436794  0.57856886  0.91700037  1
  Te  Te105  1  0.09793118  0.91311111  0.24147405  1
  Te  Te106  1  0.09181038  0.92405443  0.58156214  1
  Te  Te107  1  0.09727023  0.92373928  0.91553858  1
  Te  Te108  1  0.39696732  0.25342890  0.25832795  1
  Te  Te109  1  0.46508949  0.25469011  0.58563954  1
  Te  Te110  1  0.41771147  0.23863016  0.89088931  1
  Te  Te111  1  0.44772615  0.59571077  0.28146149  1
  Te  Te112  1  0.42144964  0.59565609  0.60872139  1
  Te  Te113  1  0.40753194  0.58894714  0.92343538  1
  Te  Te114  1  0.45403201  0.89715658  0.26277799  1
  Te  Te115  1  0.39216411  0.98029207  0.65855659  1
  Te  Te116  1  0.40670391  0.91902782  0.90048970  1
  Te  Te117  1  0.73249990  0.23378109  0.24726028  1
  Te  Te118  1  0.71469212  0.24659270  0.59294727  1
  Te  Te119  1  0.72212434  0.24407264  0.90782486  1
  Te  Te120  1  0.70436566  0.61247065  0.29677904  1
  Te  Te121  1  0.71776417  0.57764347  0.57589571  1
  Te  Te122  1  0.74312682  0.57817470  0.93021491  1
  Te  Te123  1  0.72044350  0.90572546  0.25367682  1
  Te  Te124  1  0.74431263  0.90960457  0.63680019  1
  Te  Te125  1  0.75421621  0.92116781  0.89630033  1
  Te  Te126  1  0.26697713  0.23318183  0.08169862  1
  Te  Te127  1  0.25918143  0.25281644  0.42701851  1
  Te  Te128  1  0.24553097  0.26163367  0.76019982  1
  Te  Te129  1  0.24426036  0.56006474  0.08957782  1
  Te  Te130  1  0.26466849  0.58240675  0.46072688  1
  Te  Te131  1  0.26342712  0.60372696  0.74496545  1
  Te  Te132  1  0.25436498  0.92948394  0.09512341  1
  Te  Te133  1  0.28479753  0.89824256  0.43837153  1
  Te  Te134  1  0.27414563  0.89523741  0.71197940  1
  Te  Te135  1  0.59058018  0.23783466  0.07181512  1
  Te  Te136  1  0.58330482  0.24162047  0.40557142  1
  Te  Te137  1  0.64879391  0.25414411  0.76367234  1
  Te  Te138  1  0.57076715  0.57621252  0.08761123  1
  Te  Te139  1  0.55610484  0.56915909  0.41231169  1
  Te  Te140  1  0.58844481  0.58600974  0.76900541  1
  Te  Te141  1  0.56906722  0.92423674  0.07613804  1
  Te  Te142  1  0.55718292  0.90513189  0.40904662  1
  Te  Te143  1  0.61851246  0.93617824  0.72606895  1
  Te  Te144  1  0.91497015  0.26261700  0.05501209  1
  Te  Te145  1  0.92755094  0.26294570  0.41667960  1
  Te  Te146  1  0.89264812  0.21903655  0.72786783  1
  Te  Te147  1  0.90693813  0.58646335  0.10164533  1
  Te  Te148  1  0.92182817  0.58795432  0.41135513  1
  Te  Te149  1  0.88905687  0.56718144  0.73332071  1
  Te  Te150  1  0.90543714  0.92430745  0.08068001  1
  Te  Te151  1  0.90641978  0.91708810  0.43937807  1
  Te  Te152  1  0.91459218  0.92488831  0.75248823  1
  Te  Te153  1  0.25992332  0.07119454  0.26071231  1
  Te  Te154  1  0.26824060  0.06222873  0.57061877  1
  Te  Te155  1  0.27205119  0.06341209  0.93012448  1
  Te  Te156  1  0.25422902  0.41324250  0.25508234  1
  Te  Te157  1  0.28020504  0.41580436  0.58141361  1
  Te  Te158  1  0.25200126  0.41720466  0.90577285  1
  Te  Te159  1  0.26127225  0.74040653  0.25359060  1
  Te  Te160  1  0.23229019  0.80894179  0.57883126  1
  Te  Te161  1  0.26984447  0.77195134  0.90780027  1
  Te  Te162  1  0.59081992  0.08678417  0.23245609  1
  Te  Te163  1  0.59990243  0.03672550  0.60644422  1
  Te  Te164  1  0.57202635  0.07442992  0.89598687  1
  Te  Te165  1  0.56967002  0.41591850  0.24902449  1
  Te  Te166  1  0.56279816  0.38940829  0.55293228  1
  Te  Te167  1  0.57589708  0.38050302  0.90845125  1
  Te  Te168  1  0.64749199  0.73174195  0.21343507  1
  Te  Te169  1  0.55640139  0.78128029  0.60837979  1
  Te  Te170  1  0.59712856  0.77424905  0.88421951  1
  Te  Te171  1  0.91888554  0.08117111  0.27239099  1
  Te  Te172  1  0.89473490  0.09037706  0.58043608  1
  Te  Te173  1  0.91891556  0.07410042  0.90401320  1
  Te  Te174  1  0.90271259  0.39741135  0.25531316  1
  Te  Te175  1  0.91320919  0.41605591  0.57753831  1
  Te  Te176  1  0.90204086  0.40849895  0.88699355  1
  Te  Te177  1  0.88417943  0.74954209  0.24966439  1
  Te  Te178  1  0.91625370  0.75253601  0.58318667  1
  Te  Te179  1  0.88474351  0.75424195  0.92845439  1
