# generated using pymatgen
data_In2Te3
_symmetry_space_group_name_H-M   'P 1'
_cell_length_a   18.94799613
_cell_length_b   18.95414172
_cell_length_c   18.94803332
_cell_angle_alpha   90.04107180
_cell_angle_beta   89.83782576
_cell_angle_gamma   89.91885416
_symmetry_Int_Tables_number   1
_chemical_formula_structural   In2Te3
_chemical_formula_sum   'In72 Te108'
_cell_volume   6805.01775515
_cell_formula_units_Z   36
loop_
 _symmetry_equiv_pos_site_id
 _symmetry_equiv_pos_as_xyz
  1  'x, y, z'
loop_
 _atom_site_type_symbol
 _atom_site_label
 _atom_site_symmetry_multiplicity
 _atom_site_fract_x
 _atom_site_fract_y
 _atom_site_fract_z
 _atom_site_occupancy
  In  In0  1  0.47833227  0.15264474  0.00218336  1
  In  In1  1  0.19953408  0.29452139  0.14953010  1
  In  In2  1  0.34062830  0.81168490  0.49501206  1
  In  In3  1  0.01184027  0.34503400  -0.01426941  1
  In  In4  1  0.49244167  0.47661308  0.67009796  1
  In  In5  1  0.00322145  0.15783105  0.15524079  1
  In  In6  1  0.81213406  0.15791543  0.00594777  1
  In  In7  1  0.66615022  0.16397372  0.49849081  1
  In  In8  1  0.03153428  0.52132576  0.84032310  1
  In  In9  1  0.31869528  0.50398282  0.49802634  1
  In  In10  1  0.18777471  0.01798950  0.87183348  1
  In  In11  1  0.85203863  0.35102114  0.18778801  1
  In  In12  1  0.47509801  -0.00050047  0.19177715  1
  In  In13  1  0.50706852  0.32574618  0.52093283  1
  In  In14  1  0.84214469  0.52526303  0.66317661  1
  In  In15  1  0.01404029  0.17241242  0.48352628  1
  In  In16  1  0.65084351  0.35338990  0.00347762  1
  In  In17  1  0.33006352  0.18118682  0.47065569  1
  In  In18  1  0.30069054  0.62498150  0.68526653  1
  In  In19  1  -0.01016126  0.80574888  0.84226427  1
  In  In20  1  0.49488525  0.02141229  0.48973918  1
  In  In21  1  0.67463419  0.13048294  0.15681330  1
  In  In22  1  0.02732379  0.66599762  0.67207119  1
  In  In23  1  0.66754150  0.80514270  0.16058757  1
  In  In24  1  0.66417492  -0.02109597  0.30791317  1
  In  In25  1  0.32705576  0.35364342  0.65876037  1
  In  In26  1  0.17195177  0.84452134  -0.00314982  1
  In  In27  1  0.48744174  0.85325802  0.69291872  1
  In  In28  1  -0.01645287  -0.00959465  0.02216437  1
  In  In29  1  0.81177098  0.54887610  0.02645425  1
  In  In30  1  0.49621851  0.65513379  0.84588770  1
  In  In31  1  0.67179413  -0.00223725  0.65663186  1
  In  In32  1  0.14421501  -0.00896309  0.47930199  1
  In  In33  1  0.50303080  0.00027134  0.83521093  1
  In  In34  1  0.81364303  -0.01011521  0.85186722  1
  In  In35  1  -0.00992126  0.51408968  0.18409214  1
  In  In36  1  0.64190891  0.16372909  0.82746076  1
  In  In37  1  0.33804320  0.83780715  0.85274438  1
  In  In38  1  0.01047419  0.00093530  0.66859454  1
  In  In39  1  0.54275529  0.65471613  0.49608660  1
  In  In40  1  0.83673998  0.82180114  0.65406985  1
  In  In41  1  0.17002991  0.17612947  0.65289039  1
  In  In42  1  0.18252955  0.31122018  0.86914072  1
  In  In43  1  0.45335481  0.30794991  0.14017774  1
  In  In44  1  0.84032966  0.49667585  0.33446293  1
  In  In45  1  0.65726216  0.31554275  0.66910450  1
  In  In46  1  0.84311496  0.34428464  0.82806228  1
  In  In47  1  0.15493416  0.51024296  0.01335050  1
  In  In48  1  0.65051862  0.34401442  0.32441490  1
  In  In49  1  0.85793254  0.17652629  0.31765837  1
  In  In50  1  0.68645722  0.68976965  0.01225912  1
  In  In51  1  0.85360986  0.69270345  0.14583428  1
  In  In52  1  -0.00003393  -0.02593440  0.30854321  1
  In  In53  1  0.48545127  0.50853642  0.32821426  1
  In  In54  1  0.00204571  0.19755968  0.83280435  1
  In  In55  1  0.15209424  0.83022796  0.31211937  1
  In  In56  1  0.00814287  0.50379868  0.47256600  1
  In  In57  1  0.50414739  0.84139572  -0.00472913  1
  In  In58  1  0.63958746  0.49774083  0.84129939  1
  In  In59  1  0.51044108  0.82388563  0.35993638  1
  In  In60  1  -0.00752646  0.84664555  0.50515648  1
  In  In61  1  0.86004887  0.00495089  0.46963860  1
  In  In62  1  -0.00796674  0.35681914  0.67943487  1
  In  In63  1  0.17236636  0.65382387  0.49904016  1
  In  In64  1  0.33622813  0.02824686  0.68783948  1
  In  In65  1  0.69298886  0.68773685  0.63155103  1
  In  In66  1  0.65685634  0.51830155  0.19755302  1
  In  In67  1  0.47605354  0.50462968  0.00717430  1
  In  In68  1  0.32628466  0.82943238  0.14624063  1
  In  In69  1  0.49702894  0.67916688  0.17611402  1
  In  In70  1  0.30028714  0.34428079  0.33234219  1
  In  In71  1  0.14700433  0.66627398  0.16015250  1
  Te  Te72  1  0.09520713  0.05726073  0.09463030  1
  Te  Te73  1  0.08210771  0.08535611  0.38013892  1
  Te  Te74  1  0.09338979  0.09188120  0.75975680  1
  Te  Te75  1  0.07709726  0.40931423  0.10375436  1
  Te  Te76  1  0.07568381  0.40724241  0.38591052  1
  Te  Te77  1  0.09820486  0.40150271  0.77499837  1
  Te  Te78  1  0.07355567  0.77912766  0.09190787  1
  Te  Te79  1  0.08380931  0.75525260  0.42515216  1
  Te  Te80  1  0.09825755  0.76584310  0.75273819  1
  Te  Te81  1  0.38616819  0.09294513  0.11348156  1
  Te  Te82  1  0.39075333  0.06761350  0.39222372  1
  Te  Te83  1  0.43199940  0.10674017  0.76376621  1
  Te  Te84  1  0.37616692  0.40915293  0.06505828  1
  Te  Te85  1  0.42246674  0.40781062  0.42408261  1
  Te  Te86  1  0.38613454  0.43884662  0.76469446  1
  Te  Te87  1  0.41677818  0.73805246  0.06214751  1
  Te  Te88  1  0.42175566  0.71387632  0.41482934  1
  Te  Te89  1  0.40163346  0.74061480  0.75003352  1
  Te  Te90  1  0.76423971  0.03895520  0.08119907  1
  Te  Te91  1  0.75311699  0.08227440  0.39490662  1
  Te  Te92  1  0.75012185  0.08671374  0.75285023  1
  Te  Te93  1  0.75083106  0.42647188  0.09428168  1
  Te  Te94  1  0.76209848  0.39415063  0.40424240  1
  Te  Te95  1  0.74733064  0.43084235  0.74738775  1
  Te  Te96  1  0.80428096  0.78967180  0.01940008  1
  Te  Te97  1  0.70149038  0.71138178  0.48258097  1
  Te  Te98  1  0.75345158  0.75030737  0.74948168  1
  Te  Te99  1  0.10334361  0.22521454  0.23735807  1
  Te  Te100  1  0.07600975  0.26940514  0.58356664  1
  Te  Te101  1  0.09209163  0.22096814  0.95214063  1
  Te  Te102  1  0.07616444  0.59547668  0.27007319  1
  Te  Te103  1  0.09366329  0.55867197  0.58858771  1
  Te  Te104  1  0.11845660  0.61926317  0.91205495  1
  Te  Te105  1  0.12634565  0.95302256  0.23251213  1
  Te  Te106  1  0.10057379  0.90400543  0.59632370  1
  Te  Te107  1  0.06757231  0.92972203  0.90769564  1
  Te  Te108  1  0.39548414  0.24616569  0.26347473  1
  Te  Te109  1  0.40410296  0.23932611  0.58904278  1
  Te  Te110  1  0.38098821  0.24378493  0.93755455  1
  Te  Te111  1  0.40782100  0.57402830  0.22394747  1
  Te  Te112  1  0.41639534  0.58292119  0.58474755  1
  Te  Te113  1  0.39356043  0.56766093  0.90184824  1
  Te  Te114  1  0.41008299  0.88607055  0.26523295  1
  Te  Te115  1  0.40877910  0.92843695  0.58303633  1
  Te  Te116  1  0.40712502  0.94199346  0.93776737  1
  Te  Te117  1  0.74395009  0.24849084  0.23323402  1
  Te  Te118  1  0.75176086  0.24657714  0.58212345  1
  Te  Te119  1  0.74230074  0.26354657  0.91062500  1
  Te  Te120  1  0.77451750  0.60231545  0.24277571  1
  Te  Te121  1  0.76719584  0.58423234  0.54611475  1
  Te  Te122  1  0.74142830  0.59258125  0.90109952  1
  Te  Te123  1  0.75729039  0.88611976  0.24390338  1
  Te  Te124  1  0.76825768  0.92456001  0.56622741  1
  Te  Te125  1  0.74459065  0.91977393  0.95852797  1
  Te  Te126  1  0.27495096  0.20975785  0.05131186  1
  Te  Te127  1  0.21957543  0.26674350  0.42821598  1
  Te  Te128  1  0.25719571  0.25008666  0.74989319  1
  Te  Te129  1  0.25111369  0.58333029  0.09782520  1
  Te  Te130  1  0.24380491  0.57751034  0.39681090  1
  Te  Te131  1  0.19213416  0.58623666  0.77696590  1
  Te  Te132  1  0.25910368  0.93695093  0.07176877  1
  Te  Te133  1  0.24839647  0.90137108  0.41436143  1
  Te  Te134  1  0.25197944  0.92898717  0.76475258  1
  Te  Te135  1  0.58797594  0.23654903  0.07898081  1
  Te  Te136  1  0.57195730  0.24442276  0.41007353  1
  Te  Te137  1  0.55635411  0.26184472  0.76043131  1
  Te  Te138  1  0.59163716  0.58524287  0.07614173  1
  Te  Te139  1  0.60118110  0.56076816  0.39954013  1
  Te  Te140  1  0.57746867  0.58752250  0.73468185  1
  Te  Te141  1  0.57359323  0.91129110  0.10927157  1
  Te  Te142  1  0.59727564  0.92377617  0.43345691  1
  Te  Te143  1  0.60663318  0.91343448  0.76507380  1
  Te  Te144  1  0.90518001  0.25919201  0.07447755  1
  Te  Te145  1  0.91442278  0.26158351  0.42111578  1
  Te  Te146  1  0.90164566  0.24376360  0.73107358  1
  Te  Te147  1  0.94880779  0.59842392  0.06247325  1
  Te  Te148  1  0.92862494  0.59888450  0.39184066  1
  Te  Te149  1  0.92421367  0.60025224  0.76422549  1
  Te  Te150  1  0.94954821  0.88211061  0.11928004  1
  Te  Te151  1  0.90204973  0.88433203  0.38944811  1
  Te  Te152  1  0.91215317  0.92009889  0.75107788  1
  Te  Te153  1  0.32056949  0.10990382  0.25364175  1
  Te  Te154  1  0.24310337  0.07443708  0.56751398  1
  Te  Te155  1  0.28270337  0.12062264  0.91939631  1
  Te  Te156  1  0.23738340  0.41695260  0.22243881  1
  Te  Te157  1  0.22652413  0.42274945  0.57844023  1
  Te  Te158  1  0.25163357  0.41416970  0.94965583  1
  Te  Te159  1  0.25550163  0.74129219  0.24649846  1
  Te  Te160  1  0.25261822  0.74006969  0.59635233  1
  Te  Te161  1  0.25570023  0.74392116  0.92901809  1
  Te  Te162  1  0.57196559  0.09170847  0.26236398  1
  Te  Te163  1  0.57210064  0.09521046  0.59753524  1
  Te  Te164  1  0.59139623  0.07340418  0.93729604  1
  Te  Te165  1  0.55736981  0.40358995  0.21740258  1
  Te  Te166  1  0.60310594  0.42683833  0.57705886  1
  Te  Te167  1  0.54409468  0.40274099  0.91010845  1
  Te  Te168  1  0.59829345  0.73226184  0.27417243  1
  Te  Te169  1  0.56633122  0.77284535  0.59119774  1
  Te  Te170  1  0.59143291  0.75529742  0.90776878  1
  Te  Te171  1  0.90602970  0.06564763  0.22902641  1
  Te  Te172  1  0.92644296  0.08748223  0.57748378  1
  Te  Te173  1  0.91853783  0.09491065  0.91434604  1
  Te  Te174  1  0.96988933  0.38886352  0.28132325  1
  Te  Te175  1  0.91278676  0.42769001  0.57365998  1
  Te  Te176  1  0.91341083  0.43931278  0.92066799  1
  Te  Te177  1  0.95988864  0.76420567  0.21841512  1
  Te  Te178  1  0.92672751  0.72955281  0.57544537  1
  Te  Te179  1  0.92255296  0.72449143  0.94212288  1
