# generated using pymatgen
data_In2Te3
_symmetry_space_group_name_H-M   'P 1'
_cell_length_a   18.95516141
_cell_length_b   18.91866131
_cell_length_c   18.94816696
_cell_angle_alpha   89.97519181
_cell_angle_beta   90.01231463
_cell_angle_gamma   89.88571982
_symmetry_Int_Tables_number   1
_chemical_formula_structural   In2Te3
_chemical_formula_sum   'In72 Te108'
_cell_volume   6794.91733388
_cell_formula_units_Z   36
loop_
 _symmetry_equiv_pos_site_id
 _symmetry_equiv_pos_as_xyz
  1  'x, y, z'
loop_
 _atom_site_type_symbol
 _atom_site_label
 _atom_site_symmetry_multiplicity
 _atom_site_fract_x
 _atom_site_fract_y
 _atom_site_fract_z
 _atom_site_occupancy
  In  In0  1  -0.01144461  0.33823420  0.33823826  1
  In  In1  1  0.51376009  0.36213717  0.16463581  1
  In  In2  1  0.86859464  0.02149526  0.18916930  1
  In  In3  1  0.67419016  0.35932170  0.03840793  1
  In  In4  1  0.69422624  -0.01308727  0.65283862  1
  In  In5  1  0.71080864  0.18612891  0.49393391  1
  In  In6  1  0.50109506  0.82398857  0.31139172  1
  In  In7  1  0.31599746  0.19517176  0.49566333  1
  In  In8  1  0.51057600  0.50841383  0.67525001  1
  In  In9  1  0.32663683  0.01149680  0.64519729  1
  In  In10  1  0.51155220  0.31538262  0.52726613  1
  In  In11  1  0.49826516  -0.01862649  0.16503323  1
  In  In12  1  0.15376587  0.33278530  0.48402645  1
  In  In13  1  -0.01587010  0.84229588  0.49083542  1
  In  In14  1  0.67243413  0.21019589  0.18142764  1
  In  In15  1  0.68163395  0.00802650  0.01224287  1
  In  In16  1  0.13698265  0.80955777  0.00606037  1
  In  In17  1  0.67898088  0.80343696  0.15446463  1
  In  In18  1  0.50899560  0.79753016  0.67496645  1
  In  In19  1  0.50643083  0.65020904  0.18183255  1
  In  In20  1  0.86837592  0.66490527  0.84576891  1
  In  In21  1  0.85981355  0.02916051  0.46713202  1
  In  In22  1  0.71323725  0.46333763  0.47118309  1
  In  In23  1  0.47820933  0.17850000  0.33764055  1
  In  In24  1  0.31607027  0.66217639  0.68649898  1
  In  In25  1  -0.02564939  0.52567856  0.47992793  1
  In  In26  1  0.66132281  -0.00462913  0.33478828  1
  In  In27  1  0.14107337  0.67866707  0.18013120  1
  In  In28  1  -0.01859721  0.67111299  0.32394345  1
  In  In29  1  0.69183984  0.65386971  0.67179676  1
  In  In30  1  0.53415630  0.57608248  -0.01327447  1
  In  In31  1  -0.01737082  0.67373648  0.65059407  1
  In  In32  1  0.49733712  0.34340293  0.85378581  1
  In  In33  1  0.33801800  0.67204132  -0.00381192  1
  In  In34  1  0.85153369  -0.00746314  0.82225896  1
  In  In35  1  0.69755002  0.29924575  0.63379889  1
  In  In36  1  0.30043667  0.33116772  0.65146616  1
  In  In37  1  0.29749521  0.14234942  0.18618013  1
  In  In38  1  0.30258852  0.48175541  0.83151713  1
  In  In39  1  0.30905000  0.83868697  0.84582082  1
  In  In40  1  0.11291087  0.51033861  0.03663616  1
  In  In41  1  0.16240821  0.17689903  0.68632747  1
  In  In42  1  0.49488455  -0.02341981  0.83614786  1
  In  In43  1  -0.00008159  0.02195431  -0.00113874  1
  In  In44  1  0.87191689  0.34674315  0.16343700  1
  In  In45  1  0.66135675  0.16163903  0.85272135  1
  In  In46  1  0.52072264  0.12885398  0.69112326  1
  In  In47  1  0.83803975  0.85905054  0.64866428  1
  In  In48  1  0.31936909  0.53039187  0.46794811  1
  In  In49  1  0.15433612  0.17404201  0.00777786  1
  In  In50  1  0.84783757  0.21063014  0.02323119  1
  In  In51  1  0.49513811  0.01823761  0.48335608  1
  In  In52  1  0.31382989  0.82112435  0.18758704  1
  In  In53  1  0.82808842  0.81270756  0.00600783  1
  In  In54  1  0.33592788  0.32231123  0.02069335  1
  In  In55  1  0.33758483  0.83666880  0.50178751  1
  In  In56  1  0.32535338  0.49641182  0.17608093  1
  In  In57  1  0.67672625  0.78031793  0.87581537  1
  In  In58  1  0.17262726  0.00821838  0.82695705  1
  In  In59  1  0.85543691  0.36824206  0.85834588  1
  In  In60  1  0.14151518  0.83921956  0.31194414  1
  In  In61  1  0.82794720  0.82791327  0.32409949  1
  In  In62  1  0.69546570  0.52253129  0.83805712  1
  In  In63  1  0.12794270  0.01322953  0.44213986  1
  In  In64  1  0.30982947  0.36092298  0.32803859  1
  In  In65  1  0.52618942  0.66159579  0.49460511  1
  In  In66  1  0.14093550  0.33648212  0.86171268  1
  In  In67  1  0.00585409  0.33234091  0.68876829  1
  In  In68  1  0.84200382  0.49059953  0.66574393  1
  In  In69  1  0.51087938  0.46642890  0.33879196  1
  In  In70  1  0.33415351  -0.00305342  0.00923257  1
  In  In71  1  0.14122866  0.82497316  0.62922422  1
  Te  Te72  1  0.10319049  0.06411822  0.09988727  1
  Te  Te73  1  0.03726615  0.11988904  0.39242146  1
  Te  Te74  1  0.07157488  0.08404704  0.75347492  1
  Te  Te75  1  0.04834964  0.37923934  0.07151347  1
  Te  Te76  1  0.08208533  0.43917962  0.40731090  1
  Te  Te77  1  0.10099352  0.42647163  0.75146778  1
  Te  Te78  1  0.03912336  0.75656677  0.10431676  1
  Te  Te79  1  0.07595919  0.74934116  0.41501931  1
  Te  Te80  1  0.06572003  0.76133034  0.73622977  1
  Te  Te81  1  0.41058058  0.09149517  0.09979459  1
  Te  Te82  1  0.38264310  0.08331292  0.40829797  1
  Te  Te83  1  0.39978808  0.07320034  0.76414783  1
  Te  Te84  1  0.42154375  0.43867383  0.07232532  1
  Te  Te85  1  0.41401933  0.39755200  0.44324488  1
  Te  Te86  1  0.41150736  0.40883125  0.73275699  1
  Te  Te87  1  0.41819521  0.74653295  0.10412338  1
  Te  Te88  1  0.42408985  0.74394548  0.41699793  1
  Te  Te89  1  0.40978669  0.74338978  0.77421096  1
  Te  Te90  1  0.75606765  0.10828993  0.10288766  1
  Te  Te91  1  0.76095150  0.10203339  0.37618020  1
  Te  Te92  1  0.74863875  0.08801114  0.75289431  1
  Te  Te93  1  0.78541821  0.44496129  0.08510510  1
  Te  Te94  1  0.79730742  0.36293514  0.40046250  1
  Te  Te95  1  0.74349114  0.40814357  0.74740970  1
  Te  Te96  1  0.78046292  0.71143409  0.10172763  1
  Te  Te97  1  0.73189808  0.73248257  0.37474732  1
  Te  Te98  1  0.76639631  0.75709740  0.75363624  1
  Te  Te99  1  0.06781602  0.22556547  0.27664356  1
  Te  Te100  1  0.07689672  0.24576695  0.58145661  1
  Te  Te101  1  0.06166674  0.21813659  0.90020487  1
  Te  Te102  1  0.04922585  0.57258814  0.23149911  1
  Te  Te103  1  0.07215724  0.60207257  0.55960600  1
  Te  Te104  1  0.08277228  0.60088178  0.92629651  1
  Te  Te105  1  0.08857665  0.94159780  0.22017862  1
  Te  Te106  1  0.06916863  0.94445586  0.56471852  1
  Te  Te107  1  0.08455066  0.92440626  0.91711347  1
  Te  Te108  1  0.41215593  0.27632316  0.24362383  1
  Te  Te109  1  0.42092723  0.21869929  0.60380730  1
  Te  Te110  1  0.41164927  0.24680474  0.91981974  1
  Te  Te111  1  0.41937895  0.56862323  0.27392234  1
  Te  Te112  1  0.42112838  0.59152398  0.58454272  1
  Te  Te113  1  0.40432620  0.57001030  0.90460416  1
  Te  Te114  1  0.39749804  0.92470176  0.26283428  1
  Te  Te115  1  0.43597093  0.91528050  0.59311332  1
  Te  Te116  1  0.41867824  0.89219607  0.93637445  1
  Te  Te117  1  0.78134598  0.27327285  0.25883430  1
  Te  Te118  1  0.82526782  0.22073169  0.59065591  1
  Te  Te119  1  0.74069030  0.27036334  0.92473187  1
  Te  Te120  1  0.70772811  0.49681368  0.22157623  1
  Te  Te121  1  0.76487234  0.57496342  0.56671656  1
  Te  Te122  1  0.78572764  0.58159152  0.93578746  1
  Te  Te123  1  0.74294877  0.92728631  0.22654593  1
  Te  Te124  1  0.76206615  0.92501228  0.53458698  1
  Te  Te125  1  0.73715283  0.91993456  0.90101813  1
  Te  Te126  1  0.23231599  0.25605753  0.11149623  1
  Te  Te127  1  0.22833887  0.24342088  0.38324189  1
  Te  Te128  1  0.25042525  0.26164529  0.77385427  1
  Te  Te129  1  0.24682430  0.60209874  0.09504334  1
  Te  Te130  1  0.23798059  0.58595316  0.36365811  1
  Te  Te131  1  0.21965167  0.57037313  0.74839779  1
  Te  Te132  1  0.24363354  0.89499514  0.07580646  1
  Te  Te133  1  0.23663164  0.90946062  0.41447445  1
  Te  Te134  1  0.24716878  0.90519161  0.72306218  1
  Te  Te135  1  0.57380830  0.25084096  0.07408956  1
  Te  Te136  1  0.58846605  0.24505348  0.41780895  1
  Te  Te137  1  0.58436119  0.25274994  0.75137652  1
  Te  Te138  1  0.60842345  0.55888162  0.11923275  1
  Te  Te139  1  0.60451418  0.55902501  0.41487393  1
  Te  Te140  1  0.58538528  0.60257705  0.76677774  1
  Te  Te141  1  0.59142812  0.90236646  0.07583408  1
  Te  Te142  1  0.57469080  0.90527001  0.41966812  1
  Te  Te143  1  0.58995386  0.90991490  0.73895035  1
  Te  Te144  1  0.96977225  0.24611389  0.10190451  1
  Te  Te145  1  0.90939696  0.26918410  0.44491668  1
  Te  Te146  1  0.92285961  0.25864636  0.78704160  1
  Te  Te147  1  0.97054884  0.56863502  0.01553056  1
  Te  Te148  1  0.87582791  0.59273631  0.39195166  1
  Te  Te149  1  0.93690341  0.56474942  0.75546004  1
  Te  Te150  1  0.90241570  0.93256627  0.07376015  1
  Te  Te151  1  0.93029966  0.92787549  0.37857547  1
  Te  Te152  1  0.94140801  0.91275481  0.73782390  1
  Te  Te153  1  0.20265466  0.04406145  0.23911352  1
  Te  Te154  1  0.22717083  0.09241250  0.56560099  1
  Te  Te155  1  0.25364043  0.09208574  0.92324827  1
  Te  Te156  1  0.21323484  0.42634559  0.23988292  1
  Te  Te157  1  0.24128644  0.43481692  0.56291020  1
  Te  Te158  1  0.23527374  0.42087241  0.95369000  1
  Te  Te159  1  0.25232823  0.72208364  0.28640342  1
  Te  Te160  1  0.24840268  0.73433292  0.56973563  1
  Te  Te161  1  0.22506323  0.72946775  0.90900867  1
  Te  Te162  1  0.57178912  0.08841593  0.24940049  1
  Te  Te163  1  0.60380374  0.08911073  0.56632181  1
  Te  Te164  1  0.56765382  0.07253574  0.93120261  1
  Te  Te165  1  0.62126583  0.38460587  0.27114570  1
  Te  Te166  1  0.60113402  0.42409192  0.58524188  1
  Te  Te167  1  0.59202199  0.43880077  0.92414436  1
  Te  Te168  1  0.61370927  0.72413212  0.27484505  1
  Te  Te169  1  0.61668109  0.75012082  0.57868268  1
  Te  Te170  1  0.58268731  0.71620141  0.96908024  1
  Te  Te171  1  0.94941070  0.12314708  0.26004286  1
  Te  Te172  1  0.88379598  0.07966238  0.60167386  1
  Te  Te173  1  0.89028391  0.09805524  0.92561940  1
  Te  Te174  1  0.94326307  0.44976443  0.24578527  1
  Te  Te175  1  0.93446252  0.41214850  0.57888920  1
  Te  Te176  1  0.95912916  0.42084560  0.95109118  1
  Te  Te177  1  0.92300554  0.76842789  0.22574086  1
  Te  Te178  1  0.88693864  0.74797055  0.55723425  1
  Te  Te179  1  0.93128865  0.78181226  0.90768829  1
