# generated using pymatgen
data_In2Te3
_symmetry_space_group_name_H-M   'P 1'
_cell_length_a   18.89992324
_cell_length_b   18.91392417
_cell_length_c   18.91657737
_cell_angle_alpha   89.93883930
_cell_angle_beta   89.95759712
_cell_angle_gamma   90.04429982
_symmetry_Int_Tables_number   1
_chemical_formula_structural   In2Te3
_chemical_formula_sum   'In72 Te108'
_cell_volume   6762.13362235
_cell_formula_units_Z   36
loop_
 _symmetry_equiv_pos_site_id
 _symmetry_equiv_pos_as_xyz
  1  'x, y, z'
loop_
 _atom_site_type_symbol
 _atom_site_label
 _atom_site_symmetry_multiplicity
 _atom_site_fract_x
 _atom_site_fract_y
 _atom_site_fract_z
 _atom_site_occupancy
  In  In0  1  0.32188404  0.67449686  -0.01356620  1
  In  In1  1  0.33377325  0.83587739  0.51121373  1
  In  In2  1  0.66913340  0.32925741  0.01732115  1
  In  In3  1  0.82922604  -0.00343697  0.16187560  1
  In  In4  1  0.15628967  0.84182353  0.69475933  1
  In  In5  1  -0.00362873  0.82675186  0.15199059  1
  In  In6  1  0.15235750  0.34447912  0.49517598  1
  In  In7  1  0.16237851  -0.01421979  0.84834494  1
  In  In8  1  0.86267217  0.69412077  0.87433239  1
  In  In9  1  0.33343950  0.15181963  0.14821534  1
  In  In10  1  0.67932558  0.18155607  0.49515417  1
  In  In11  1  0.01769601  0.64999475  0.32611772  1
  In  In12  1  0.47849973  0.00308394  0.84279396  1
  In  In13  1  0.16098598  0.83021401  0.00718064  1
  In  In14  1  0.49767915  0.84906237  0.31736260  1
  In  In15  1  -0.00161047  -0.02222744  0.33800698  1
  In  In16  1  0.16612438  0.49934918  0.67531554  1
  In  In17  1  0.67304563  0.50007936  0.15357439  1
  In  In18  1  0.81532414  0.85057113  0.31946596  1
  In  In19  1  0.66830519  0.31333989  0.66383108  1
  In  In20  1  0.01439387  -0.00008282  0.68663827  1
  In  In21  1  0.68153107  0.50355358  0.47866620  1
  In  In22  1  0.52968965  0.32514883  0.83106809  1
  In  In23  1  0.67526072  0.17512296  0.83276744  1
  In  In24  1  0.33766540  0.00573995  0.32167668  1
  In  In25  1  0.03498972  0.14175010  0.14888686  1
  In  In26  1  0.84955458  0.66426594  0.51200494  1
  In  In27  1  0.16893427  0.51683125  -0.00170215  1
  In  In28  1  0.49817201  0.33846555  0.18382944  1
  In  In29  1  0.17602143  0.00218612  0.52417200  1
  In  In30  1  0.85087256  0.48155546  0.64552371  1
  In  In31  1  0.34304458  0.48330030  0.18604185  1
  In  In32  1  0.32697113  0.50444972  0.82405710  1
  In  In33  1  0.69486377  0.69107030  0.02440652  1
  In  In34  1  -0.02310424  0.54461035  0.15675343  1
  In  In35  1  0.82636715  0.02317984  0.48281098  1
  In  In36  1  -0.01200079  0.20145379  0.47345201  1
  In  In37  1  0.67804766  0.67317404  0.71378432  1
  In  In38  1  0.68039154  0.33577571  0.30893964  1
  In  In39  1  0.31654447  0.33969049  0.00422504  1
  In  In40  1  0.48659540  0.16510198  0.03549302  1
  In  In41  1  0.34128287  0.66652886  0.68846958  1
  In  In42  1  0.49567664  0.67430923  0.52863232  1
  In  In43  1  0.69203006  0.84725455  0.85581095  1
  In  In44  1  0.16490189  0.65478308  0.49393496  1
  In  In45  1  0.33496011  0.15140315  0.51497491  1
  In  In46  1  0.52568077  0.84453164  -0.01420153  1
  In  In47  1  0.15694145  0.18042479  0.33666485  1
  In  In48  1  0.49291209  0.83998707  0.66054721  1
  In  In49  1  0.31861072  0.29768968  0.67170423  1
  In  In50  1  0.32022831  0.15581943  0.84461335  1
  In  In51  1  0.31311060  0.66346209  0.32826451  1
  In  In52  1  0.67400315  0.53233658  0.84653658  1
  In  In53  1  0.84971215  0.36176287  0.83024678  1
  In  In54  1  0.00837603  0.52025705  0.84947587  1
  In  In55  1  0.00046933  0.32083285  0.65674216  1
  In  In56  1  0.67486689  0.86053639  0.47866888  1
  In  In57  1  0.83017708  0.48591304  0.31827080  1
  In  In58  1  0.47340564  0.67204010  0.82683706  1
  In  In59  1  0.45970768  0.34416646  0.44772208  1
  In  In60  1  0.03585156  0.31156676  -0.03098785  1
  In  In61  1  0.48190224  0.48261417  0.63557533  1
  In  In62  1  0.16161728  0.81057685  0.32256110  1
  In  In63  1  0.67873952  0.00074732  -0.00045113  1
  In  In64  1  0.83198339  0.13198261  0.68464865  1
  In  In65  1  0.66432894  0.00692642  0.66134934  1
  In  In66  1  0.50860039  0.68515540  0.16030522  1
  In  In67  1  -0.00295209  0.66374953  0.67299320  1
  In  In68  1  0.16839903  0.32897200  0.17022553  1
  In  In69  1  0.52192202  0.14549913  0.29578908  1
  In  In70  1  0.87561642  0.13868906  -0.03002096  1
  In  In71  1  0.63703195  0.66213563  0.33522004  1
  Te  Te72  1  0.06451420  0.04935892  0.03272124  1
  Te  Te73  1  0.08311196  0.07615899  0.42333301  1
  Te  Te74  1  0.08744436  0.10009540  0.77345042  1
  Te  Te75  1  0.08673463  0.41482921  0.07647359  1
  Te  Te76  1  0.03771211  0.40130698  0.42664120  1
  Te  Te77  1  0.06962450  0.41468129  0.75568956  1
  Te  Te78  1  0.08224471  0.72730452  0.08206776  1
  Te  Te79  1  0.06984692  0.75223785  0.42835567  1
  Te  Te80  1  0.06353956  0.75358462  0.77184919  1
  Te  Te81  1  0.42022363  0.04503725  0.09230008  1
  Te  Te82  1  0.42518791  0.09237754  0.40750875  1
  Te  Te83  1  0.41612389  0.09674502  0.74903910  1
  Te  Te84  1  0.42637108  0.41798761  0.07562798  1
  Te  Te85  1  0.36977550  0.43494218  0.37867440  1
  Te  Te86  1  0.41909870  0.40186135  0.75266540  1
  Te  Te87  1  0.42088198  0.76190669  0.06499533  1
  Te  Te88  1  0.41944344  0.74855568  0.41786507  1
  Te  Te89  1  0.39592880  0.78636133  0.76486698  1
  Te  Te90  1  0.76518063  0.10377309  0.06982858  1
  Te  Te91  1  0.73928228  0.09690401  0.38573695  1
  Te  Te92  1  0.74737349  0.05163076  0.78318981  1
  Te  Te93  1  0.76889233  0.40023267  0.10067230  1
  Te  Te94  1  0.76691284  0.39319810  0.42343335  1
  Te  Te95  1  0.73082727  0.42138057  0.75113445  1
  Te  Te96  1  0.80158680  0.76717037  0.09374616  1
  Te  Te97  1  0.74118928  0.73561420  0.42152233  1
  Te  Te98  1  0.78436380  0.76890812  0.76373250  1
  Te  Te99  1  0.06056062  0.25770666  0.25004968  1
  Te  Te100  1  0.09405623  0.23030350  0.58016917  1
  Te  Te101  1  0.09972603  0.20954013  0.88526508  1
  Te  Te102  1  0.09898840  0.57020590  0.23484241  1
  Te  Te103  1  0.07150781  0.56988597  0.57978334  1
  Te  Te104  1  0.07017846  0.61434845  0.94596870  1
  Te  Te105  1  0.09253879  0.91524269  0.23780692  1
  Te  Te106  1  0.07544167  0.90486882  0.58250790  1
  Te  Te107  1  0.05890766  0.87094099  0.89175217  1
  Te  Te108  1  0.40778483  0.23693369  0.25039723  1
  Te  Te109  1  0.42823569  0.26083136  0.57161603  1
  Te  Te110  1  0.42796618  0.25934236  0.92556771  1
  Te  Te111  1  0.42649707  0.59449924  0.24950934  1
  Te  Te112  1  0.38342867  0.57783173  0.57146734  1
  Te  Te113  1  0.41870042  0.56988458  0.92451086  1
  Te  Te114  1  0.38252113  0.89409079  0.23590006  1
  Te  Te115  1  0.42416666  0.93402945  0.57201399  1
  Te  Te116  1  0.40608400  0.91631201  0.93623144  1
  Te  Te117  1  0.76606276  0.21973220  0.27729204  1
  Te  Te118  1  0.78022017  0.24360722  0.59136091  1
  Te  Te119  1  0.76699159  0.26020661  0.91827418  1
  Te  Te120  1  0.74340336  0.59334048  0.25171390  1
  Te  Te121  1  0.73949912  0.58394293  0.59556334  1
  Te  Te122  1  0.77752284  0.58518241  0.94252980  1
  Te  Te123  1  0.72739122  0.95293714  0.26197959  1
  Te  Te124  1  0.76357064  0.92174256  0.58490082  1
  Te  Te125  1  0.77318877  0.88582222  0.97453779  1
  Te  Te126  1  0.23031599  0.23314585  0.06906630  1
  Te  Te127  1  0.25374852  0.24809006  0.42979128  1
  Te  Te128  1  0.22859513  0.25786769  0.78330745  1
  Te  Te129  1  0.26658400  0.58072818  0.09355226  1
  Te  Te130  1  0.23312315  0.56262553  0.40184442  1
  Te  Te131  1  0.22676320  0.60359556  0.76833680  1
  Te  Te132  1  0.18997885  0.96618890  0.06300651  1
  Te  Te133  1  0.24258396  0.91426357  0.41510681  1
  Te  Te134  1  0.25192459  0.94681644  0.73512164  1
  Te  Te135  1  0.59359130  0.24110355  0.11448994  1
  Te  Te136  1  0.57537614  0.25821059  0.39745470  1
  Te  Te137  1  0.57106282  0.21787642  0.73049018  1
  Te  Te138  1  0.58687098  0.59259179  0.06869842  1
  Te  Te139  1  0.55621589  0.57409975  0.42894651  1
  Te  Te140  1  0.55690453  0.57469733  0.73716755  1
  Te  Te141  1  0.58706983  0.92835922  0.09508034  1
  Te  Te142  1  0.55757908  0.92932346  0.42662701  1
  Te  Te143  1  0.58558350  0.91208148  0.76550401  1
  Te  Te144  1  0.94461181  0.23460234  0.06505748  1
  Te  Te145  1  0.88111361  0.23845848  0.38116198  1
  Te  Te146  1  0.91077178  0.24621460  0.75509996  1
  Te  Te147  1  0.87517195  0.63124290  0.09315843  1
  Te  Te148  1  0.91561207  0.57383135  0.41164317  1
  Te  Te149  1  0.89641417  0.57620466  0.75801688  1
  Te  Te150  1  0.94963647  0.95192581  0.08016313  1
  Te  Te151  1  0.90516512  0.90256706  0.43077939  1
  Te  Te152  1  0.91639929  0.93553789  0.77467221  1
  Te  Te153  1  0.23283924  0.08577077  0.24544668  1
  Te  Te154  1  0.25592321  0.08081977  0.61996608  1
  Te  Te155  1  0.25756507  0.05963110  0.94051322  1
  Te  Te156  1  0.26157517  0.39029735  0.27112630  1
  Te  Te157  1  0.25487894  0.41006821  0.59147265  1
  Te  Te158  1  0.23204319  0.41609961  0.90314675  1
  Te  Te159  1  0.26085696  0.75852436  0.22756489  1
  Te  Te160  1  0.24037973  0.74603776  0.59405467  1
  Te  Te161  1  0.24817567  0.76965171  0.90360242  1
  Te  Te162  1  0.56673755  0.04151052  0.20286637  1
  Te  Te163  1  0.58913547  0.08963828  0.56731159  1
  Te  Te164  1  0.57902813  0.09724176  0.92513018  1
  Te  Te165  1  0.58070440  0.43990496  0.25972767  1
  Te  Te166  1  0.59485597  0.40703976  0.56783003  1
  Te  Te167  1  0.59535884  0.42542524  0.92488358  1
  Te  Te168  1  0.60479587  0.77382005  0.23749230  1
  Te  Te169  1  0.60402453  0.75557207  0.59863933  1
  Te  Te170  1  0.59639665  0.73088481  0.90230208  1
  Te  Te171  1  0.93224622  0.07574180  0.24419050  1
  Te  Te172  1  0.93062324  0.08476946  0.57685197  1
  Te  Te173  1  0.94127516  0.05076747  0.86848073  1
  Te  Te174  1  0.90880019  0.42340045  0.21061967  1
  Te  Te175  1  0.93982162  0.40870265  0.54796773  1
  Te  Te176  1  0.92982497  0.42519459  0.93986867  1
  Te  Te177  1  0.92206189  0.75826070  0.26821411  1
  Te  Te178  1  0.91153723  0.76035300  0.60177194  1
  Te  Te179  1  0.94007571  0.79350801  0.95189578  1
