# generated using pymatgen
data_In2Te3
_symmetry_space_group_name_H-M   'P 1'
_cell_length_a   18.94811298
_cell_length_b   18.94779450
_cell_length_c   18.97305402
_cell_angle_alpha   90.21593126
_cell_angle_beta   90.11731718
_cell_angle_gamma   90.10483133
_symmetry_Int_Tables_number   1
_chemical_formula_structural   In2Te3
_chemical_formula_sum   'In72 Te108'
_cell_volume   6811.72563937
_cell_formula_units_Z   36
loop_
 _symmetry_equiv_pos_site_id
 _symmetry_equiv_pos_as_xyz
  1  'x, y, z'
loop_
 _atom_site_type_symbol
 _atom_site_label
 _atom_site_symmetry_multiplicity
 _atom_site_fract_x
 _atom_site_fract_y
 _atom_site_fract_z
 _atom_site_occupancy
  In  In0  1  0.19145894  0.33820033  0.50694268  1
  In  In1  1  0.65830648  0.52022870  0.50064292  1
  In  In2  1  0.03286033  0.31010141  -0.02410400  1
  In  In3  1  0.18457683  0.49416486  -0.02271924  1
  In  In4  1  0.80710687  0.51694655  -0.02677609  1
  In  In5  1  0.00291862  0.15595925  0.49024500  1
  In  In6  1  0.01910321  0.84849610  0.50087011  1
  In  In7  1  0.35435273  -0.06744000  0.67134714  1
  In  In8  1  -0.01888224  0.48184152  0.81744725  1
  In  In9  1  0.35456083  0.70142757  -0.01647678  1
  In  In10  1  0.32161872  0.36040742  0.67121736  1
  In  In11  1  0.19252688  0.82794849  0.33769295  1
  In  In12  1  0.20110138  0.27679380  0.16084806  1
  In  In13  1  0.17809959  0.15451377  0.65630112  1
  In  In14  1  0.82195913  0.19772632  0.66549153  1
  In  In15  1  0.36337394  0.68943956  0.34003761  1
  In  In16  1  0.49535462  0.17115728  0.66624516  1
  In  In17  1  -0.00623337  0.68826871  0.33083894  1
  In  In18  1  0.81853031  -0.01705714  0.83929336  1
  In  In19  1  0.33194492  0.47525420  0.16709863  1
  In  In20  1  0.16979039  0.83517957  0.01794496  1
  In  In21  1  0.16264725  0.68411501  0.84836386  1
  In  In22  1  0.65566150  0.31971343  0.00836173  1
  In  In23  1  0.35597841  0.72016498  0.67615805  1
  In  In24  1  -0.00238040  0.64802921  0.68417430  1
  In  In25  1  -0.01843602  -0.00513831  0.01299042  1
  In  In26  1  -0.00950618  0.80924740  0.85396229  1
  In  In27  1  0.78832993  0.69352033  0.13667087  1
  In  In28  1  0.37607662  -0.01523362  -0.02110167  1
  In  In29  1  0.48940487  0.68309493  0.51462561  1
  In  In30  1  0.47485814  0.31309890  0.17499778  1
  In  In31  1  0.35993438  0.14327793  0.84439125  1
  In  In32  1  0.49697519  0.31464245  0.83179071  1
  In  In33  1  -0.00515737  0.31552325  0.34278637  1
  In  In34  1  0.83995528  -0.00322108  0.47651195  1
  In  In35  1  0.80241926  0.69197941  0.48503158  1
  In  In36  1  0.20419960  0.51343547  0.36000411  1
  In  In37  1  0.35616540  0.14387503  0.48956893  1
  In  In38  1  -0.00351719  0.83476425  0.14500718  1
  In  In39  1  0.65977976  0.66867834  0.66373465  1
  In  In40  1  0.65937427  0.31469559  0.33974252  1
  In  In41  1  0.83971795  0.82670093  0.67030284  1
  In  In42  1  -0.03139048  0.67566823  -0.01686760  1
  In  In43  1  -0.01251604  0.12691261  0.19543877  1
  In  In44  1  -0.00337966  0.34655557  0.67984349  1
  In  In45  1  0.18241549  0.66632901  0.19452296  1
  In  In46  1  0.65125168  0.84342661  0.83600454  1
  In  In47  1  0.84594050  0.13568353  0.32317873  1
  In  In48  1  0.67732506  0.12239312  0.17397881  1
  In  In49  1  0.64442142  0.52130856  0.17170998  1
  In  In50  1  0.52251554  0.70386521  0.15582572  1
  In  In51  1  0.01779836  0.49934577  0.13956833  1
  In  In52  1  0.33127722  0.52775867  0.82492381  1
  In  In53  1  0.02698102  -0.00158941  0.64888289  1
  In  In54  1  0.65358664  0.51836535  0.81774924  1
  In  In55  1  0.81877585  0.31807905  0.84789159  1
  In  In56  1  0.35303077  0.30556339  0.34991071  1
  In  In57  1  0.17399115  0.02323193  0.48673758  1
  In  In58  1  0.65640448  0.01600551  0.64958371  1
  In  In59  1  0.48924307  -0.01524912  0.18096639  1
  In  In60  1  -0.01121684  0.49507840  0.51507690  1
  In  In61  1  0.65674761  0.85651670  0.20840107  1
  In  In62  1  0.67074348  0.34736369  0.66064040  1
  In  In63  1  0.65085043  0.85058629  0.46942161  1
  In  In64  1  0.51742775  0.33152738  0.49050574  1
  In  In65  1  0.32937492  0.31171420  0.03052974  1
  In  In66  1  0.19893268  0.00475746  0.19430095  1
  In  In67  1  0.15212291  0.31546421  0.83295491  1
  In  In68  1  0.80934522  0.51159271  0.31538409  1
  In  In69  1  0.84607432  0.33287212  0.15203196  1
  In  In70  1  0.82718897  0.14509572  0.02167047  1
  In  In71  1  0.50387814  0.51640025  0.35381085  1
  Te  Te72  1  0.08439889  0.06112550  0.10163898  1
  Te  Te73  1  0.06576440  0.06402926  0.39334213  1
  Te  Te74  1  0.09325405  0.08125262  0.74967447  1
  Te  Te75  1  0.11615997  0.39334997  0.07797509  1
  Te  Te76  1  0.08583630  0.41247993  0.41879187  1
  Te  Te77  1  0.10434515  0.43085676  0.74605855  1
  Te  Te78  1  0.08490657  0.71827135  0.08226371  1
  Te  Te79  1  0.10051116  0.74324894  0.42368312  1
  Te  Te80  1  0.08272593  0.75982646  0.74330000  1
  Te  Te81  1  0.43402330  0.07639707  0.07892302  1
  Te  Te82  1  0.41228938  0.04464530  0.39343572  1
  Te  Te83  1  0.44058642  0.05118175  0.74491993  1
  Te  Te84  1  0.43430185  0.41706757  0.07272799  1
  Te  Te85  1  0.41011448  0.42479035  0.42802467  1
  Te  Te86  1  0.42692157  0.42669530  0.75657797  1
  Te  Te87  1  0.41729824  0.78186882  0.08870263  1
  Te  Te88  1  0.40576647  0.79322467  0.44722972  1
  Te  Te89  1  0.44075566  0.77618451  0.78548261  1
  Te  Te90  1  0.73122644  0.03955074  0.06324310  1
  Te  Te91  1  0.74005646  0.07681198  0.40570118  1
  Te  Te92  1  0.75468564  0.08625481  0.74330620  1
  Te  Te93  1  0.74090769  0.42286501  0.09049421  1
  Te  Te94  1  0.73927763  0.42221855  0.41531543  1
  Te  Te95  1  0.75990229  0.42323844  0.75790249  1
  Te  Te96  1  0.69455061  0.79132290  0.07564749  1
  Te  Te97  1  0.76626656  0.79905120  0.38958414  1
  Te  Te98  1  0.74780796  0.74878961  0.75861670  1
  Te  Te99  1  0.08102933  0.23532412  0.25030203  1
  Te  Te100  1  0.07974354  0.25291512  0.58223664  1
  Te  Te101  1  0.11579599  0.20279531  0.92026664  1
  Te  Te102  1  0.08676672  0.57637580  0.27113468  1
  Te  Te103  1  0.08051104  0.58628524  0.58152221  1
  Te  Te104  1  0.07041281  0.57482804  0.91566000  1
  Te  Te105  1  0.09619058  0.89666074  0.24037499  1
  Te  Te106  1  0.13094958  0.91132221  0.58225665  1
  Te  Te107  1  0.07700708  0.91160661  0.92573066  1
  Te  Te108  1  0.39106142  0.20746068  0.24081097  1
  Te  Te109  1  0.40498976  0.26448485  0.58229489  1
  Te  Te110  1  0.44001297  0.23529568  0.94823478  1
  Te  Te111  1  0.41447330  0.57639276  0.24576420  1
  Te  Te112  1  0.43120764  0.60079840  0.62208662  1
  Te  Te113  1  0.41768816  0.57984264  0.93003310  1
  Te  Te114  1  0.37004210  0.95917216  0.27215001  1
  Te  Te115  1  0.44660652  0.90928399  0.55854856  1
  Te  Te116  1  0.45747385  0.88782557  0.89710298  1
  Te  Te117  1  0.76164471  0.24758994  0.24362010  1
  Te  Te118  1  0.72897838  0.25059853  0.56688560  1
  Te  Te119  1  0.73318306  0.21999205  0.92514816  1
  Te  Te120  1  0.72388531  0.62036479  0.25535459  1
  Te  Te121  1  0.76385301  0.58725321  0.58732369  1
  Te  Te122  1  0.70308599  0.60686039  0.92661960  1
  Te  Te123  1  0.76435753  0.93284485  0.27552917  1
  Te  Te124  1  0.75562605  0.91219543  0.57793276  1
  Te  Te125  1  0.69312534  0.96471162  0.91546401  1
  Te  Te126  1  0.24901909  0.18998203  0.05307630  1
  Te  Te127  1  0.24268101  0.22592232  0.42047548  1
  Te  Te128  1  0.26654781  0.24053386  0.74878848  1
  Te  Te129  1  0.25113901  0.57759790  0.08681902  1
  Te  Te130  1  0.27344809  0.61933959  0.43690802  1
  Te  Te131  1  0.24954310  0.62027029  0.74180688  1
  Te  Te132  1  0.26625461  0.93370609  0.07811939  1
  Te  Te133  1  0.26828443  0.94042075  0.40383851  1
  Te  Te134  1  0.25356197  0.90852961  0.77474542  1
  Te  Te135  1  0.58757895  0.23356240  0.11196846  1
  Te  Te136  1  0.55044043  0.23056003  0.38939324  1
  Te  Te137  1  0.60157197  0.24395456  0.74800151  1
  Te  Te138  1  0.57571615  0.59753640  0.06825501  1
  Te  Te139  1  0.59065654  0.62449800  0.41526295  1
  Te  Te140  1  0.55472723  0.59580242  0.73842041  1
  Te  Te141  1  0.58191350  0.90825504  0.08846065  1
  Te  Te142  1  0.55090588  0.96080200  0.45671128  1
  Te  Te143  1  0.57962053  0.92491655  0.73569963  1
  Te  Te144  1  0.94036308  0.23620266  0.08389358  1
  Te  Te145  1  0.89561176  0.24244481  0.42752004  1
  Te  Te146  1  0.92746848  0.24694336  0.76982104  1
  Te  Te147  1  0.89096669  0.58351433  0.08588161  1
  Te  Te148  1  0.90185752  0.59162556  0.40905860  1
  Te  Te149  1  0.89829160  0.59454923  0.77623719  1
  Te  Te150  1  0.88831343  0.88802681  0.05720482  1
  Te  Te151  1  0.95217108  0.93457348  0.40231277  1
  Te  Te152  1  0.93148860  0.91880786  0.74924862  1
  Te  Te153  1  0.26444476  0.11770467  0.26079862  1
  Te  Te154  1  0.28505592  0.06391510  0.59957741  1
  Te  Te155  1  0.27037030  0.02365244  0.87539226  1
  Te  Te156  1  0.24928080  0.39604084  0.26510318  1
  Te  Te157  1  0.25067932  0.44960124  0.58041900  1
  Te  Te158  1  0.26887799  0.39011476  0.90834090  1
  Te  Te159  1  0.28680127  0.76700468  0.23298654  1
  Te  Te160  1  0.29379007  0.75222307  0.54474427  1
  Te  Te161  1  0.25948073  0.78882152  0.90037666  1
  Te  Te162  1  0.59204053  0.05177787  0.26764091  1
  Te  Te163  1  0.57117020  0.09934623  0.56000705  1
  Te  Te164  1  0.50167108  0.10243109  0.87858617  1
  Te  Te165  1  0.57242945  0.41434999  0.25514169  1
  Te  Te166  1  0.57011086  0.43492415  0.58894595  1
  Te  Te167  1  0.58942722  0.41012139  0.90947505  1
  Te  Te168  1  0.54928651  0.78147140  0.27677695  1
  Te  Te169  1  0.58679159  0.77599024  0.58785932  1
  Te  Te170  1  0.54398793  0.75821434  0.90126815  1
  Te  Te171  1  0.87989861  0.02542698  0.22436095  1
  Te  Te172  1  0.91295164  0.08450789  0.59190968  1
  Te  Te173  1  0.91140218  0.08216745  0.91199181  1
  Te  Te174  1  0.92023111  0.41799765  0.25469280  1
  Te  Te175  1  0.89950884  0.41239150  0.59361131  1
  Te  Te176  1  0.91416314  0.40692651  0.94034649  1
  Te  Te177  1  0.90187195  0.75027143  0.22887860  1
  Te  Te178  1  0.92283168  0.74950264  0.56795646  1
  Te  Te179  1  0.87090754  0.77540004  0.93551591  1
