# generated using pymatgen
data_In2Te3
_symmetry_space_group_name_H-M   'P 1'
_cell_length_a   18.95426436
_cell_length_b   18.96674341
_cell_length_c   18.92759768
_cell_angle_alpha   89.94605533
_cell_angle_beta   90.09730347
_cell_angle_gamma   89.89452821
_symmetry_Int_Tables_number   1
_chemical_formula_structural   In2Te3
_chemical_formula_sum   'In72 Te108'
_cell_volume   6804.45964347
_cell_formula_units_Z   36
loop_
 _symmetry_equiv_pos_site_id
 _symmetry_equiv_pos_as_xyz
  1  'x, y, z'
loop_
 _atom_site_type_symbol
 _atom_site_label
 _atom_site_symmetry_multiplicity
 _atom_site_fract_x
 _atom_site_fract_y
 _atom_site_fract_z
 _atom_site_occupancy
  In  In0  1  0.01948079  0.83248485  0.81572501  1
  In  In1  1  0.15999844  0.01838097  0.50459811  1
  In  In2  1  0.52867659  0.31745675  0.77391163  1
  In  In3  1  0.83425893  0.17249510  0.00712960  1
  In  In4  1  0.33895450  0.16107737  0.50860504  1
  In  In5  1  0.51490503  0.49846659  0.35280058  1
  In  In6  1  0.65863626  0.69366365  -0.01310655  1
  In  In7  1  0.34108178  0.14643927  0.81198612  1
  In  In8  1  0.14019772  0.63394762  0.51051994  1
  In  In9  1  0.32748995  0.00468654  0.34793207  1
  In  In10  1  0.33601859  0.47749553  0.18925002  1
  In  In11  1  0.83910251  0.33362140  0.20754669  1
  In  In12  1  -0.00609134  0.67103904  0.34368105  1
  In  In13  1  0.68160670  0.02915390  0.65205601  1
  In  In14  1  0.81510464  0.02668478  0.81623588  1
  In  In15  1  0.12268548  0.34590567  0.48433240  1
  In  In16  1  0.65227628  0.80382714  0.53530416  1
  In  In17  1  0.48459758  0.36704324  0.18550695  1
  In  In18  1  0.81774878  0.85512299  0.33980021  1
  In  In19  1  0.33321097  0.31733479  -0.02468399  1
  In  In20  1  0.51760975  0.47873504  0.65755132  1
  In  In21  1  0.68295014  0.83837955  0.80678206  1
  In  In22  1  0.51417603  -0.00827111  0.50490164  1
  In  In23  1  0.67651990  0.49896901  0.79999424  1
  In  In24  1  0.50412703  0.51975427  -0.02360217  1
  In  In25  1  0.65355964  0.84431408  0.18537535  1
  In  In26  1  0.49150052  0.81248880  0.33097642  1
  In  In27  1  0.35727122  0.82201570  0.82872896  1
  In  In28  1  -0.02437388  0.15590220  0.20780984  1
  In  In29  1  0.01146701  0.02524132  0.00164822  1
  In  In30  1  0.13579747  0.19964188  0.65982950  1
  In  In31  1  0.89213822  0.07130317  0.45564134  1
  In  In32  1  0.67655941  0.19402468  0.16465245  1
  In  In33  1  0.81777430  0.47266918  0.63286712  1
  In  In34  1  0.16812383  0.01223720  0.84537464  1
  In  In35  1  -0.02085715  0.49450475  0.18581170  1
  In  In36  1  0.67284971  0.64643958  0.36044448  1
  In  In37  1  0.31907528  0.50653497  0.85002254  1
  In  In38  1  0.17543260  -0.00990562  0.18506136  1
  In  In39  1  0.34703674  -0.01940872  0.66239603  1
  In  In40  1  0.84268956  0.82005379  0.66043651  1
  In  In41  1  0.52636850  0.01603654  0.16825076  1
  In  In42  1  0.34368714  0.31726286  0.65939536  1
  In  In43  1  0.17561047  0.81336041  0.65497361  1
  In  In44  1  -0.00613153  0.67109593  -0.00070752  1
  In  In45  1  0.34550471  0.67824254  0.00193536  1
  In  In46  1  0.18056801  0.70016261  0.17820228  1
  In  In47  1  0.66683139  0.33072141  -0.00324721  1
  In  In48  1  0.33085506  0.15606529  0.18100537  1
  In  In49  1  0.87123831  0.32283095  0.79684108  1
  In  In50  1  0.33759846  0.65470991  0.68032353  1
  In  In51  1  0.00783913  0.85185100  0.17609079  1
  In  In52  1  0.65908990  0.01185161  0.33347636  1
  In  In53  1  0.30467321  0.33109040  0.33949578  1
  In  In54  1  0.00770024  0.02192701  0.65607662  1
  In  In55  1  0.66770761  0.51840787  0.18932910  1
  In  In56  1  0.52069562  0.14957323  -0.01092573  1
  In  In57  1  0.80050925  0.66545088  0.17270663  1
  In  In58  1  0.34529262  0.65738518  0.33835323  1
  In  In59  1  0.12677608  0.31900944  0.18208620  1
  In  In60  1  0.83664983  0.46658987  -0.01593494  1
  In  In61  1  0.84462390  0.62087955  0.80802176  1
  In  In62  1  0.71660112  0.28731748  0.41844583  1
  In  In63  1  0.29805542  0.49915228  0.50102541  1
  In  In64  1  0.84778053  0.63615260  0.52066382  1
  In  In65  1  0.33616314  0.83177552  0.16197347  1
  In  In66  1  0.16143723  0.19126575  -0.00664036  1
  In  In67  1  0.87189076  0.85727851  -0.00732066  1
  In  In68  1  0.10918670  0.33792546  0.79326799  1
  In  In69  1  0.17158321  0.66412758  0.82068260  1
  In  In70  1  0.51136934  0.00253838  0.82508616  1
  In  In71  1  0.14851454  0.52107977  0.01748197  1
  Te  Te72  1  0.09139558  0.10725371  0.10066109  1
  Te  Te73  1  0.04698257  0.09191987  0.44173395  1
  Te  Te74  1  0.07842384  0.10190217  0.76435787  1
  Te  Te75  1  0.06049665  0.41638462  0.08393853  1
  Te  Te76  1  0.05722603  0.45159060  0.40378341  1
  Te  Te77  1  0.04339770  0.41801549  0.68901947  1
  Te  Te78  1  0.08522091  0.76352911  0.07642256  1
  Te  Te79  1  0.08212579  0.74527038  0.43270431  1
  Te  Te80  1  0.07074261  0.72458829  0.72344177  1
  Te  Te81  1  0.41892523  0.08320346  0.08160503  1
  Te  Te82  1  0.43347541  0.08936583  0.41502984  1
  Te  Te83  1  0.43846216  0.08850509  0.71302861  1
  Te  Te84  1  0.41026433  0.42914540  0.05560679  1
  Te  Te85  1  0.39821642  0.42221360  0.41587678  1
  Te  Te86  1  0.40660871  0.41685825  0.76168002  1
  Te  Te87  1  0.43533449  0.75852809  0.08380716  1
  Te  Te88  1  0.43438269  0.72497818  0.43266665  1
  Te  Te89  1  0.43192504  0.76963876  0.71017171  1
  Te  Te90  1  0.73248409  0.09338520  0.07575448  1
  Te  Te91  1  0.73695986  0.07027627  0.44510784  1
  Te  Te92  1  0.74814722  0.13608811  0.73632759  1
  Te  Te93  1  0.74730744  0.41352277  0.10231344  1
  Te  Te94  1  0.76662780  0.42557818  0.46143303  1
  Te  Te95  1  0.74274186  0.38400613  0.73267262  1
  Te  Te96  1  0.76447781  0.77020143  0.06742662  1
  Te  Te97  1  0.76481316  0.74444475  0.43227964  1
  Te  Te98  1  0.75713025  0.72183653  0.73721836  1
  Te  Te99  1  0.05867625  0.24560785  0.28799565  1
  Te  Te100  1  0.05134656  0.22574475  0.53992389  1
  Te  Te101  1  0.06296546  0.26130192  0.90998743  1
  Te  Te102  1  0.07321067  0.60437486  0.23130207  1
  Te  Te103  1  0.06204604  0.53295017  0.58494550  1
  Te  Te104  1  0.07029483  0.58292921  0.90190922  1
  Te  Te105  1  0.09066198  0.91576826  0.27727473  1
  Te  Te106  1  0.08122449  0.91175912  0.58487028  1
  Te  Te107  1  0.08487513  0.91432379  0.92605129  1
  Te  Te108  1  0.41228447  0.25666342  0.26180761  1
  Te  Te109  1  0.44142907  0.25971687  0.56206381  1
  Te  Te110  1  0.43540273  0.24059768  0.89331888  1
  Te  Te111  1  0.43499186  0.57650935  0.24482209  1
  Te  Te112  1  0.40904427  0.56000271  0.58541619  1
  Te  Te113  1  0.42226094  0.61134179  0.88753901  1
  Te  Te114  1  0.42848625  0.93232711  0.25731612  1
  Te  Te115  1  0.40088225  0.90510672  0.54795877  1
  Te  Te116  1  0.41071696  0.93322160  0.90602496  1
  Te  Te117  1  0.77147370  0.22048332  0.27807863  1
  Te  Te118  1  0.77789988  0.26539675  0.55647548  1
  Te  Te119  1  0.76990484  0.26870951  0.90870107  1
  Te  Te120  1  0.77799641  0.56406682  0.28326360  1
  Te  Te121  1  0.72446850  0.57516111  0.57639209  1
  Te  Te122  1  0.74479065  0.57273686  0.92240322  1
  Te  Te123  1  0.75404294  0.94563032  0.23529599  1
  Te  Te124  1  0.75062544  0.90931280  0.58083562  1
  Te  Te125  1  0.76063538  0.92190798  0.91219324  1
  Te  Te126  1  0.25785989  0.26572201  0.09904007  1
  Te  Te127  1  0.23317968  0.24228720  0.43691680  1
  Te  Te128  1  0.24398472  0.25789263  0.76665846  1
  Te  Te129  1  0.25995478  0.59069397  0.09679376  1
  Te  Te130  1  0.22917558  0.57895957  0.39303683  1
  Te  Te131  1  0.23317881  0.55607658  0.73487020  1
  Te  Te132  1  0.25002343  0.91894411  0.08270311  1
  Te  Te133  1  0.25836289  0.92202421  0.44925101  1
  Te  Te134  1  0.23958288  0.91206545  0.75432160  1
  Te  Te135  1  0.55658954  0.26931336  0.08503332  1
  Te  Te136  1  0.56810607  0.29864556  0.44237638  1
  Te  Te137  1  0.60318658  0.19409320  0.75329694  1
  Te  Te138  1  0.58941621  0.59096845  0.07912976  1
  Te  Te139  1  0.59409113  0.56747484  0.45741717  1
  Te  Te140  1  0.58053030  0.58854716  0.73412543  1
  Te  Te141  1  0.58570700  0.91679310  0.07865336  1
  Te  Te142  1  0.59638322  0.89214319  0.41293493  1
  Te  Te143  1  0.59301432  0.92807281  0.72166993  1
  Te  Te144  1  0.91707621  0.25479753  0.10270354  1
  Te  Te145  1  0.87084232  0.25607192  0.43925232  1
  Te  Te146  1  0.93718599  0.22850996  0.70475843  1
  Te  Te147  1  0.89846517  0.58299233  0.07834218  1
  Te  Te148  1  0.94824892  0.55909993  0.43578363  1
  Te  Te149  1  0.92713820  0.54076481  0.71495700  1
  Te  Te150  1  0.92029135  0.95274876  0.09889016  1
  Te  Te151  1  0.91559413  0.92339600  0.42399671  1
  Te  Te152  1  0.91901219  0.92722609  0.75167181  1
  Te  Te153  1  0.23058587  0.09852921  0.27848610  1
  Te  Te154  1  0.24405223  0.09356796  0.61352041  1
  Te  Te155  1  0.26088132  0.09374044  0.93269287  1
  Te  Te156  1  0.21335062  0.42096186  0.25692221  1
  Te  Te157  1  0.23465783  0.39031223  0.58405282  1
  Te  Te158  1  0.22612231  0.41874984  0.93124044  1
  Te  Te159  1  0.26172557  0.77387248  0.28050707  1
  Te  Te160  1  0.25660047  0.72131641  0.56988793  1
  Te  Te161  1  0.24718764  0.75438890  0.91380415  1
  Te  Te162  1  0.58222320  0.12153959  0.26164948  1
  Te  Te163  1  0.60897681  0.10124172  0.54200010  1
  Te  Te164  1  0.61336526  0.08992111  0.89153676  1
  Te  Te165  1  0.60517592  0.40536806  0.26888508  1
  Te  Te166  1  0.57302236  0.36422489  0.58231742  1
  Te  Te167  1  0.58290049  0.41365458  0.90006851  1
  Te  Te168  1  0.59350298  0.72663403  0.25537461  1
  Te  Te169  1  0.56373821  0.73841270  0.63045730  1
  Te  Te170  1  0.58255739  0.76498651  0.88586302  1
  Te  Te171  1  0.93005429  0.05411455  0.30653205  1
  Te  Te172  1  0.89429278  0.10925979  0.61504527  1
  Te  Te173  1  0.91844922  0.09606161  0.90543677  1
  Te  Te174  1  0.94176953  0.39957689  0.29433834  1
  Te  Te175  1  0.89326427  0.38339820  0.53641994  1
  Te  Te176  1  0.93830669  0.41488048  0.89350925  1
  Te  Te177  1  0.90143133  0.75703234  0.24137813  1
  Te  Te178  1  0.93395483  0.73995290  0.57964351  1
  Te  Te179  1  0.91043135  0.74369095  0.89069431  1
