# generated using pymatgen
data_In2Te3
_symmetry_space_group_name_H-M   'P 1'
_cell_length_a   18.76648329
_cell_length_b   18.76419903
_cell_length_c   18.76915533
_cell_angle_alpha   90.04839152
_cell_angle_beta   90.05907371
_cell_angle_gamma   89.96914907
_symmetry_Int_Tables_number   1
_chemical_formula_structural   In2Te3
_chemical_formula_sum   'In72 Te108'
_cell_volume   6609.32651054
_cell_formula_units_Z   36
loop_
 _symmetry_equiv_pos_site_id
 _symmetry_equiv_pos_as_xyz
  1  'x, y, z'
loop_
 _atom_site_type_symbol
 _atom_site_label
 _atom_site_symmetry_multiplicity
 _atom_site_fract_x
 _atom_site_fract_y
 _atom_site_fract_z
 _atom_site_occupancy
  In  In0  1  0.48638010  -0.01565926  0.51981312  1
  In  In1  1  -0.00439665  0.81947553  0.16421341  1
  In  In2  1  0.83719700  0.66808927  0.81530973  1
  In  In3  1  0.32225537  -0.02909807  0.36970747  1
  In  In4  1  0.83924719  0.65473134  0.48496817  1
  In  In5  1  -0.01551610  0.66082283  -0.01441682  1
  In  In6  1  0.16140976  0.48820917  0.67225125  1
  In  In7  1  0.50975042  -0.00964960  0.19220242  1
  In  In8  1  0.49110217  0.80771905  -0.00230894  1
  In  In9  1  0.30380292  0.15951041  0.53546240  1
  In  In10  1  0.50416528  0.17564205  0.34557291  1
  In  In11  1  0.32024694  -0.00122584  -0.00338045  1
  In  In12  1  0.32743995  0.65217313  0.35613057  1
  In  In13  1  -0.01221418  0.00365197  -0.02881290  1
  In  In14  1  0.68188486  0.81532470  0.16227037  1
  In  In15  1  0.48876844  0.16232495  0.67504993  1
  In  In16  1  0.85963931  0.84024323  0.33324031  1
  In  In17  1  0.46707420  0.80879970  0.36232755  1
  In  In18  1  0.83530567  0.16960879  -0.01079119  1
  In  In19  1  -0.00673806  0.01141487  0.35677888  1
  In  In20  1  0.83576696  0.32919145  0.83923265  1
  In  In21  1  0.84078163  0.85962442  0.68417272  1
  In  In22  1  0.69187135  0.00102746  0.35391891  1
  In  In23  1  0.66403058  0.63906950  0.34073231  1
  In  In24  1  0.84370512  0.32386383  0.50269241  1
  In  In25  1  0.30874018  0.17155985  0.15315210  1
  In  In26  1  0.65824369  0.49815255  0.50693521  1
  In  In27  1  0.16777630  0.50114252  0.34393566  1
  In  In28  1  0.83910283  0.49592263  0.65611243  1
  In  In29  1  0.70488045  0.15424536  0.79980394  1
  In  In30  1  0.49836246  0.49709132  0.34649361  1
  In  In31  1  0.17530619  0.16681238  0.35888043  1
  In  In32  1  0.47440288  0.38292975  0.14219221  1
  In  In33  1  0.31755349  0.83887841  0.81389142  1
  In  In34  1  0.68520935  0.19485680  0.15302592  1
  In  In35  1  0.15022735  0.02500687  0.80951974  1
  In  In36  1  0.15613613  0.20730864  -0.01205686  1
  In  In37  1  0.66737841  0.49455488  0.15379058  1
  In  In38  1  0.31012244  0.19244304  0.78966378  1
  In  In39  1  0.66549646  0.83981720  0.84157507  1
  In  In40  1  0.00408826  0.35510494  0.34005491  1
  In  In41  1  0.66372947  0.83140886  0.52100072  1
  In  In42  1  0.68273855  -0.00388504  -0.00998095  1
  In  In43  1  0.02127269  0.32898891  -0.01626391  1
  In  In44  1  0.17021606  0.80955237  0.36518908  1
  In  In45  1  -0.01735379  0.17277592  0.15604464  1
  In  In46  1  0.00101827  0.34006901  0.67499578  1
  In  In47  1  0.15773697  -0.00813355  0.16686852  1
  In  In48  1  0.02598778  0.84266840  0.52753668  1
  In  In49  1  0.82756640  0.17409835  0.32523747  1
  In  In50  1  0.82813192  0.82868803  -0.00802277  1
  In  In51  1  0.49520699  0.18084318  -0.00602287  1
  In  In52  1  0.51513825  0.64248951  0.16712167  1
  In  In53  1  0.15610067  0.35302208  0.16923126  1
  In  In54  1  0.15716486  0.65086191  0.18095516  1
  In  In55  1  0.49840018  0.35910395  0.81497063  1
  In  In56  1  0.47258491  0.51917039  0.64369083  1
  In  In57  1  0.49994972  0.65958152  0.83937097  1
  In  In58  1  0.34305609  0.64855644  -0.00664594  1
  In  In59  1  0.48888089  0.81849260  0.67982645  1
  In  In60  1  0.00685799  0.14580000  0.53909179  1
  In  In61  1  0.66410901  0.49819327  0.82951362  1
  In  In62  1  0.16994216  0.86484792  -0.00526430  1
  In  In63  1  0.67459596  0.17880944  0.51419085  1
  In  In64  1  0.49968959  0.33628219  0.49167326  1
  In  In65  1  0.84131709  0.49630458  0.01225865  1
  In  In66  1  0.34601323  0.32665808  0.34357899  1
  In  In67  1  0.17386675  0.66593237  0.79602422  1
  In  In68  1  0.49365466  0.01653802  0.80807210  1
  In  In69  1  0.01049453  0.65632827  0.65620820  1
  In  In70  1  0.84738459  0.50623920  0.32775429  1
  In  In71  1  0.17201033  0.48922989  -0.01719968  1
  Te  Te72  1  0.08882251  0.08816811  0.06875595  1
  Te  Te73  1  0.10748727  0.06128023  0.44490501  1
  Te  Te74  1  0.04167132  0.08599842  0.72545539  1
  Te  Te75  1  0.06660536  0.43839412  0.08430697  1
  Te  Te76  1  0.10381514  0.40155269  0.43618301  1
  Te  Te77  1  0.08749961  0.40938309  0.77872681  1
  Te  Te78  1  0.09491911  0.75096820  0.06914917  1
  Te  Te79  1  0.06524849  0.73336650  0.43536662  1
  Te  Te80  1  0.09017948  0.76264589  0.72423924  1
  Te  Te81  1  0.42526424  0.07947568  0.08778856  1
  Te  Te82  1  0.40605807  0.09345397  0.42885272  1
  Te  Te83  1  0.37751278  0.06938987  0.72627595  1
  Te  Te84  1  0.39110675  0.43125520  0.02739149  1
  Te  Te85  1  0.39552500  0.43529181  0.44018781  1
  Te  Te86  1  0.38982226  0.42715796  0.73328542  1
  Te  Te87  1  0.40957770  0.73715607  0.10176576  1
  Te  Te88  1  0.39557493  0.73215889  0.47622063  1
  Te  Te89  1  0.39202644  0.72186907  0.75047234  1
  Te  Te90  1  0.76348239  0.07862250  0.08985405  1
  Te  Te91  1  0.77735610  0.08857272  0.44244839  1
  Te  Te92  1  0.77541984  0.06231231  0.70926100  1
  Te  Te93  1  0.74851082  0.39875987  0.07435393  1
  Te  Te94  1  0.75692091  0.42193711  0.42019622  1
  Te  Te95  1  0.74757401  0.40712882  0.73895260  1
  Te  Te96  1  0.75945981  0.72721669  0.07428407  1
  Te  Te97  1  0.74189515  0.75641959  0.40538903  1
  Te  Te98  1  0.73942995  0.75472939  0.73751007  1
  Te  Te99  1  0.09356592  0.23339992  0.24475881  1
  Te  Te100  1  0.09659467  0.25219166  0.59573758  1
  Te  Te101  1  0.09290928  0.26642847  0.86646311  1
  Te  Te102  1  0.06418669  0.57423624  0.26503264  1
  Te  Te103  1  0.11459765  0.59113622  0.57118382  1
  Te  Te104  1  0.08952685  0.59005751  0.90083445  1
  Te  Te105  1  0.08037332  0.90910449  0.26970257  1
  Te  Te106  1  0.10826823  0.94110513  0.60391328  1
  Te  Te107  1  0.07582389  0.91117182  0.88712162  1
  Te  Te108  1  0.42351282  0.24824092  0.23629295  1
  Te  Te109  1  0.40960387  0.25866546  0.58881187  1
  Te  Te110  1  0.41132443  0.25232205  0.88953410  1
  Te  Te111  1  0.40746801  0.57219869  0.24993793  1
  Te  Te112  1  0.37158092  0.60597833  0.57420885  1
  Te  Te113  1  0.42615498  0.55160769  0.91498776  1
  Te  Te114  1  0.40301364  0.90330381  0.25729041  1
  Te  Te115  1  0.39274680  0.90634857  0.60337619  1
  Te  Te116  1  0.42549733  0.91159889  0.90562337  1
  Te  Te117  1  0.76193744  0.27987651  0.24663616  1
  Te  Te118  1  0.76086861  0.25699809  0.60532771  1
  Te  Te119  1  0.72820568  0.25086683  0.91775105  1
  Te  Te120  1  0.75757546  0.59117983  0.23408760  1
  Te  Te121  1  0.74414159  0.59499182  0.58867484  1
  Te  Te122  1  0.75817769  0.58445722  0.91390503  1
  Te  Te123  1  0.76033832  0.91837541  0.24410949  1
  Te  Te124  1  0.74533131  0.93274497  0.59196678  1
  Te  Te125  1  0.77736586  0.93468256  0.88947097  1
  Te  Te126  1  0.25953753  0.28781541  0.06760786  1
  Te  Te127  1  0.24395239  0.27098283  0.44348589  1
  Te  Te128  1  0.21781753  0.27696383  0.70809680  1
  Te  Te129  1  0.25003946  0.57201595  0.08930404  1
  Te  Te130  1  0.23515779  0.58302811  0.45328112  1
  Te  Te131  1  0.26866691  0.56244562  0.75144134  1
  Te  Te132  1  0.26761886  0.90344074  0.10559930  1
  Te  Te133  1  0.25193191  0.88296908  0.47110207  1
  Te  Te134  1  0.21870224  0.91353798  0.73014550  1
  Te  Te135  1  0.57196608  0.27356221  0.08566046  1
  Te  Te136  1  0.60826323  0.26827617  0.40793489  1
  Te  Te137  1  0.58803003  0.24318999  0.75640343  1
  Te  Te138  1  0.57607613  0.56414159  0.05830447  1
  Te  Te139  1  0.55994139  0.59880947  0.44272230  1
  Te  Te140  1  0.58186693  0.58539140  0.73460327  1
  Te  Te141  1  0.58445650  0.91234061  0.07386413  1
  Te  Te142  1  0.57262108  0.92122853  0.40861165  1
  Te  Te143  1  0.58933934  0.92234669  0.73698814  1
  Te  Te144  1  0.90788012  0.27450482  0.07494827  1
  Te  Te145  1  0.94224341  0.23126117  0.41896511  1
  Te  Te146  1  0.91296735  0.24286935  0.74688518  1
  Te  Te147  1  0.92252838  0.58897099  0.09677610  1
  Te  Te148  1  0.94452877  0.57758801  0.41648705  1
  Te  Te149  1  0.93312483  0.56703237  0.75327971  1
  Te  Te150  1  0.91769815  0.91979593  0.07894865  1
  Te  Te151  1  0.91500925  0.92102860  0.45012618  1
  Te  Te152  1  0.95023654  0.95632104  0.72280411  1
  Te  Te153  1  0.25767644  0.07202655  0.26224479  1
  Te  Te154  1  0.20850666  0.06251014  0.59238570  1
  Te  Te155  1  0.24793237  0.10111294  0.91027417  1
  Te  Te156  1  0.26383723  0.42012698  0.25325872  1
  Te  Te157  1  0.27119944  0.39710434  0.62269373  1
  Te  Te158  1  0.27560761  0.40249097  0.92508223  1
  Te  Te159  1  0.25385158  0.74350122  0.25612770  1
  Te  Te160  1  0.27652527  0.76178464  0.56885935  1
  Te  Te161  1  0.25023747  0.75197717  0.92245096  1
  Te  Te162  1  0.60435083  0.09538036  0.25742132  1
  Te  Te163  1  0.58386700  0.07961627  0.58874600  1
  Te  Te164  1  0.58606774  0.08613183  0.91017068  1
  Te  Te165  1  0.57902835  0.41154379  0.25145195  1
  Te  Te166  1  0.57961130  0.40815953  0.59967951  1
  Te  Te167  1  0.57980531  0.41934410  0.92297507  1
  Te  Te168  1  0.57794730  0.75377969  0.25810023  1
  Te  Te169  1  0.57192389  0.73782050  0.58585259  1
  Te  Te170  1  0.60279267  0.73054395  0.92865621  1
  Te  Te171  1  0.90971257  0.07106327  0.24372691  1
  Te  Te172  1  0.90373168  0.06576679  0.61628936  1
  Te  Te173  1  0.92935128  0.11242669  0.88991094  1
  Te  Te174  1  0.91253039  0.40551356  0.23819190  1
  Te  Te175  1  0.93836746  0.42800745  0.56327970  1
  Te  Te176  1  0.92985544  0.42737029  0.90786755  1
  Te  Te177  1  0.92017185  0.73148895  0.25468915  1
  Te  Te178  1  0.90371825  0.75031676  0.58805529  1
  Te  Te179  1  0.92668398  0.76640417  0.89121606  1
