# generated using pymatgen
data_In2Te3
_symmetry_space_group_name_H-M   'P 1'
_cell_length_a   18.78045485
_cell_length_b   18.77971020
_cell_length_c   18.78880843
_cell_angle_alpha   89.93598975
_cell_angle_beta   90.00469876
_cell_angle_gamma   90.08372265
_symmetry_Int_Tables_number   1
_chemical_formula_structural   In2Te3
_chemical_formula_sum   'In72 Te108'
_cell_volume   6626.64178794
_cell_formula_units_Z   36
loop_
 _symmetry_equiv_pos_site_id
 _symmetry_equiv_pos_as_xyz
  1  'x, y, z'
loop_
 _atom_site_type_symbol
 _atom_site_label
 _atom_site_symmetry_multiplicity
 _atom_site_fract_x
 _atom_site_fract_y
 _atom_site_fract_z
 _atom_site_occupancy
  In  In0  1  0.15976768  0.82295505  0.30977168  1
  In  In1  1  0.00532206  0.00218695  -0.01588472  1
  In  In2  1  0.50903305  0.50146240  0.68353228  1
  In  In3  1  0.84575059  -0.01474833  0.49118657  1
  In  In4  1  0.18894801  -0.01302074  0.83728270  1
  In  In5  1  0.34011855  0.32681893  -0.00687205  1
  In  In6  1  -0.02762419  0.30343684  0.67855685  1
  In  In7  1  0.83414122  0.67746873  0.51146330  1
  In  In8  1  0.17857530  0.00881400  0.51328280  1
  In  In9  1  -0.03898437  0.14484069  0.81528255  1
  In  In10  1  -0.01849185  0.64383857  -0.00690114  1
  In  In11  1  0.49593369  0.32063089  0.49591577  1
  In  In12  1  0.53514199  0.81443492  0.30494341  1
  In  In13  1  0.35996338  0.32513865  0.65809524  1
  In  In14  1  0.49905261  0.67312226  0.50753233  1
  In  In15  1  0.51954314  0.01489677  0.14637271  1
  In  In16  1  0.17110864  0.83933261  -0.00221392  1
  In  In17  1  0.52592461  0.31735884  0.13657634  1
  In  In18  1  0.18149071  0.16319887  0.65955358  1
  In  In19  1  0.81925271  0.67146531  0.83305158  1
  In  In20  1  -0.00151784  0.16201550  0.49105231  1
  In  In21  1  0.81267912  0.16940422  0.71283013  1
  In  In22  1  0.18194359  0.17268329  0.32819431  1
  In  In23  1  -0.01351488  0.84323643  0.18664760  1
  In  In24  1  0.15622908  0.33803829  0.16150025  1
  In  In25  1  0.32839875  0.82279210  0.16601299  1
  In  In26  1  0.67181549  -0.00245355  0.33413797  1
  In  In27  1  0.38849740  0.15474911  0.82277443  1
  In  In28  1  0.64888912  0.67111918  0.00085464  1
  In  In29  1  0.17669152  0.50791045  0.33997170  1
  In  In30  1  -0.01094009  0.66729061  0.33044068  1
  In  In31  1  0.79653374  0.01298157  0.86656980  1
  In  In32  1  0.80791839  0.03186202  0.14094876  1
  In  In33  1  -0.01676002  0.50165430  0.85536080  1
  In  In34  1  0.80924566  0.82166602  -0.00413290  1
  In  In35  1  0.17115225  0.65968362  0.48340322  1
  In  In36  1  0.67166380  0.32494982  0.32449580  1
  In  In37  1  0.49741250  0.48165829  -0.01536040  1
  In  In38  1  0.03758799  0.50335708  0.50615289  1
  In  In39  1  0.81919011  0.16495258  0.32591535  1
  In  In40  1  0.33305663  0.32569447  0.32945427  1
  In  In41  1  0.47500298  0.52846802  0.30729346  1
  In  In42  1  0.82721911  0.50355087  0.30539977  1
  In  In43  1  0.16086312  0.17623642  -0.00370008  1
  In  In44  1  0.35240845  -0.00723034  0.01777832  1
  In  In45  1  0.68435349  0.47529389  0.14320772  1
  In  In46  1  0.50402194  0.82720303  -0.00711794  1
  In  In47  1  0.66234923  0.51226973  0.50446636  1
  In  In48  1  0.34711272  0.85491701  0.83531191  1
  In  In49  1  0.16005939  0.50910636  0.65560122  1
  In  In50  1  0.83923087  0.50758061  0.68616730  1
  In  In51  1  0.17979970  0.66964016  0.14631546  1
  In  In52  1  0.65761138  0.49828636  0.84533569  1
  In  In53  1  0.34392205  0.66815015  0.66766300  1
  In  In54  1  0.64080224  0.29863619  0.70978584  1
  In  In55  1  0.35273370  0.83053438  0.49966441  1
  In  In56  1  0.15404637  0.82422310  0.70397727  1
  In  In57  1  0.66370972  0.84935960  0.50391878  1
  In  In58  1  0.16566764  0.34609017  0.83631279  1
  In  In59  1  0.82971070  0.83743868  0.32933702  1
  In  In60  1  0.50158310  0.16594507  0.33304901  1
  In  In61  1  0.34287659  0.50309155  0.82411025  1
  In  In62  1  -0.02405998  0.49399240  0.15012183  1
  In  In63  1  0.81797510  0.83073675  0.68297828  1
  In  In64  1  -0.01621273  -0.01428052  0.66889414  1
  In  In65  1  0.51092560  0.85781733  0.67564300  1
  In  In66  1  0.33957946  0.01122082  0.32876547  1
  In  In67  1  0.34741035  0.67810486  0.00369328  1
  In  In68  1  0.82091992  0.31510154  0.52864074  1
  In  In69  1  -0.02146318  0.16491496  0.16150435  1
  In  In70  1  -0.02149520  0.33180831  0.00968560  1
  In  In71  1  0.17894918  0.34251681  0.47597831  1
  Te  Te72  1  0.08453165  0.08118158  0.08811766  1
  Te  Te73  1  0.08914933  0.07587517  0.40739149  1
  Te  Te74  1  0.08962635  0.08020223  0.75203566  1
  Te  Te75  1  0.08417319  0.42919439  0.06264360  1
  Te  Te76  1  0.07079097  0.40817803  0.39132902  1
  Te  Te77  1  0.06763683  0.41910314  0.74278711  1
  Te  Te78  1  0.07166011  0.75906590  0.08353393  1
  Te  Te79  1  0.07319493  0.75807117  0.41888871  1
  Te  Te80  1  0.06230106  0.72126013  0.74872869  1
  Te  Te81  1  0.43270225  0.10561218  0.06863718  1
  Te  Te82  1  0.42283700  0.08330324  0.42658317  1
  Te  Te83  1  0.45780232  0.04606385  0.73431317  1
  Te  Te84  1  0.41443208  0.41459389  0.09436476  1
  Te  Te85  1  0.42096193  0.42114169  0.41030853  1
  Te  Te86  1  0.43715604  0.39729232  0.76914738  1
  Te  Te87  1  0.44554371  0.73946036  0.10665741  1
  Te  Te88  1  0.42714631  0.74862431  0.39612817  1
  Te  Te89  1  0.43162895  0.75274208  0.75777176  1
  Te  Te90  1  0.70799217  0.10349504  0.05053608  1
  Te  Te91  1  0.74550113  0.08547170  0.43467335  1
  Te  Te92  1  0.71410532  0.06075959  0.74690562  1
  Te  Te93  1  0.78563308  0.40340145  0.06252027  1
  Te  Te94  1  0.75266907  0.41581436  0.42559096  1
  Te  Te95  1  0.74309080  0.41035412  0.75028670  1
  Te  Te96  1  0.72711232  0.75318719  0.10231674  1
  Te  Te97  1  0.73894384  0.74919301  0.41527882  1
  Te  Te98  1  0.71885478  0.76571901  0.77447838  1
  Te  Te99  1  0.07170862  0.24836911  0.25121922  1
  Te  Te100  1  0.08809313  0.26157861  0.57914002  1
  Te  Te101  1  0.06559769  0.24919445  0.90222752  1
  Te  Te102  1  0.08216117  0.58504387  0.24172790  1
  Te  Te103  1  0.07191895  0.62238162  0.59662143  1
  Te  Te104  1  0.09116728  0.58063649  0.91797020  1
  Te  Te105  1  0.08890537  0.93294507  0.24264248  1
  Te  Te106  1  0.08845892  0.91065304  0.58989243  1
  Te  Te107  1  0.07572960  0.90119877  0.89419655  1
  Te  Te108  1  0.42350776  0.24964582  0.23376008  1
  Te  Te109  1  0.44813518  0.22197568  0.59762474  1
  Te  Te110  1  0.44593755  0.24617182  0.92613820  1
  Te  Te111  1  0.40239587  0.61789478  0.21716299  1
  Te  Te112  1  0.41646680  0.56617018  0.58048701  1
  Te  Te113  1  0.43260964  0.59608211  0.90506523  1
  Te  Te114  1  0.43000714  0.91642261  0.23697252  1
  Te  Te115  1  0.43731397  0.93414695  0.56693920  1
  Te  Te116  1  0.44698176  0.94325967  0.90927523  1
  Te  Te117  1  0.75533844  0.25385774  0.22487837  1
  Te  Te118  1  0.72110120  0.22578789  0.59955794  1
  Te  Te119  1  0.72344368  0.20524118  0.92558039  1
  Te  Te120  1  0.71934596  0.58363267  0.24374324  1
  Te  Te121  1  0.74356429  0.59558754  0.60415158  1
  Te  Te122  1  0.75272938  0.58018255  0.93422226  1
  Te  Te123  1  0.74742417  0.92000236  0.22934022  1
  Te  Te124  1  0.74640515  0.93749509  0.59566667  1
  Te  Te125  1  0.70734228  0.91734194  0.94111906  1
  Te  Te126  1  0.25610385  0.24498090  0.09283956  1
  Te  Te127  1  0.27450783  0.23187359  0.43603373  1
  Te  Te128  1  0.26003253  0.25196881  0.76115807  1
  Te  Te129  1  0.26979731  0.57518278  0.07824936  1
  Te  Te130  1  0.27555853  0.57258659  0.42817191  1
  Te  Te131  1  0.24167691  0.59375093  0.75422512  1
  Te  Te132  1  0.23942097  0.92942427  0.09932504  1
  Te  Te133  1  0.24981475  0.90646498  0.41132757  1
  Te  Te134  1  0.26923970  0.92556277  0.72414773  1
  Te  Te135  1  0.63266351  0.24227719  0.06389822  1
  Te  Te136  1  0.60208431  0.23557788  0.42653262  1
  Te  Te137  1  0.54971094  0.20554096  0.78676286  1
  Te  Te138  1  0.57537118  0.56677545  0.08467899  1
  Te  Te139  1  0.58034397  0.59209814  0.40549673  1
  Te  Te140  1  0.59585314  0.59674189  0.75292482  1
  Te  Te141  1  0.60015075  0.91417393  0.07122197  1
  Te  Te142  1  0.56563626  0.92071627  0.41115806  1
  Te  Te143  1  0.59631092  0.95430273  0.75121346  1
  Te  Te144  1  0.87936094  0.25503425  0.09294291  1
  Te  Te145  1  0.90673069  0.25650357  0.41509852  1
  Te  Te146  1  0.88224417  0.27733381  0.79772256  1
  Te  Te147  1  0.88419819  0.59356527  0.09143461  1
  Te  Te148  1  0.91264513  0.57414015  0.42573533  1
  Te  Te149  1  0.93324648  0.61144331  0.74737632  1
  Te  Te150  1  0.90683453  0.92313752  0.07454667  1
  Te  Te151  1  0.93558942  0.90583558  0.40776078  1
  Te  Te152  1  0.89529259  0.92778268  0.77598982  1
  Te  Te153  1  0.26424210  0.09509308  0.23397983  1
  Te  Te154  1  0.28163258  0.08231776  0.58922509  1
  Te  Te155  1  0.26347859  0.09122291  0.91851265  1
  Te  Te156  1  0.25590022  0.42364149  0.24045621  1
  Te  Te157  1  0.25874932  0.41643653  0.58353582  1
  Te  Te158  1  0.25193833  0.43274270  0.92603671  1
  Te  Te159  1  0.26502408  0.72086691  0.26501406  1
  Te  Te160  1  0.24871553  0.75649882  0.58572037  1
  Te  Te161  1  0.25431006  0.75300557  0.90563245  1
  Te  Te162  1  0.60434649  0.09889901  0.24224058  1
  Te  Te163  1  0.53971257  0.05745677  0.61282472  1
  Te  Te164  1  0.61049974  0.11560501  0.90045473  1
  Te  Te165  1  0.57315854  0.41547872  0.25235436  1
  Te  Te166  1  0.59134489  0.40555611  0.59084095  1
  Te  Te167  1  0.59961998  0.39039559  0.92936654  1
  Te  Te168  1  0.62774642  0.73353495  0.22503569  1
  Te  Te169  1  0.59251437  0.75161018  0.59730903  1
  Te  Te170  1  0.59086402  0.75692029  0.89284488  1
  Te  Te171  1  0.90882039  0.06481574  0.25463940  1
  Te  Te172  1  0.90956147  0.10071557  0.59945838  1
  Te  Te173  1  0.89680290  0.10242571  0.94577030  1
  Te  Te174  1  0.91412355  0.40138301  0.24712760  1
  Te  Te175  1  0.91945601  0.42375138  0.58322145  1
  Te  Te176  1  0.88159927  0.42711408  0.93884530  1
  Te  Te177  1  0.89164661  0.73222080  0.23383694  1
  Te  Te178  1  0.91300607  0.77991610  0.58132881  1
  Te  Te179  1  0.91871177  0.75806977  0.91293508  1
