# generated using pymatgen
data_In2Te3
_symmetry_space_group_name_H-M   'P 1'
_cell_length_a   18.77210187
_cell_length_b   18.77691973
_cell_length_c   18.77437751
_cell_angle_alpha   89.97852150
_cell_angle_beta   89.97011063
_cell_angle_gamma   89.95462844
_symmetry_Int_Tables_number   1
_chemical_formula_structural   In2Te3
_chemical_formula_sum   'In72 Te108'
_cell_volume   6617.63138528
_cell_formula_units_Z   36
loop_
 _symmetry_equiv_pos_site_id
 _symmetry_equiv_pos_as_xyz
  1  'x, y, z'
loop_
 _atom_site_type_symbol
 _atom_site_label
 _atom_site_symmetry_multiplicity
 _atom_site_fract_x
 _atom_site_fract_y
 _atom_site_fract_z
 _atom_site_occupancy
  In  In0  1  0.01258338  0.00710444  0.33795899  1
  In  In1  1  0.47778287  0.18186173  0.67504936  1
  In  In2  1  0.34241860  0.83569091  0.17468313  1
  In  In3  1  0.48698003  0.65953991  0.82120486  1
  In  In4  1  0.68092369  0.15737673  0.50095385  1
  In  In5  1  0.64642103  0.17488539  0.18549972  1
  In  In6  1  0.17173667  0.65849515  0.15932350  1
  In  In7  1  0.18399663  0.50222831  0.34198574  1
  In  In8  1  0.32234986  0.80783368  0.51697277  1
  In  In9  1  0.84500609  0.32722502  0.83320992  1
  In  In10  1  0.31960257  -0.01613234  0.65158257  1
  In  In11  1  0.17545734  0.17671190  0.33964028  1
  In  In12  1  0.48987710  0.15602963  0.33833384  1
  In  In13  1  0.51334830  0.69021717  0.52656722  1
  In  In14  1  0.00780695  0.50463430  0.16058855  1
  In  In15  1  0.00057436  -0.01665294  0.67035987  1
  In  In16  1  0.64547564  -0.00392670  0.00153921  1
  In  In17  1  0.86800991  -0.00964234  0.81054903  1
  In  In18  1  0.31547424  0.16627851  0.17439828  1
  In  In19  1  0.68391257  0.84820910  0.15807077  1
  In  In20  1  0.84132574  0.82324784  0.33986547  1
  In  In21  1  0.85966921  0.50437023  0.65626732  1
  In  In22  1  0.67099957  0.32407171  0.64928875  1
  In  In23  1  0.15957354  0.83098516  0.36169964  1
  In  In24  1  0.00084108  0.80000680  0.52817955  1
  In  In25  1  0.82834312  0.18346993  0.00204828  1
  In  In26  1  0.31174541  0.17472930  0.81144394  1
  In  In27  1  0.83104558  0.84674889  -0.00080398  1
  In  In28  1  0.32317388  0.53259572  0.52333751  1
  In  In29  1  0.17630222  0.51017271  -0.02893832  1
  In  In30  1  0.85573639  0.66072554  0.18331170  1
  In  In31  1  0.86052906  0.52403533  0.35622570  1
  In  In32  1  0.67679950  0.15524910  0.85312458  1
  In  In33  1  0.81207133  0.34119501  0.16857558  1
  In  In34  1  0.30931119  0.51735383  0.80459738  1
  In  In35  1  0.17199401  0.00640962  0.16286311  1
  In  In36  1  -0.01973021  0.31161682  0.36616193  1
  In  In37  1  0.03228755  0.51390997  0.51890629  1
  In  In38  1  0.00487801  0.17055628  0.80962184  1
  In  In39  1  0.16757483  0.33758798  0.18739407  1
  In  In40  1  0.49740731  0.34197598  0.51426493  1
  In  In41  1  0.64376734  0.50262716  0.82942272  1
  In  In42  1  0.67157400  0.82797614  0.79833784  1
  In  In43  1  0.49292472  0.83912009  0.34781943  1
  In  In44  1  0.17167748  0.00189746  0.49659826  1
  In  In45  1  0.67739355  0.35138734  0.32750775  1
  In  In46  1  0.65447092  0.63570577  0.00279503  1
  In  In47  1  0.15850916  0.81528406  -0.03527989  1
  In  In48  1  0.51150113  0.16945707  0.00646762  1
  In  In49  1  0.49462238  0.82433108  0.00254936  1
  In  In50  1  -0.02321181  0.34005235  -0.01228285  1
  In  In51  1  0.00081670  -0.02188140  0.00986490  1
  In  In52  1  0.83864243  0.00248103  0.18745752  1
  In  In53  1  0.34588324  0.37965413  0.00446026  1
  In  In54  1  0.84037959  0.66586408  0.80385897  1
  In  In55  1  0.66478438  0.50459589  0.15404886  1
  In  In56  1  0.48119594  0.66880762  0.16477597  1
  In  In57  1  0.34089674  0.00849387  -0.00756864  1
  In  In58  1  0.31014171  0.80752423  0.81020287  1
  In  In59  1  0.15533775  0.16358967  -0.00786864  1
  In  In60  1  0.66859083  0.69066117  0.35816739  1
  In  In61  1  0.65537058  -0.03190457  0.66004438  1
  In  In62  1  0.01561932  0.64924180  -0.01240992  1
  In  In63  1  0.01408201  0.80826218  0.79445100  1
  In  In64  1  0.49321067  0.51154655  0.31144255  1
  In  In65  1  0.85546649  0.17270845  0.68384313  1
  In  In66  1  0.47610197  0.34182183  0.83900142  1
  In  In67  1  0.83430545  0.00738305  0.51935998  1
  In  In68  1  0.32621400  0.32945316  0.33928644  1
  In  In69  1  0.48836165  -0.00362316  0.49077800  1
  In  In70  1  0.67659624  0.49100010  0.50870431  1
  In  In71  1  0.30844196  0.34492320  0.67427857  1
  Te  Te72  1  0.06546511  0.09042316  0.09221567  1
  Te  Te73  1  0.07811654  0.10595448  0.43479816  1
  Te  Te74  1  0.09356363  0.07848301  0.73659047  1
  Te  Te75  1  0.09307612  0.41286856  0.07322185  1
  Te  Te76  1  0.08780768  0.40806772  0.41590731  1
  Te  Te77  1  0.12842849  0.40295051  0.70071425  1
  Te  Te78  1  0.07846199  0.75219177  0.08024077  1
  Te  Te79  1  0.09149027  0.72138297  0.43696071  1
  Te  Te80  1  0.11840512  0.73232931  0.71851098  1
  Te  Te81  1  0.42074526  0.08416872  0.09752568  1
  Te  Te82  1  0.39678056  0.09879301  0.43666593  1
  Te  Te83  1  0.40729828  0.07235026  0.75162210  1
  Te  Te84  1  0.44484218  0.42448058  0.09954366  1
  Te  Te85  1  0.41143536  0.43287184  0.42599479  1
  Te  Te86  1  0.41935675  0.43279498  0.73254805  1
  Te  Te87  1  0.38664140  0.73715147  0.06530145  1
  Te  Te88  1  0.41280837  0.73148365  0.41786145  1
  Te  Te89  1  0.40944713  0.73805754  0.72027341  1
  Te  Te90  1  0.74880989  0.07669001  0.08103148  1
  Te  Te91  1  0.76469097  0.07914050  0.40893161  1
  Te  Te92  1  0.74801440  0.07647678  0.73951464  1
  Te  Te93  1  0.76249917  0.43527475  0.06639317  1
  Te  Te94  1  0.77698572  0.41358715  0.42324652  1
  Te  Te95  1  0.75226314  0.41573828  0.74153695  1
  Te  Te96  1  0.75275005  0.73428230  0.08109153  1
  Te  Te97  1  0.77455350  0.74173869  0.44619975  1
  Te  Te98  1  0.73583801  0.72473302  0.70791956  1
  Te  Te99  1  0.06926090  0.24558853  0.25392662  1
  Te  Te100  1  0.07677147  0.28940928  0.62390470  1
  Te  Te101  1  0.08176785  0.26401071  0.90408829  1
  Te  Te102  1  0.08125309  0.58768483  0.26201191  1
  Te  Te103  1  0.09943863  0.61014748  0.61623027  1
  Te  Te104  1  0.08268646  0.57679752  0.87620077  1
  Te  Te105  1  0.08981936  0.90983245  0.24839032  1
  Te  Te106  1  0.09918480  0.90187188  0.58694456  1
  Te  Te107  1  0.07239657  0.91849911  0.89058367  1
  Te  Te108  1  0.41934833  0.25391845  0.24380886  1
  Te  Te109  1  0.39006984  0.25269515  0.57447125  1
  Te  Te110  1  0.39914674  0.23844479  0.92330067  1
  Te  Te111  1  0.38981144  0.60337192  0.26113338  1
  Te  Te112  1  0.42198856  0.60491630  0.61018850  1
  Te  Te113  1  0.40246403  0.57336017  0.90571049  1
  Te  Te114  1  0.41801112  0.93010888  0.25857333  1
  Te  Te115  1  0.42721036  0.89525175  0.58758495  1
  Te  Te116  1  0.40245541  0.89910086  0.90748074  1
  Te  Te117  1  0.75950609  0.23648267  0.26758233  1
  Te  Te118  1  0.78171744  0.25624843  0.56737246  1
  Te  Te119  1  0.73439704  0.27672890  0.92655826  1
  Te  Te120  1  0.74356644  0.58039437  0.26307792  1
  Te  Te121  1  0.77234946  0.58665331  0.56734737  1
  Te  Te122  1  0.75585059  0.58110264  0.90197307  1
  Te  Te123  1  0.74189024  0.92315156  0.27652523  1
  Te  Te124  1  0.73630777  0.89949445  0.55637239  1
  Te  Te125  1  0.74670595  0.93019757  0.90292359  1
  Te  Te126  1  0.24697687  0.25856439  0.07408664  1
  Te  Te127  1  0.23225795  0.27211339  0.43693059  1
  Te  Te128  1  0.20594668  0.24680978  0.72966777  1
  Te  Te129  1  0.25765106  0.56879340  0.07929612  1
  Te  Te130  1  0.23847597  0.61012429  0.42823747  1
  Te  Te131  1  0.22914627  0.60271838  0.70929124  1
  Te  Te132  1  0.24276851  0.91027070  0.06672639  1
  Te  Te133  1  0.27215421  0.91493853  0.42009406  1
  Te  Te134  1  0.22815918  0.91149893  0.74331963  1
  Te  Te135  1  0.59937404  0.26312508  0.07787455  1
  Te  Te136  1  0.58944040  0.26318276  0.42068587  1
  Te  Te137  1  0.58946227  0.25038423  0.75830399  1
  Te  Te138  1  0.53857404  0.56068726  0.07146379  1
  Te  Te139  1  0.58068488  0.57883378  0.42131685  1
  Te  Te140  1  0.59390073  0.60320517  0.73286579  1
  Te  Te141  1  0.56028273  0.92026882  0.10242544  1
  Te  Te142  1  0.59294759  0.90903448  0.43122828  1
  Te  Te143  1  0.55738430  0.90978241  0.75366872  1
  Te  Te144  1  0.92032771  0.25354287  0.09997105  1
  Te  Te145  1  0.89777176  0.23350641  0.45776763  1
  Te  Te146  1  0.94710905  0.29227092  0.72299846  1
  Te  Te147  1  0.90823681  0.57392704  0.06796873  1
  Te  Te148  1  0.94568286  0.61117709  0.43943570  1
  Te  Te149  1  0.94883069  0.57413975  0.75604261  1
  Te  Te150  1  0.92059888  0.89638871  0.11210991  1
  Te  Te151  1  0.93546703  0.91309462  0.43419665  1
  Te  Te152  1  0.89142752  0.87457033  0.70972163  1
  Te  Te153  1  0.25801883  0.06614599  0.27378784  1
  Te  Te154  1  0.24267588  0.09415054  0.58818837  1
  Te  Te155  1  0.23611284  0.07257778  0.90099946  1
  Te  Te156  1  0.27335199  0.43253254  0.23759676  1
  Te  Te157  1  0.22550501  0.42920030  0.57812889  1
  Te  Te158  1  0.24911354  0.40152573  0.89084112  1
  Te  Te159  1  0.24489845  0.75311179  0.25685699  1
  Te  Te160  1  0.23418467  0.72733394  0.60895151  1
  Te  Te161  1  0.24552495  0.71261522  0.90569541  1
  Te  Te162  1  0.58148482  0.06886469  0.26271952  1
  Te  Te163  1  0.57609937  0.09338018  0.59281134  1
  Te  Te164  1  0.55874446  0.06877338  0.89937527  1
  Te  Te165  1  0.57154869  0.40626695  0.23219122  1
  Te  Te166  1  0.57367500  0.43522140  0.60752268  1
  Te  Te167  1  0.57176041  0.41493057  0.92373142  1
  Te  Te168  1  0.59019599  0.74965929  0.23890062  1
  Te  Te169  1  0.61453029  0.75521870  0.61246456  1
  Te  Te170  1  0.59826371  0.75035340  0.91688363  1
  Te  Te171  1  0.92357289  0.09689988  0.26086743  1
  Te  Te172  1  0.94206682  0.09758936  0.58346224  1
  Te  Te173  1  0.91826184  0.09009634  0.91996975  1
  Te  Te174  1  0.92114267  0.41932184  0.25524602  1
  Te  Te175  1  0.93419754  0.41130687  0.56599171  1
  Te  Te176  1  0.93044029  0.43727760  0.88732734  1
  Te  Te177  1  0.94253764  0.74643796  0.26367156  1
  Te  Te178  1  0.92380217  0.73781376  0.64012596  1
  Te  Te179  1  0.91934690  0.75708878  0.91201336  1
