# generated using pymatgen
data_In2Te3
_symmetry_space_group_name_H-M   'P 1'
_cell_length_a   18.96051495
_cell_length_b   18.97020833
_cell_length_c   18.97267559
_cell_angle_alpha   90.02633134
_cell_angle_beta   89.92151305
_cell_angle_gamma   90.00636806
_symmetry_Int_Tables_number   1
_chemical_formula_structural   In2Te3
_chemical_formula_sum   'In72 Te108'
_cell_volume   6824.17810746
_cell_formula_units_Z   36
loop_
 _symmetry_equiv_pos_site_id
 _symmetry_equiv_pos_as_xyz
  1  'x, y, z'
loop_
 _atom_site_type_symbol
 _atom_site_label
 _atom_site_symmetry_multiplicity
 _atom_site_fract_x
 _atom_site_fract_y
 _atom_site_fract_z
 _atom_site_occupancy
  In  In0  1  0.68197410  0.16596671  0.48259145  1
  In  In1  1  0.19116001  0.49557140  0.34882177  1
  In  In2  1  0.87827572  0.66473900  0.50482245  1
  In  In3  1  0.49802700  0.51132018  0.68334945  1
  In  In4  1  -0.01371299  -0.01665644  0.33589914  1
  In  In5  1  0.85654179  0.34132120  0.13021375  1
  In  In6  1  0.67001656  0.84076670  0.48582706  1
  In  In7  1  0.02409191  0.36565145  0.68116251  1
  In  In8  1  0.48963120  0.49020726  0.33958021  1
  In  In9  1  0.81686285  0.35194604  0.84936856  1
  In  In10  1  0.86593936  0.34059958  0.50312463  1
  In  In11  1  0.49659430  0.67803568  0.49459862  1
  In  In12  1  0.82830781  0.19768381  0.00304384  1
  In  In13  1  0.84970667  0.16310814  0.66646331  1
  In  In14  1  0.50136998  -0.01705184  0.48345166  1
  In  In15  1  0.83105536  0.83511591  0.64420522  1
  In  In16  1  0.79844008  -0.00592608  0.81434814  1
  In  In17  1  0.34455626  0.51199487  0.51668813  1
  In  In18  1  0.82833622  0.78183219  0.00048637  1
  In  In19  1  0.48337086  0.82935053  0.69805819  1
  In  In20  1  0.00736228  0.17479057  0.84519761  1
  In  In21  1  0.66267882  0.67303363  0.32212179  1
  In  In22  1  0.32932404  0.83543286  0.14572245  1
  In  In23  1  0.87231834  0.64573761  0.80845063  1
  In  In24  1  0.33232497  0.66846049  0.01426470  1
  In  In25  1  0.31694384  0.49817665  0.17850384  1
  In  In26  1  0.32087655  0.81620304  0.51510958  1
  In  In27  1  0.14707343  0.64791840  0.51550085  1
  In  In28  1  0.64643667  0.00875945  -0.00319124  1
  In  In29  1  0.50700526  0.64787219  0.15138945  1
  In  In30  1  0.02167629  0.34479662  -0.00990739  1
  In  In31  1  0.48065611  0.16197238  -0.02442895  1
  In  In32  1  0.00942802  0.80896455  0.80447307  1
  In  In33  1  0.33625355  0.83766069  0.86026570  1
  In  In34  1  0.02275273  0.84310175  0.49389085  1
  In  In35  1  0.34411939  0.15756788  0.15812299  1
  In  In36  1  0.51215013  -0.00519870  0.15045929  1
  In  In37  1  0.70604117  0.51180128  0.51256533  1
  In  In38  1  0.01700469  0.18396870  0.50356877  1
  In  In39  1  0.66433936  0.33352462  0.68956788  1
  In  In40  1  0.16335194  0.18660780  0.36160195  1
  In  In41  1  0.14279981  0.67556704  0.17346867  1
  In  In42  1  0.18221258  -0.01996121  0.15488122  1
  In  In43  1  0.48694481  0.13700042  0.30102258  1
  In  In44  1  0.49937049  0.17805201  0.67225817  1
  In  In45  1  0.82834607  0.53879936  0.00136805  1
  In  In46  1  0.83428038  -0.03120555  0.18577575  1
  In  In47  1  0.82085575  0.15554716  0.31758192  1
  In  In48  1  0.51106830  0.51618041  0.00711027  1
  In  In49  1  0.30690251  0.48406279  0.84639724  1
  In  In50  1  0.31063794  0.03444168  0.65564014  1
  In  In51  1  0.33284161  0.18129148  0.82081410  1
  In  In52  1  -0.00371915  0.00681856  0.63762997  1
  In  In53  1  0.49496481  0.33036647  0.51676207  1
  In  In54  1  0.32906920  -0.00144447  0.34529862  1
  In  In55  1  0.15696059  -0.00265370  0.82584353  1
  In  In56  1  0.16434793  0.16838227  -0.00121514  1
  In  In57  1  0.17227077  0.82494669  0.32971699  1
  In  In58  1  -0.02088432  -0.00393119  -0.00569216  1
  In  In59  1  0.66272234  0.15473912  0.15002779  1
  In  In60  1  0.86923258  0.78365555  0.30401859  1
  In  In61  1  0.81926181  0.52796426  0.32896971  1
  In  In62  1  0.29961526  0.35963266  0.66685215  1
  In  In63  1  0.02676310  0.35386311  0.33272976  1
  In  In64  1  0.64603346  0.33997673  0.31533387  1
  In  In65  1  0.48482710  0.35558212  0.17816915  1
  In  In66  1  0.64915521  0.33707578  0.00161771  1
  In  In67  1  0.65392714  0.80229416  0.86796199  1
  In  In68  1  0.01600351  0.49177006  0.15541136  1
  In  In69  1  0.63689482  -0.01473550  0.67719524  1
  In  In70  1  0.66594645  0.65838416  0.67026840  1
  In  In71  1  0.16629842  0.65054888  0.83949021  1
  Te  Te72  1  0.08236240  0.06807291  0.07953624  1
  Te  Te73  1  0.07726412  0.07188742  0.41758747  1
  Te  Te74  1  0.07537524  0.09081780  0.73926892  1
  Te  Te75  1  0.10402192  0.38513605  0.10574991  1
  Te  Te76  1  0.11103048  0.40797770  0.44073256  1
  Te  Te77  1  0.09589246  0.46452373  0.76908772  1
  Te  Te78  1  0.06738020  0.78583231  0.11394571  1
  Te  Te79  1  0.07849230  0.73447256  0.40522309  1
  Te  Te80  1  0.12860293  0.75553255  0.73748254  1
  Te  Te81  1  0.40631659  0.05680769  0.05982213  1
  Te  Te82  1  0.41327463  0.09480997  0.42651173  1
  Te  Te83  1  0.42065356  0.07586741  0.75173863  1
  Te  Te84  1  0.40524074  0.42876535  0.07458793  1
  Te  Te85  1  0.39993266  0.40270445  0.42359466  1
  Te  Te86  1  0.41194711  0.41147045  0.75544810  1
  Te  Te87  1  0.44166124  0.76375657  0.06978342  1
  Te  Te88  1  0.41600956  0.76827370  0.41398942  1
  Te  Te89  1  0.40371859  0.73740571  0.77677043  1
  Te  Te90  1  0.77127187  0.07775782  0.07870437  1
  Te  Te91  1  0.74645026  0.06247294  0.40199754  1
  Te  Te92  1  0.72818901  0.09902102  0.73270156  1
  Te  Te93  1  0.74675984  0.42718363  0.07411101  1
  Te  Te94  1  0.74767557  0.40306517  0.41214779  1
  Te  Te95  1  0.76467946  0.42843062  0.73580027  1
  Te  Te96  1  0.74271980  0.70835986  0.09412178  1
  Te  Te97  1  0.75188480  0.72389846  0.43479971  1
  Te  Te98  1  0.74983483  0.76659502  0.75000383  1
  Te  Te99  1  0.09549393  0.25410684  0.25066785  1
  Te  Te100  1  0.08842281  0.24985138  0.61375578  1
  Te  Te101  1  0.11267900  0.27259323  0.89125811  1
  Te  Te102  1  0.08643386  0.56952529  0.26516667  1
  Te  Te103  1  0.04227109  0.57829780  0.59680446  1
  Te  Te104  1  0.09955429  0.54049823  0.91927426  1
  Te  Te105  1  0.07716197  0.90512473  0.24115078  1
  Te  Te106  1  0.10364314  0.92326696  0.58561269  1
  Te  Te107  1  0.06756055  0.90826180  0.90888428  1
  Te  Te108  1  0.40422276  0.25604352  0.26085273  1
  Te  Te109  1  0.39365348  0.25510343  0.59725375  1
  Te  Te110  1  0.38292882  0.26425232  0.93407707  1
  Te  Te111  1  0.41127741  0.58803850  0.25632484  1
  Te  Te112  1  0.41601109  0.61253919  0.60561267  1
  Te  Te113  1  0.40513286  0.57953705  0.91669452  1
  Te  Te114  1  0.40910036  0.92539480  0.23993450  1
  Te  Te115  1  0.41603413  0.91949602  0.59191596  1
  Te  Te116  1  0.40162925  0.92231327  0.95973790  1
  Te  Te117  1  0.74310144  0.25957370  0.22712530  1
  Te  Te118  1  0.75606725  0.25844384  0.57917248  1
  Te  Te119  1  0.72568151  0.24438437  0.90558197  1
  Te  Te120  1  0.75082549  0.60384654  0.22272281  1
  Te  Te121  1  0.78811278  0.59124251  0.60917174  1
  Te  Te122  1  0.75955701  0.58731739  0.88103333  1
  Te  Te123  1  0.75870883  0.86802069  0.25873941  1
  Te  Te124  1  0.74286738  0.93873968  0.57859263  1
  Te  Te125  1  0.75795811  0.90319051  0.92864211  1
  Te  Te126  1  0.27095763  0.24755907  0.06688917  1
  Te  Te127  1  0.23954198  0.23565008  0.47468314  1
  Te  Te128  1  0.22914954  0.26477994  0.75609866  1
  Te  Te129  1  0.22930829  0.58307415  0.08796567  1
  Te  Te130  1  0.26422406  0.60368839  0.42635114  1
  Te  Te131  1  0.23159666  0.55733942  0.74043450  1
  Te  Te132  1  0.25476661  0.91372246  0.04307107  1
  Te  Te133  1  0.23734406  0.91635859  0.43155538  1
  Te  Te134  1  0.26521503  0.92467855  0.74991766  1
  Te  Te135  1  0.55497145  0.24365130  0.09325929  1
  Te  Te136  1  0.57247118  0.24771339  0.41066149  1
  Te  Te137  1  0.56434818  0.26561628  0.76976523  1
  Te  Te138  1  0.61881439  0.62725774  0.04129224  1
  Te  Te139  1  0.58835888  0.57030607  0.42687785  1
  Te  Te140  1  0.58583752  0.58945774  0.77056832  1
  Te  Te141  1  0.61632816  0.90751190  0.09628469  1
  Te  Te142  1  0.57371489  0.89700109  0.39081039  1
  Te  Te143  1  0.57253255  0.90991090  0.79080671  1
  Te  Te144  1  0.95095010  0.23551322  0.07919987  1
  Te  Te145  1  0.91787878  0.24728216  0.39467883  1
  Te  Te146  1  0.91519562  0.26586920  0.75774873  1
  Te  Te147  1  0.93388515  0.59738862  0.09010347  1
  Te  Te148  1  0.93245000  0.56514387  0.41192139  1
  Te  Te149  1  0.98857572  0.57918839  0.74342293  1
  Te  Te150  1  0.90863972  0.89205048  0.07880236  1
  Te  Te151  1  0.90065474  0.88695822  0.41408688  1
  Te  Te152  1  0.91645491  0.92386034  0.74710324  1
  Te  Te153  1  0.24410420  0.08342988  0.25021164  1
  Te  Te154  1  0.22682052  0.11765297  0.56975570  1
  Te  Te155  1  0.24916675  0.08376549  0.90740461  1
  Te  Te156  1  0.25861019  0.39561723  0.26484285  1
  Te  Te157  1  0.22498285  0.43529600  0.56294779  1
  Te  Te158  1  0.21334765  0.45366765  0.95714540  1
  Te  Te159  1  0.26271516  0.74042525  0.24268605  1
  Te  Te160  1  0.22871538  0.73915697  0.60139557  1
  Te  Te161  1  0.23086153  0.74848887  0.93589349  1
  Te  Te162  1  0.60855975  0.06300273  0.25648164  1
  Te  Te163  1  0.57917287  0.09082237  0.57325620  1
  Te  Te164  1  0.58141782  0.09038668  0.89680658  1
  Te  Te165  1  0.59083980  0.45182478  0.23003794  1
  Te  Te166  1  0.59076503  0.42881733  0.58037513  1
  Te  Te167  1  0.58034548  0.42817213  0.91119822  1
  Te  Te168  1  0.55469623  0.74265348  0.25353381  1
  Te  Te169  1  0.58571497  0.76551644  0.59440734  1
  Te  Te170  1  0.55327814  0.73136939  0.94619536  1
  Te  Te171  1  0.92504372  0.08066782  0.23697315  1
  Te  Te172  1  0.90438479  0.08684117  0.54874448  1
  Te  Te173  1  0.89264503  0.08489761  0.89782923  1
  Te  Te174  1  0.90494702  0.41711019  0.25101220  1
  Te  Te175  1  0.94344788  0.44023918  0.57861764  1
  Te  Te176  1  0.91724093  0.43332325  0.92735629  1
  Te  Te177  1  0.94795841  0.72473359  0.19285473  1
  Te  Te178  1  0.95111775  0.75652654  0.60043296  1
  Te  Te179  1  0.94358761  0.72742093  0.91417306  1
