# generated using pymatgen
data_In2Te3
_symmetry_space_group_name_H-M   'P 1'
_cell_length_a   18.89523735
_cell_length_b   18.88170740
_cell_length_c   18.89235033
_cell_angle_alpha   89.97537044
_cell_angle_beta   90.11286948
_cell_angle_gamma   89.95428261
_symmetry_Int_Tables_number   1
_chemical_formula_structural   In2Te3
_chemical_formula_sum   'In72 Te108'
_cell_volume   6740.29002335
_cell_formula_units_Z   36
loop_
 _symmetry_equiv_pos_site_id
 _symmetry_equiv_pos_as_xyz
  1  'x, y, z'
loop_
 _atom_site_type_symbol
 _atom_site_label
 _atom_site_symmetry_multiplicity
 _atom_site_fract_x
 _atom_site_fract_y
 _atom_site_fract_z
 _atom_site_occupancy
  In  In0  1  0.52962049  0.47580068  0.01556199  1
  In  In1  1  0.16371198  0.02970215  0.89008351  1
  In  In2  1  0.83279697  0.64291343  0.19051900  1
  In  In3  1  0.15792400  0.66846404  0.16368296  1
  In  In4  1  0.32315843  0.82766317  0.54135555  1
  In  In5  1  0.66646772  0.03647301  0.69151470  1
  In  In6  1  0.68476400  0.65927389  0.65579173  1
  In  In7  1  0.16328896  0.34124009  0.51233959  1
  In  In8  1  0.83512685  0.86296264  -0.00187363  1
  In  In9  1  0.82927304  -0.00380151  0.49388387  1
  In  In10  1  0.00421295  0.67128676  0.65177614  1
  In  In11  1  0.15144336  0.14672512  0.32717827  1
  In  In12  1  0.33483818  0.49058244  0.15763380  1
  In  In13  1  0.64070915  0.66935169  0.01373199  1
  In  In14  1  0.66489986  0.83476039  0.14197824  1
  In  In15  1  0.52946724  0.46568927  0.30971302  1
  In  In16  1  0.01325715  0.85802765  0.82167114  1
  In  In17  1  0.85370611  0.83646718  0.68493979  1
  In  In18  1  0.17771342  0.34267852  0.84666823  1
  In  In19  1  0.31670679  0.67558961  0.72828598  1
  In  In20  1  0.35881041  0.47898546  0.85199270  1
  In  In21  1  -0.00601734  0.14745281  0.14818615  1
  In  In22  1  0.82399693  0.00192139  0.14906069  1
  In  In23  1  0.83273522  0.65943424  0.81956835  1
  In  In24  1  0.50322126  0.83672021  0.66478346  1
  In  In25  1  0.17973789  0.84054139  0.68694907  1
  In  In26  1  0.16407856  0.49463256  0.66469648  1
  In  In27  1  0.66941295  0.46285992  0.46159306  1
  In  In28  1  -0.00875775  0.68418662  0.01668078  1
  In  In29  1  0.49570185  0.64993798  0.49757941  1
  In  In30  1  0.30500627  0.50580559  0.50875265  1
  In  In31  1  0.49107538  0.31926538  0.49420189  1
  In  In32  1  -0.00557043  0.32554655  0.00439632  1
  In  In33  1  0.19431265  0.49442003  0.31027756  1
  In  In34  1  0.14670477  0.50181859  0.01690674  1
  In  In35  1  0.81914086  0.18343278  0.67928089  1
  In  In36  1  0.32748156  0.14816486  0.49530445  1
  In  In37  1  0.53690100  0.19875388  0.68558910  1
  In  In38  1  0.49039440  0.48746988  0.66841785  1
  In  In39  1  0.49870116  0.18470895  0.31030046  1
  In  In40  1  -0.01384337  0.15529697  0.86771134  1
  In  In41  1  0.21418633  0.02707367  0.12704864  1
  In  In42  1  0.46825321  0.17528212  0.00013924  1
  In  In43  1  -0.01745417  0.33813992  0.31427570  1
  In  In44  1  -0.01210255  0.00258768  0.66992958  1
  In  In45  1  0.00492600  0.66641956  0.32396479  1
  In  In46  1  0.82361368  0.20498268  0.31543744  1
  In  In47  1  0.65763201  0.46501869  0.84781117  1
  In  In48  1  0.66975469  0.02922559  -0.00507336  1
  In  In49  1  0.00966054  0.51387736  0.82079014  1
  In  In50  1  0.49597723  0.84233574  0.00900079  1
  In  In51  1  0.15087535  0.82869182  0.31893092  1
  In  In52  1  0.70256568  0.83919267  0.48328824  1
  In  In53  1  0.81783584  0.32722180  0.82943707  1
  In  In54  1  0.48628471  0.00841041  0.86273083  1
  In  In55  1  0.01716193  -0.00644350  0.32581305  1
  In  In56  1  0.14814324  -0.00779843  0.50116019  1
  In  In57  1  0.81640840  0.48965958  0.01068971  1
  In  In58  1  0.65913072  0.32094054  0.00969377  1
  In  In59  1  0.34608856  0.83601706  0.15547653  1
  In  In60  1  -0.02904049  0.45373409  0.50634143  1
  In  In61  1  0.82273033  0.65263284  0.47514384  1
  In  In62  1  0.84651556  0.81952419  0.32721286  1
  In  In63  1  0.35268172  0.64247387  0.33868905  1
  In  In64  1  0.33985447  0.34239310  0.32491344  1
  In  In65  1  0.15876526  0.19165397  0.67762264  1
  In  In66  1  0.51612734  0.82546766  0.31630248  1
  In  In67  1  0.63958288  0.01118913  0.31463663  1
  In  In68  1  0.68163283  0.18419315  0.50972005  1
  In  In69  1  0.34182723  -0.00233520  0.69727451  1
  In  In70  1  0.32405757  0.00475322  0.31822497  1
  In  In71  1  0.49760961  0.67466636  0.83773126  1
  Te  Te72  1  0.09818602  0.09259222  0.05746662  1
  Te  Te73  1  0.05916022  0.09602352  0.43576701  1
  Te  Te74  1  0.08143429  0.08093768  0.76122894  1
  Te  Te75  1  0.06709180  0.41071505  0.09978001  1
  Te  Te76  1  0.09433762  0.41551734  0.39900548  1
  Te  Te77  1  0.07648212  0.40026653  0.74581576  1
  Te  Te78  1  0.10401706  0.76430156  0.06619107  1
  Te  Te79  1  0.07296075  0.75699509  0.41882292  1
  Te  Te80  1  0.08661651  0.74038014  0.75931002  1
  Te  Te81  1  0.37702180  0.07305828  0.06853002  1
  Te  Te82  1  0.42655427  0.08275021  0.40189033  1
  Te  Te83  1  0.43300982  0.10279799  0.75331131  1
  Te  Te84  1  0.43027813  0.39645149  0.09203594  1
  Te  Te85  1  0.41370321  0.43812690  0.42482151  1
  Te  Te86  1  0.41653965  0.39067188  0.74942686  1
  Te  Te87  1  0.43188502  0.73662953  0.08896649  1
  Te  Te88  1  0.41182762  0.75857938  0.42771721  1
  Te  Te89  1  0.40546762  0.79689114  0.77735169  1
  Te  Te90  1  0.76080461  0.11348422  0.07810815  1
  Te  Te91  1  0.74176787  0.08505655  0.40593291  1
  Te  Te92  1  0.75429821  0.10532577  0.78953229  1
  Te  Te93  1  0.73128735  0.41311111  0.10726728  1
  Te  Te94  1  0.77797792  0.41149073  0.37416295  1
  Te  Te95  1  0.75480463  0.43026885  0.74342648  1
  Te  Te96  1  0.76785372  0.73872433  0.07963981  1
  Te  Te97  1  0.73328099  0.73212482  0.38081569  1
  Te  Te98  1  0.73932678  0.76226549  0.75342372  1
  Te  Te99  1  0.07456359  0.24149409  0.23717182  1
  Te  Te100  1  0.06826877  0.25490836  0.58250202  1
  Te  Te101  1  0.09798850  0.24304165  0.93022707  1
  Te  Te102  1  0.07892478  0.56370602  0.23778876  1
  Te  Te103  1  0.06836882  0.56086070  0.56882727  1
  Te  Te104  1  0.08141173  0.60091839  0.92147519  1
  Te  Te105  1  0.12051368  0.94406219  0.22768729  1
  Te  Te106  1  0.07129959  0.90003468  0.59423843  1
  Te  Te107  1  0.06677792  0.92892776  0.93866774  1
  Te  Te108  1  0.42451739  0.27916931  0.22075097  1
  Te  Te109  1  0.41469236  0.23093549  0.58841533  1
  Te  Te110  1  0.36953909  0.24726850  0.90930800  1
  Te  Te111  1  0.43801355  0.56878218  0.23993764  1
  Te  Te112  1  0.39957113  0.59437600  0.60131490  1
  Te  Te113  1  0.44127572  0.57621895  0.93724669  1
  Te  Te114  1  0.43145898  0.92850145  0.24154709  1
  Te  Te115  1  0.42159956  0.93628630  0.58063976  1
  Te  Te116  1  0.39130483  0.92859893  0.94584096  1
  Te  Te117  1  0.72664140  0.27650232  0.23352524  1
  Te  Te118  1  0.76124805  0.28761463  0.58434857  1
  Te  Te119  1  0.77974395  0.25359036  0.95259571  1
  Te  Te120  1  0.77159402  0.54106208  0.27990272  1
  Te  Te121  1  0.74386889  0.55727195  0.56238710  1
  Te  Te122  1  0.73549686  0.58802639  0.91358666  1
  Te  Te123  1  0.74783064  0.91304454  0.25539275  1
  Te  Te124  1  0.74517771  0.92588327  0.60312530  1
  Te  Te125  1  0.72567894  0.91593403  0.91773969  1
  Te  Te126  1  0.30206550  0.21360149  0.04008326  1
  Te  Te127  1  0.24998859  0.25188201  0.41309759  1
  Te  Te128  1  0.25965021  0.24081951  0.77236618  1
  Te  Te129  1  0.25749114  0.59353291  0.07691415  1
  Te  Te130  1  0.22933146  0.59993612  0.41651573  1
  Te  Te131  1  0.24108068  0.55120379  0.77981993  1
  Te  Te132  1  0.25528269  0.90024761  0.05724568  1
  Te  Te133  1  0.25346514  0.91539869  0.42203665  1
  Te  Te134  1  0.23836213  0.93567666  0.78826246  1
  Te  Te135  1  0.57505552  0.22700750  0.09094282  1
  Te  Te136  1  0.59549084  0.25657144  0.40548793  1
  Te  Te137  1  0.62047916  0.29201951  0.76330911  1
  Te  Te138  1  0.60812775  0.56120946  0.10704592  1
  Te  Te139  1  0.58582257  0.57894040  0.40122442  1
  Te  Te140  1  0.58358274  0.58303021  0.74820394  1
  Te  Te141  1  0.57891654  0.94524010  0.08666182  1
  Te  Te142  1  0.58541529  0.91436225  0.42060517  1
  Te  Te143  1  0.57435117  0.93394761  0.75705069  1
  Te  Te144  1  0.89850302  0.24227678  0.08268128  1
  Te  Te145  1  0.91526882  0.25658883  0.41715432  1
  Te  Te146  1  0.93066163  0.24941629  0.76195674  1
  Te  Te147  1  0.92043363  0.56957221  0.08918455  1
  Te  Te148  1  0.92821933  0.56720780  0.41032412  1
  Te  Te149  1  0.90967016  0.57391053  0.72138926  1
  Te  Te150  1  0.93328033  0.92718466  0.08594746  1
  Te  Te151  1  0.92842460  0.90883038  0.41905197  1
  Te  Te152  1  0.88995585  0.95266083  0.78117875  1
  Te  Te153  1  0.27043685  0.12241260  0.23892322  1
  Te  Te154  1  0.23975830  0.07086989  0.59585250  1
  Te  Te155  1  0.29158737  0.09916607  0.93300857  1
  Te  Te156  1  0.23956865  0.38448836  0.21580170  1
  Te  Te157  1  0.26742325  0.39685546  0.60784294  1
  Te  Te158  1  0.25741709  0.41917527  0.95140487  1
  Te  Te159  1  0.26363772  0.74367347  0.25850384  1
  Te  Te160  1  0.23317218  0.72589695  0.60200409  1
  Te  Te161  1  0.29948005  0.72731728  0.86498615  1
  Te  Te162  1  0.58235280  0.10475080  0.21516642  1
  Te  Te163  1  0.58257036  0.09275019  0.57806795  1
  Te  Te164  1  0.58067184  0.11765272  0.90819373  1
  Te  Te165  1  0.60778688  0.37684337  0.22297566  1
  Te  Te166  1  0.58231667  0.40866802  0.57685895  1
  Te  Te167  1  0.56086804  0.35799985  0.89202129  1
  Te  Te168  1  0.59074069  0.73826827  0.22609625  1
  Te  Te169  1  0.59207039  0.74782824  0.56949633  1
  Te  Te170  1  0.59025768  0.76985246  0.91080968  1
  Te  Te171  1  0.90758798  0.07930062  0.26358954  1
  Te  Te172  1  0.90227225  0.09419945  0.58423902  1
  Te  Te173  1  0.87854223  0.05922088  0.89566527  1
  Te  Te174  1  0.87887030  0.42713064  0.25305394  1
  Te  Te175  1  0.87775351  0.39083821  0.59824323  1
  Te  Te176  1  0.91779850  0.43016658  0.91065263  1
  Te  Te177  1  0.93591308  0.75796556  0.22355147  1
  Te  Te178  1  0.89902326  0.74882445  0.57175299  1
  Te  Te179  1  0.91546963  0.75866287  0.89986726  1
