# generated using pymatgen
data_In2Te3
_symmetry_space_group_name_H-M   'P 1'
_cell_length_a   18.77499568
_cell_length_b   18.78052956
_cell_length_c   18.78790995
_cell_angle_alpha   89.99544101
_cell_angle_beta   90.00150126
_cell_angle_gamma   89.94563079
_symmetry_Int_Tables_number   1
_chemical_formula_structural   In2Te3
_chemical_formula_sum   'In72 Te108'
_cell_volume   6624.69598483
_cell_formula_units_Z   36
loop_
 _symmetry_equiv_pos_site_id
 _symmetry_equiv_pos_as_xyz
  1  'x, y, z'
loop_
 _atom_site_type_symbol
 _atom_site_label
 _atom_site_symmetry_multiplicity
 _atom_site_fract_x
 _atom_site_fract_y
 _atom_site_fract_z
 _atom_site_occupancy
  In  In0  1  0.14649144  0.52158391  0.31222973  1
  In  In1  1  0.84984568  -0.02756098  0.16600938  1
  In  In2  1  0.67488940  0.19594518  0.85924870  1
  In  In3  1  0.02901655  0.48447832  0.81214075  1
  In  In4  1  0.51178944  0.65719078  0.83047532  1
  In  In5  1  0.33865251  0.33599747  -0.00614422  1
  In  In6  1  0.32237930  0.49870003  0.14870134  1
  In  In7  1  0.82695705  0.33319822  0.83177870  1
  In  In8  1  0.66228820  0.01400909  0.67201916  1
  In  In9  1  0.83957615  0.51831893  0.01759978  1
  In  In10  1  0.85229958  0.68214225  0.15663783  1
  In  In11  1  0.32337669  0.68252989  0.28765132  1
  In  In12  1  0.00134437  0.00194494  0.33837222  1
  In  In13  1  0.85135645  0.33283195  0.51021517  1
  In  In14  1  0.51153148  0.49305900  0.66763343  1
  In  In15  1  0.51785407  0.49504334  0.00968670  1
  In  In16  1  0.16053996  0.32621943  0.50099167  1
  In  In17  1  0.15350051  -0.00712147  0.15610118  1
  In  In18  1  0.67560866  0.48756920  0.51236491  1
  In  In19  1  0.69513058  0.66164640  0.31039288  1
  In  In20  1  0.47307931  0.82445267  0.65341771  1
  In  In21  1  0.50924778  -0.00532302  0.17880957  1
  In  In22  1  0.50195787  0.35549541  0.84630102  1
  In  In23  1  0.16645379  0.67515095  0.85510187  1
  In  In24  1  0.31685494  -0.01349626  0.66651120  1
  In  In25  1  -0.02201898  0.17754590  0.84354715  1
  In  In26  1  0.84384043  0.17715179  0.66962494  1
  In  In27  1  0.34819671  -0.01145119  0.33470682  1
  In  In28  1  0.00614835  0.67064276  0.66264782  1
  In  In29  1  0.31401200  0.47232514  0.49269706  1
  In  In30  1  0.32469002  0.50964617  0.81670582  1
  In  In31  1  0.34253257  0.15055597  0.49925774  1
  In  In32  1  0.48157862  0.50837043  0.32879438  1
  In  In33  1  0.13403674  0.17347500  0.32381924  1
  In  In34  1  0.82780501  0.48544687  0.66519713  1
  In  In35  1  0.17869353  0.82769066  0.32305875  1
  In  In36  1  0.02751525  -0.02541702  0.64680873  1
  In  In37  1  0.50133481  0.19329703  0.64295257  1
  In  In38  1  0.67749525  0.50524252  0.16017116  1
  In  In39  1  0.52562924  0.16323967  0.01690589  1
  In  In40  1  0.14010220  0.48884964  0.01262560  1
  In  In41  1  0.32140344  -0.03261241  0.01166285  1
  In  In42  1  0.68124248  0.82857385  0.16526754  1
  In  In43  1  0.31736125  0.17363312  0.80745985  1
  In  In44  1  0.35145080  0.69324459  0.01863775  1
  In  In45  1  0.82705571  0.66301568  0.85783172  1
  In  In46  1  0.16055930  0.18321859  0.66277399  1
  In  In47  1  0.83261860  0.16886853  0.32571653  1
  In  In48  1  0.32334913  0.66901731  0.65977289  1
  In  In49  1  0.31828666  0.84019759  0.49230332  1
  In  In50  1  0.69151071  0.17735700  0.49444792  1
  In  In51  1  0.65651139  0.83517362  0.85180340  1
  In  In52  1  0.67096793  -0.01395154  0.01884547  1
  In  In53  1  0.15479933  -0.02218122  0.83087632  1
  In  In54  1  0.65246863  0.82104375  0.49638152  1
  In  In55  1  0.67274528  0.32789541  0.33973532  1
  In  In56  1  -0.00358812  0.82410458  0.87252756  1
  In  In57  1  0.66729026  0.17841994  0.17021152  1
  In  In58  1  0.33305559  0.17986845  0.17362826  1
  In  In59  1  0.50693670  0.67599031  0.49532826  1
  In  In60  1  0.16456328  0.65185829  0.50490684  1
  In  In61  1  0.84361711  -0.00197411  0.49064910  1
  In  In62  1  0.47103014  -0.00759105  0.85295619  1
  In  In63  1  0.51403480  0.84948188  0.31710738  1
  In  In64  1  -0.01491885  0.66836136  0.32091507  1
  In  In65  1  0.84334849  0.66232519  0.48493976  1
  In  In66  1  0.16162871  0.16014365  0.00022750  1
  In  In67  1  0.84761411  0.00903285  0.87235043  1
  In  In68  1  0.35101748  0.33659626  0.32311058  1
  In  In69  1  0.84564760  0.82496829  0.68014611  1
  In  In70  1  -0.01712679  0.34026456  0.31829510  1
  In  In71  1  -0.00291974  0.33090536  0.01082684  1
  Te  Te72  1  0.06459353  0.09419434  0.09158427  1
  Te  Te73  1  0.08065440  0.08800845  0.43021685  1
  Te  Te74  1  0.07644794  0.08735795  0.75757873  1
  Te  Te75  1  0.07266976  0.40545118  0.11568661  1
  Te  Te76  1  0.08237267  0.42112904  0.40530458  1
  Te  Te77  1  0.11575861  0.39791199  0.73054230  1
  Te  Te78  1  0.04059066  0.78658324  0.03167664  1
  Te  Te79  1  0.08762562  0.74353606  0.41245489  1
  Te  Te80  1  0.07986955  0.76166981  0.76080879  1
  Te  Te81  1  0.41368348  0.07670024  0.07939882  1
  Te  Te82  1  0.42979034  0.09583319  0.39314216  1
  Te  Te83  1  0.42392493  0.08446760  0.73823744  1
  Te  Te84  1  0.42962039  0.40237904  0.09597767  1
  Te  Te85  1  0.43645152  0.40479265  0.43216448  1
  Te  Te86  1  0.40519883  0.40691721  0.73856093  1
  Te  Te87  1  0.42222446  0.78906040  0.10711370  1
  Te  Te88  1  0.41003510  0.75136972  0.40438057  1
  Te  Te89  1  0.40355103  0.74565358  0.76421094  1
  Te  Te90  1  0.75805401  0.08075814  0.09433770  1
  Te  Te91  1  0.74394228  0.06892798  0.39958565  1
  Te  Te92  1  0.75999593  0.08827267  0.76490438  1
  Te  Te93  1  0.76671130  0.41024349  0.08917926  1
  Te  Te94  1  0.77032851  0.42012417  0.41442178  1
  Te  Te95  1  0.73195054  0.41758920  0.75497627  1
  Te  Te96  1  0.74168881  0.73189894  0.07126240  1
  Te  Te97  1  0.75922229  0.76380086  0.40365637  1
  Te  Te98  1  0.74305925  0.74608313  0.75929190  1
  Te  Te99  1  0.06936103  0.26120460  0.22393441  1
  Te  Te100  1  0.06025317  0.24394931  0.57248836  1
  Te  Te101  1  0.08919569  0.26025331  0.91047170  1
  Te  Te102  1  0.06917810  0.60178234  0.21234127  1
  Te  Te103  1  0.06633594  0.56617802  0.57561052  1
  Te  Te104  1  0.06291549  0.58620704  0.92240798  1
  Te  Te105  1  0.06868384  0.90088227  0.24364502  1
  Te  Te106  1  0.12069690  0.88859615  0.57782438  1
  Te  Te107  1  0.07537223  0.92883880  0.94844333  1
  Te  Te108  1  0.44134682  0.25099716  0.24313970  1
  Te  Te109  1  0.38006031  0.25891919  0.59247520  1
  Te  Te110  1  0.42238654  0.23323473  0.91355217  1
  Te  Te111  1  0.42368898  0.59331287  0.21603110  1
  Te  Te112  1  0.41287265  0.58179801  0.57168250  1
  Te  Te113  1  0.40906770  0.57557531  0.92579213  1
  Te  Te114  1  0.39037435  0.89026999  0.22506860  1
  Te  Te115  1  0.41816070  0.93311937  0.56231704  1
  Te  Te116  1  0.41378398  0.88173035  0.93065892  1
  Te  Te117  1  0.77123125  0.27350755  0.23485579  1
  Te  Te118  1  0.74466695  0.27079442  0.60263400  1
  Te  Te119  1  0.78429126  0.24441775  0.94885849  1
  Te  Te120  1  0.79472999  0.56053471  0.25552564  1
  Te  Te121  1  0.75151986  0.59629158  0.58759411  1
  Te  Te122  1  0.73440456  0.57057060  0.92601899  1
  Te  Te123  1  0.73893728  0.93066306  0.25382243  1
  Te  Te124  1  0.74968658  0.91465950  0.59208154  1
  Te  Te125  1  0.76721904  0.89766664  0.93860248  1
  Te  Te126  1  0.24024643  0.26230429  0.08530372  1
  Te  Te127  1  0.25307133  0.24624690  0.40217993  1
  Te  Te128  1  0.22446838  0.28102400  0.75999328  1
  Te  Te129  1  0.23918165  0.59343513  0.06541302  1
  Te  Te130  1  0.26603058  0.58570609  0.40071237  1
  Te  Te131  1  0.22059881  0.58852344  0.73817510  1
  Te  Te132  1  0.22644454  0.88122306  0.08727419  1
  Te  Te133  1  0.22940490  0.93903115  0.41653077  1
  Te  Te134  1  0.26219507  0.89726937  0.76996602  1
  Te  Te135  1  0.60419990  0.27262346  0.07241162  1
  Te  Te136  1  0.58177466  0.24967479  0.42630032  1
  Te  Te137  1  0.58232344  0.25756025  0.75570807  1
  Te  Te138  1  0.59145491  0.60026424  0.08424764  1
  Te  Te139  1  0.59631103  0.58593873  0.40999863  1
  Te  Te140  1  0.60214633  0.56701399  0.75663185  1
  Te  Te141  1  0.56320487  0.89591636  0.07601222  1
  Te  Te142  1  0.57620318  0.92565116  0.42619987  1
  Te  Te143  1  0.56950196  0.91463629  0.74424881  1
  Te  Te144  1  0.90041793  0.22954036  0.05635589  1
  Te  Te145  1  0.92922961  0.23622200  0.42182112  1
  Te  Te146  1  0.93479001  0.27899769  0.73700287  1
  Te  Te147  1  0.94768052  0.57578823  0.10645411  1
  Te  Te148  1  0.93217898  0.56703743  0.41616254  1
  Te  Te149  1  0.91470073  0.58648826  0.75624017  1
  Te  Te150  1  0.93069762  0.89111696  0.07338705  1
  Te  Te151  1  0.92378707  0.90059389  0.41572248  1
  Te  Te152  1  0.92289136  0.92991335  0.76048798  1
  Te  Te153  1  0.24580714  0.07851345  0.24867478  1
  Te  Te154  1  0.23308462  0.07747759  0.57843092  1
  Te  Te155  1  0.26056862  0.07709379  0.91281877  1
  Te  Te156  1  0.24336087  0.41760507  0.25000935  1
  Te  Te157  1  0.22129237  0.42521480  0.59870350  1
  Te  Te158  1  0.24315288  0.42528254  0.91649480  1
  Te  Te159  1  0.21501910  0.74098842  0.20615740  1
  Te  Te160  1  0.22650138  0.77123922  0.59657395  1
  Te  Te161  1  0.24746653  0.76739693  0.93870550  1
  Te  Te162  1  0.58130850  0.09436964  0.25912275  1
  Te  Te163  1  0.58254624  0.08836130  0.56790778  1
  Te  Te164  1  0.59466450  0.06632107  0.90727547  1
  Te  Te165  1  0.58559857  0.42433356  0.25545020  1
  Te  Te166  1  0.57957060  0.39704365  0.57747210  1
  Te  Te167  1  0.61126300  0.41542909  0.92509597  1
  Te  Te168  1  0.58151316  0.73666014  0.24177740  1
  Te  Te169  1  0.58987897  0.73584568  0.60809343  1
  Te  Te170  1  0.58255520  0.73725538  0.93319062  1
  Te  Te171  1  0.92579300  0.08818845  0.23757991  1
  Te  Te172  1  0.92800374  0.07874427  0.58861334  1
  Te  Te173  1  0.93681266  0.09132350  0.96093613  1
  Te  Te174  1  0.89346228  0.43764558  0.25314431  1
  Te  Te175  1  0.93777814  0.42935336  0.58379036  1
  Te  Te176  1  0.92236473  0.42787501  0.90959909  1
  Te  Te177  1  0.90751885  0.77755025  0.25493799  1
  Te  Te178  1  0.92799909  0.76313769  0.56895841  1
  Te  Te179  1  0.90903423  0.73747417  0.96226587  1
