# generated using pymatgen
data_In2Te3
_symmetry_space_group_name_H-M   'P 1'
_cell_length_a   18.90280437
_cell_length_b   18.92256915
_cell_length_c   18.91524163
_cell_angle_alpha   89.87579121
_cell_angle_beta   89.86417972
_cell_angle_gamma   89.88432130
_symmetry_Int_Tables_number   1
_chemical_formula_structural   In2Te3
_chemical_formula_sum   'In72 Te108'
_cell_volume   6765.73701525
_cell_formula_units_Z   36
loop_
 _symmetry_equiv_pos_site_id
 _symmetry_equiv_pos_as_xyz
  1  'x, y, z'
loop_
 _atom_site_type_symbol
 _atom_site_label
 _atom_site_symmetry_multiplicity
 _atom_site_fract_x
 _atom_site_fract_y
 _atom_site_fract_z
 _atom_site_occupancy
  In  In0  1  0.30964398  0.32884070  0.63836863  1
  In  In1  1  0.48690205  0.47013605  -0.00184807  1
  In  In2  1  0.67495214  0.00588621  0.68754145  1
  In  In3  1  0.49085713  -0.00316559  0.49137957  1
  In  In4  1  0.11919861  0.90918110  0.06762622  1
  In  In5  1  0.67104093  0.15178103  0.48791767  1
  In  In6  1  0.13632909  0.32129368  0.83346953  1
  In  In7  1  -0.01076018  0.65957219  0.64419309  1
  In  In8  1  0.85737295  0.50253952  0.00270704  1
  In  In9  1  -0.01582751  0.85923632  0.80419257  1
  In  In10  1  0.00644529  0.48600653  0.18064281  1
  In  In11  1  0.31505690  0.66683850  0.01413188  1
  In  In12  1  0.85073922  0.66900793  0.49034805  1
  In  In13  1  0.33077198  0.13964207  0.84157635  1
  In  In14  1  0.66639620  0.85924696  0.84866028  1
  In  In15  1  -0.01959714  0.15590434  0.83289565  1
  In  In16  1  0.51018093  0.83706954  0.65384667  1
  In  In17  1  0.33346554  0.68202606  0.34349701  1
  In  In18  1  0.49797353  0.33294937  0.83291849  1
  In  In19  1  0.49635175  0.66386623  0.16542474  1
  In  In20  1  0.84055167  0.85076614  0.64716418  1
  In  In21  1  0.17819027  0.15680137  0.64973380  1
  In  In22  1  0.69363095  0.52221927  0.83455303  1
  In  In23  1  0.03259563  0.32414697  0.64234899  1
  In  In24  1  0.66392018  0.48514085  0.52390563  1
  In  In25  1  0.33251087  0.48440154  0.83483837  1
  In  In26  1  0.31975607  0.87727939  0.16899432  1
  In  In27  1  0.81770709  0.30134878  0.82885421  1
  In  In28  1  0.64565062  0.29958262  0.64684298  1
  In  In29  1  0.17511549  0.51111506  0.64066324  1
  In  In30  1  0.66724903  0.72474118  0.03119648  1
  In  In31  1  0.29890950  0.29108153  0.35408767  1
  In  In32  1  0.16557602  0.01314044  0.48388773  1
  In  In33  1  -0.00124123  0.68950344  0.32674139  1
  In  In34  1  0.84570012  0.14157173  0.30202065  1
  In  In35  1  0.18040705  0.32190520  0.18808581  1
  In  In36  1  0.69957197  0.85504860  0.20098999  1
  In  In37  1  0.33123574  0.00589650  0.32891472  1
  In  In38  1  0.66908319  0.29591827  0.00725801  1
  In  In39  1  0.84080059  0.46515185  0.65170559  1
  In  In40  1  0.66379485  0.65645607  0.70024639  1
  In  In41  1  0.34734404  0.85019786  0.85927152  1
  In  In42  1  0.13983925  0.85415528  0.31743837  1
  In  In43  1  0.50405387  0.48458855  0.34699595  1
  In  In44  1  0.51050252  0.14848927  0.30992233  1
  In  In45  1  0.14362282  0.86309586  0.64088736  1
  In  In46  1  0.02766684  0.31864688  0.34960907  1
  In  In47  1  0.84835914  0.11229776  0.05116594  1
  In  In48  1  0.34353002  0.14286599  0.16579257  1
  In  In49  1  0.67742439  0.33589909  0.33997338  1
  In  In50  1  0.16921672  -0.01017552  0.83072544  1
  In  In51  1  0.17331499  0.68301316  0.83824312  1
  In  In52  1  0.63081520  0.84469680  0.47270231  1
  In  In53  1  0.85573441  0.67339489  0.83703795  1
  In  In54  1  0.66549004  0.51937434  0.17145855  1
  In  In55  1  0.32999364  0.50127691  0.48931585  1
  In  In56  1  0.54031307  0.13663869  0.00204927  1
  In  In57  1  0.01349206  0.69412723  -0.00659809  1
  In  In58  1  0.14814033  0.66893841  0.15914837  1
  In  In59  1  0.51889634  0.65268179  0.81409201  1
  In  In60  1  -0.01947846  0.32304606  -0.01650689  1
  In  In61  1  0.90672066  0.02460411  0.46651289  1
  In  In62  1  0.15882886  0.51937583  0.00033327  1
  In  In63  1  0.51781403  0.87065971  0.02762780  1
  In  In64  1  0.48388007  0.65581288  0.48530728  1
  In  In65  1  0.81860267  0.87408783  0.03404931  1
  In  In66  1  0.83704872  0.32087113  0.49874607  1
  In  In67  1  0.32797499  0.69791697  0.63693750  1
  In  In68  1  0.68892941  0.67571479  0.31119161  1
  In  In69  1  0.33728843  0.32059156  0.02463461  1
  In  In70  1  0.83643179  0.32897802  0.17256584  1
  In  In71  1  0.47253174  0.17342573  0.67763474  1
  Te  Te72  1  0.05848761  0.04387694  0.09916027  1
  Te  Te73  1  0.11466497  0.10519203  0.37701035  1
  Te  Te74  1  0.08547723  0.08415296  0.74676972  1
  Te  Te75  1  0.07790965  0.40957236  0.06919274  1
  Te  Te76  1  0.07607825  0.41308765  0.44995292  1
  Te  Te77  1  0.08735333  0.42835942  0.73954586  1
  Te  Te78  1  0.05065132  0.77661549  0.11508004  1
  Te  Te79  1  0.09121842  0.75919689  0.41875743  1
  Te  Te80  1  0.07167032  0.74818394  0.74426793  1
  Te  Te81  1  0.42911166  0.06522496  0.07113163  1
  Te  Te82  1  0.41002890  0.10168399  0.41583197  1
  Te  Te83  1  0.40025835  0.06168640  0.73951612  1
  Te  Te84  1  0.40317461  0.42183140  0.10701376  1
  Te  Te85  1  0.40513059  0.39360533  0.41444400  1
  Te  Te86  1  0.40859865  0.40376538  0.73301656  1
  Te  Te87  1  0.41488521  0.76167983  0.08042165  1
  Te  Te88  1  0.42414977  0.77109089  0.41831517  1
  Te  Te89  1  0.41235608  0.74903206  0.75516991  1
  Te  Te90  1  0.72250694  0.06936280  0.12317475  1
  Te  Te91  1  0.76575389  0.06490825  0.41091944  1
  Te  Te92  1  0.72436096  0.10373084  0.78466565  1
  Te  Te93  1  0.75416711  0.41719002  0.07587597  1
  Te  Te94  1  0.76240557  0.43005607  0.42218515  1
  Te  Te95  1  0.73631292  0.39561297  0.73810507  1
  Te  Te96  1  0.78533174  0.75167404  0.11864292  1
  Te  Te97  1  0.74721613  0.76047564  0.42225643  1
  Te  Te98  1  0.75676133  0.76715640  0.75724374  1
  Te  Te99  1  0.06932315  0.23763112  0.23397583  1
  Te  Te100  1  0.07585019  0.21216259  0.55484342  1
  Te  Te101  1  0.08083448  0.22109626  0.93097481  1
  Te  Te102  1  0.09252560  0.57690202  0.26485232  1
  Te  Te103  1  0.08282679  0.58845779  0.55648584  1
  Te  Te104  1  0.06897636  0.58743344  0.89877080  1
  Te  Te105  1  0.12263909  0.96773207  0.21954864  1
  Te  Te106  1  0.05286430  0.95785312  0.56924830  1
  Te  Te107  1  0.07117257  0.91059658  0.91571436  1
  Te  Te108  1  0.40923283  0.24733700  0.25239628  1
  Te  Te109  1  0.39613825  0.23399468  0.56810677  1
  Te  Te110  1  0.42014033  0.24022796  0.92448638  1
  Te  Te111  1  0.41792599  0.58053508  0.26396493  1
  Te  Te112  1  0.41171809  0.57857109  0.59368169  1
  Te  Te113  1  0.40706096  0.58722599  0.92043469  1
  Te  Te114  1  0.42999704  0.93486638  0.24386613  1
  Te  Te115  1  0.41016565  0.89576842  0.56488801  1
  Te  Te116  1  0.43238122  0.94671840  0.93327346  1
  Te  Te117  1  0.73945785  0.23659855  0.24356795  1
  Te  Te118  1  0.76251910  0.22233440  0.58763376  1
  Te  Te119  1  0.78140368  0.21690641  0.94839351  1
  Te  Te120  1  0.77707326  0.58056542  0.24204312  1
  Te  Te121  1  0.76088680  0.58855158  0.59534196  1
  Te  Te122  1  0.75849989  0.61340876  0.93921592  1
  Te  Te123  1  0.80181977  0.91538188  0.29098804  1
  Te  Te124  1  0.72352495  0.91399885  0.57589753  1
  Te  Te125  1  0.75222773  0.95438515  0.92439509  1
  Te  Te126  1  0.23876967  0.22478286  0.08472862  1
  Te  Te127  1  0.19412431  0.21812616  0.43630902  1
  Te  Te128  1  0.25099839  0.25200600  0.76159154  1
  Te  Te129  1  0.25349175  0.56607647  0.10874832  1
  Te  Te130  1  0.24335723  0.59573868  0.41953211  1
  Te  Te131  1  0.25610707  0.58920240  0.75168330  1
  Te  Te132  1  0.26143483  0.95523161  0.05733004  1
  Te  Te133  1  0.24872576  0.90783312  0.40965045  1
  Te  Te134  1  0.25001596  0.89412815  0.74533010  1
  Te  Te135  1  0.56175207  0.24988295  0.09355030  1
  Te  Te136  1  0.57990053  0.24517040  0.41166699  1
  Te  Te137  1  0.58793038  0.22859504  0.76919743  1
  Te  Te138  1  0.57947150  0.58586481  0.06318752  1
  Te  Te139  1  0.60236713  0.58309825  0.41122029  1
  Te  Te140  1  0.57563889  0.53698355  0.73561595  1
  Te  Te141  1  0.62382847  0.94736919  0.10325081  1
  Te  Te142  1  0.57988880  0.94793296  0.38258235  1
  Te  Te143  1  0.56320806  0.92904452  0.76117393  1
  Te  Te144  1  0.93061420  0.23812392  0.09802815  1
  Te  Te145  1  0.91453625  0.22810425  0.41029729  1
  Te  Te146  1  0.92471691  0.25510888  0.73101350  1
  Te  Te147  1  0.94307515  0.59147816  0.08739429  1
  Te  Te148  1  0.91547976  0.58483034  0.39115601  1
  Te  Te149  1  0.91050434  0.57077314  0.74156394  1
  Te  Te150  1  0.91135207  0.95695471  0.11544611  1
  Te  Te151  1  0.94287130  0.91820915  0.36938180  1
  Te  Te152  1  0.89187673  0.95756874  0.73974002  1
  Te  Te153  1  0.23070424  0.09151248  0.25544768  1
  Te  Te154  1  0.26470979  0.05919283  0.58445182  1
  Te  Te155  1  0.23817173  0.07110383  0.93421935  1
  Te  Te156  1  0.23769689  0.40843240  0.28987340  1
  Te  Te157  1  0.21600215  0.39984462  0.54188138  1
  Te  Te158  1  0.23957540  0.40559827  0.92505324  1
  Te  Te159  1  0.24724820  0.75823717  0.23327376  1
  Te  Te160  1  0.21265313  0.75461962  0.56649940  1
  Te  Te161  1  0.23872391  0.77425769  0.93909018  1
  Te  Te162  1  0.60645412  0.06941114  0.22819157  1
  Te  Te163  1  0.57677735  0.08301860  0.58766102  1
  Te  Te164  1  0.63781855  0.07173663  0.90988706  1
  Te  Te165  1  0.58625307  0.41116917  0.24170730  1
  Te  Te166  1  0.56257642  0.38956978  0.56627713  1
  Te  Te167  1  0.60168042  0.41150874  0.91604324  1
  Te  Te168  1  0.58239079  0.76027166  0.24352970  1
  Te  Te169  1  0.58784756  0.72580706  0.58521268  1
  Te  Te170  1  0.56904127  0.75848693  0.91718001  1
  Te  Te171  1  0.94629941  0.06054205  0.22661846  1
  Te  Te172  1  0.90704614  0.04654235  0.61015396  1
  Te  Te173  1  0.91672328  0.06242867  0.92793797  1
  Te  Te174  1  0.91821805  0.40480337  0.27254599  1
  Te  Te175  1  0.94735400  0.42275698  0.55111519  1
  Te  Te176  1  0.90600154  0.41561112  0.88917445  1
  Te  Te177  1  0.90258850  0.79604489  0.28129898  1
  Te  Te178  1  0.93622927  0.77594311  0.55847904  1
  Te  Te179  1  0.90610487  0.78438775  0.92804775  1
