# generated using pymatgen
data_In2Te3
_symmetry_space_group_name_H-M   'P 1'
_cell_length_a   18.84200019
_cell_length_b   18.84305443
_cell_length_c   18.84388670
_cell_angle_alpha   89.88455535
_cell_angle_beta   89.99731062
_cell_angle_gamma   90.02456997
_symmetry_Int_Tables_number   1
_chemical_formula_structural   In2Te3
_chemical_formula_sum   'In72 Te108'
_cell_volume   6690.33506511
_cell_formula_units_Z   36
loop_
 _symmetry_equiv_pos_site_id
 _symmetry_equiv_pos_as_xyz
  1  'x, y, z'
loop_
 _atom_site_type_symbol
 _atom_site_label
 _atom_site_symmetry_multiplicity
 _atom_site_fract_x
 _atom_site_fract_y
 _atom_site_fract_z
 _atom_site_occupancy
  In  In0  1  0.64975049  0.82887845  0.50518965  1
  In  In1  1  0.18306965  0.48821292  0.35152899  1
  In  In2  1  0.64968018  0.83936351  0.15346482  1
  In  In3  1  0.64581200  0.66660251  0.65532289  1
  In  In4  1  0.83355875  0.83269618  0.66782627  1
  In  In5  1  0.83997322  0.48830025  0.68409596  1
  In  In6  1  0.19226661  -0.00255720  0.50492336  1
  In  In7  1  0.02589485  0.48653298  0.84212442  1
  In  In8  1  0.82734260  0.67390537  0.85005255  1
  In  In9  1  0.82765639  0.00432872  0.15437751  1
  In  In10  1  0.33395147  0.50691900  0.82519561  1
  In  In11  1  0.83765307  0.30659990  0.84111312  1
  In  In12  1  0.18759868  0.82309865  0.67156525  1
  In  In13  1  0.00579819  0.33052344  0.67970196  1
  In  In14  1  0.30468053  0.70447633  0.34138934  1
  In  In15  1  0.85126651  0.66493145  0.19093856  1
  In  In16  1  0.50379035  0.31861903  0.48666706  1
  In  In17  1  0.63866686  0.50533387  0.47396652  1
  In  In18  1  0.33545513  0.83235241  0.17111479  1
  In  In19  1  0.66150846  -0.02344700  0.67101610  1
  In  In20  1  0.34841355  0.86328807  0.50646004  1
  In  In21  1  0.32877444  0.15609877  0.51896409  1
  In  In22  1  0.17223928  -0.00067500  0.82449865  1
  In  In23  1  0.34535455  0.32083836  -0.00708592  1
  In  In24  1  0.50293212  0.34488018  0.84199134  1
  In  In25  1  0.50976547  0.29682283  0.15563088  1
  In  In26  1  -0.00243357  0.16356399  0.15885213  1
  In  In27  1  0.14967095  0.16564962  -0.01096376  1
  In  In28  1  -0.01845410  0.51793938  0.18609093  1
  In  In29  1  0.15230092  0.32619374  0.15937986  1
  In  In30  1  0.66182681  0.32712758  0.63509409  1
  In  In31  1  0.34028192  0.84113125  0.83027147  1
  In  In32  1  0.88645185  0.83606636  0.31940089  1
  In  In33  1  0.65065518  0.49388984  0.85640001  1
  In  In34  1  0.00160349  0.01895233  -0.01323099  1
  In  In35  1  0.66191214  -0.00532714  0.33748463  1
  In  In36  1  0.67801898  0.16073261  0.84994080  1
  In  In37  1  0.17137120  0.36300446  0.50335196  1
  In  In38  1  0.18703842  0.15344347  0.33302545  1
  In  In39  1  0.18996300  0.30820805  0.79841135  1
  In  In40  1  0.80026981  0.18128337  0.31118943  1
  In  In41  1  0.65650703  0.65886079  0.34235578  1
  In  In42  1  0.65473536  0.66542592  -0.01205747  1
  In  In43  1  0.82415077  0.84800414  -0.00294053  1
  In  In44  1  0.66539369  0.45996391  0.14503066  1
  In  In45  1  0.03225022  0.67781411  0.36256951  1
  In  In46  1  0.00865432  0.67753254  0.65126432  1
  In  In47  1  0.82734435  0.67443266  0.51691730  1
  In  In48  1  0.00816286  0.01207121  0.67467264  1
  In  In49  1  0.32171445  -0.01780578  0.32984064  1
  In  In50  1  0.66931033  0.14626449  0.51057241  1
  In  In51  1  0.34086007  0.66995675  -0.01337043  1
  In  In52  1  0.35633944  0.02646650  0.02027568  1
  In  In53  1  -0.00833287  0.15727746  0.50871966  1
  In  In54  1  0.01188027  0.52917013  0.49315427  1
  In  In55  1  0.34741210  0.51917172  0.53173554  1
  In  In56  1  0.49274703  0.15946323  0.65925953  1
  In  In57  1  0.49289791  0.67395368  0.83517030  1
  In  In58  1  0.14056249  0.82741885  0.02972298  1
  In  In59  1  0.83323604  0.47557363  0.31801799  1
  In  In60  1  0.51092453  0.15411427  0.32086351  1
  In  In61  1  0.82892958  0.32158869  0.49575486  1
  In  In62  1  0.37845225  0.30958734  0.32409684  1
  In  In63  1  0.16276358  0.65452608  0.82340344  1
  In  In64  1  0.49730176  0.67023281  0.17342007  1
  In  In65  1  0.51139852  0.52129125  0.33159080  1
  In  In66  1  0.65375903  -0.00125349  0.00673740  1
  In  In67  1  0.50049218  0.00585998  0.81474121  1
  In  In68  1  0.00260675  0.33761404  0.00831869  1
  In  In69  1  0.18498815  0.52927252  -0.01230035  1
  In  In70  1  0.83988834  0.00455318  0.85182212  1
  In  In71  1  0.31990123  0.49753380  0.14794609  1
  Te  Te72  1  0.09756888  0.06810794  0.09542797  1
  Te  Te73  1  0.09041528  0.07686842  0.42221649  1
  Te  Te74  1  0.07334778  0.09803596  0.77518336  1
  Te  Te75  1  0.09212220  0.44364262  0.08267124  1
  Te  Te76  1  0.06208111  0.41331724  0.40764108  1
  Te  Te77  1  0.11029327  0.42820096  0.73322966  1
  Te  Te78  1  0.05925187  0.72276065  0.09082699  1
  Te  Te79  1  0.09692821  0.79194529  0.43134674  1
  Te  Te80  1  0.07618123  0.76169038  0.75814605  1
  Te  Te81  1  0.44836755  0.10890792  0.10141268  1
  Te  Te82  1  0.41073752  0.08255457  0.41552985  1
  Te  Te83  1  0.39627516  0.09668008  0.75496751  1
  Te  Te84  1  0.42612549  0.41020548  0.08654594  1
  Te  Te85  1  0.41416809  0.42804769  0.41566073  1
  Te  Te86  1  0.40843336  0.40684925  0.74722649  1
  Te  Te87  1  0.43052547  0.75864015  0.07012316  1
  Te  Te88  1  0.41359511  0.78652404  0.39709377  1
  Te  Te89  1  0.38625245  0.72723441  0.74425717  1
  Te  Te90  1  0.75028404  0.09624689  0.06732003  1
  Te  Te91  1  0.76537257  0.07304987  0.41722147  1
  Te  Te92  1  0.74974221  0.07368721  0.74737705  1
  Te  Te93  1  0.79312029  0.38554988  0.12530662  1
  Te  Te94  1  0.73376364  0.40349957  0.40895080  1
  Te  Te95  1  0.73383288  0.40554585  0.75214852  1
  Te  Te96  1  0.75203038  0.74258522  0.09184301  1
  Te  Te97  1  0.75574777  0.75406235  0.40833194  1
  Te  Te98  1  0.73792401  0.74589051  0.74930203  1
  Te  Te99  1  0.08094917  0.24212105  0.26142263  1
  Te  Te100  1  0.08938031  0.25569846  0.57704211  1
  Te  Te101  1  0.07999514  0.26449434  0.89691784  1
  Te  Te102  1  0.09854218  0.57998082  0.26467707  1
  Te  Te103  1  0.10745604  0.59354458  0.58259957  1
  Te  Te104  1  0.06446254  0.60338204  0.93081276  1
  Te  Te105  1  0.01495696  0.91027081  0.28559538  1
  Te  Te106  1  0.09582747  0.91703269  0.59379107  1
  Te  Te107  1  0.08310100  0.91298894  0.91481136  1
  Te  Te108  1  0.39624231  0.19906046  0.21723941  1
  Te  Te109  1  0.40694430  0.26611222  0.59093883  1
  Te  Te110  1  0.42866824  0.23555715  0.90826044  1
  Te  Te111  1  0.39517563  0.58630884  0.25411479  1
  Te  Te112  1  0.45319309  0.61240077  0.57220019  1
  Te  Te113  1  0.42968315  0.56300077  0.92839914  1
  Te  Te114  1  0.42673731  0.92288125  0.24414407  1
  Te  Te115  1  0.41873234  0.97977390  0.56157795  1
  Te  Te116  1  0.42371417  0.92557214  0.92255696  1
  Te  Te117  1  0.72682600  0.27625935  0.21758709  1
  Te  Te118  1  0.76865924  0.22506216  0.59669737  1
  Te  Te119  1  0.72446740  0.27587614  0.93243948  1
  Te  Te120  1  0.72954261  0.57158532  0.24141257  1
  Te  Te121  1  0.74534994  0.56102995  0.58185324  1
  Te  Te122  1  0.75874267  0.56636615  0.93521026  1
  Te  Te123  1  0.75895692  0.90174056  0.24776050  1
  Te  Te124  1  0.75735835  0.91847970  0.56739585  1
  Te  Te125  1  0.72659073  0.91440557  0.90174309  1
  Te  Te126  1  0.24796585  0.24002622  0.08049229  1
  Te  Te127  1  0.26071397  0.26072158  0.41801665  1
  Te  Te128  1  0.26118397  0.19751459  0.73302138  1
  Te  Te129  1  0.24478850  0.61873049  0.09528548  1
  Te  Te130  1  0.25262150  0.59465935  0.43409316  1
  Te  Te131  1  0.26956166  0.60553346  0.73233887  1
  Te  Te132  1  0.25618367  0.91727395  0.07023712  1
  Te  Te133  1  0.20744891  0.89540634  0.39002010  1
  Te  Te134  1  0.27420429  0.93488426  0.73053559  1
  Te  Te135  1  0.62547338  0.20873216  0.12015553  1
  Te  Te136  1  0.60501134  0.23944599  0.40727170  1
  Te  Te137  1  0.59264071  0.24052308  0.74139403  1
  Te  Te138  1  0.57922937  0.57664318  0.08654892  1
  Te  Te139  1  0.54183260  0.62677263  0.44675192  1
  Te  Te140  1  0.57258644  0.57229996  0.75198477  1
  Te  Te141  1  0.55336396  0.93630000  0.09781953  1
  Te  Te142  1  0.56774349  0.91382088  0.41621157  1
  Te  Te143  1  0.56086534  0.89278740  0.73893619  1
  Te  Te144  1  0.90698821  0.24290092  0.07117402  1
  Te  Te145  1  0.91229708  0.23925260  0.40213042  1
  Te  Te146  1  0.91551298  0.23285145  0.74151982  1
  Te  Te147  1  0.89905705  0.57961146  0.08101493  1
  Te  Te148  1  0.89986844  0.59316586  0.40155721  1
  Te  Te149  1  0.92718333  0.59064657  0.75258908  1
  Te  Te150  1  0.92931287  0.92011301  0.07940469  1
  Te  Te151  1  0.96626980  0.90644105  0.42689724  1
  Te  Te152  1  0.92020900  0.91177915  0.76273432  1
  Te  Te153  1  0.23957580  0.05995057  0.23340336  1
  Te  Te154  1  0.22041606  0.10568378  0.60977621  1
  Te  Te155  1  0.25801473  0.08674239  0.91857769  1
  Te  Te156  1  0.26040794  0.39925244  0.25091681  1
  Te  Te157  1  0.26701418  0.41642915  0.60188635  1
  Te  Te158  1  0.24209524  0.40717676  0.91579636  1
  Te  Te159  1  0.21973056  0.76910742  0.23980791  1
  Te  Te160  1  0.27853337  0.75498985  0.57784820  1
  Te  Te161  1  0.23866875  0.75897451  0.91471758  1
  Te  Te162  1  0.60069975  0.07793335  0.22845478  1
  Te  Te163  1  0.56035317  0.05385322  0.56959728  1
  Te  Te164  1  0.56471411  0.09361350  0.92354521  1
  Te  Te165  1  0.56914497  0.40566175  0.25175399  1
  Te  Te166  1  0.56113837  0.42643206  0.58065016  1
  Te  Te167  1  0.59646583  0.39117986  0.94977068  1
  Te  Te168  1  0.57572211  0.76251970  0.26472604  1
  Te  Te169  1  0.55286492  0.77097448  0.60379656  1
  Te  Te170  1  0.57547740  0.76528778  0.91631040  1
  Te  Te171  1  0.90737974  0.08573824  0.25543108  1
  Te  Te172  1  0.90470895  0.06535661  0.58321551  1
  Te  Te173  1  0.89781026  0.11152252  0.93643823  1
  Te  Te174  1  0.92402480  0.38925823  0.23743140  1
  Te  Te175  1  0.92027970  0.41964938  0.57365183  1
  Te  Te176  1  0.91156104  0.42009446  0.91462807  1
  Te  Te177  1  0.97858258  0.74991679  0.22191586  1
  Te  Te178  1  0.93130471  0.77456164  0.56352306  1
  Te  Te179  1  0.91788799  0.76326616  0.92174593  1
