# generated using pymatgen
data_In2Te3
_symmetry_space_group_name_H-M   'P 1'
_cell_length_a   18.92798453
_cell_length_b   18.91577618
_cell_length_c   18.89336525
_cell_angle_alpha   90.03418088
_cell_angle_beta   90.02566156
_cell_angle_gamma   90.10205930
_symmetry_Int_Tables_number   1
_chemical_formula_structural   In2Te3
_chemical_formula_sum   'In72 Te108'
_cell_volume   6764.52099662
_cell_formula_units_Z   36
loop_
 _symmetry_equiv_pos_site_id
 _symmetry_equiv_pos_as_xyz
  1  'x, y, z'
loop_
 _atom_site_type_symbol
 _atom_site_label
 _atom_site_symmetry_multiplicity
 _atom_site_fract_x
 _atom_site_fract_y
 _atom_site_fract_z
 _atom_site_occupancy
  In  In0  1  0.54644641  0.31396172  0.47888476  1
  In  In1  1  0.68017647  0.50339269  0.18216650  1
  In  In2  1  -0.02309849  0.17688769  0.50830886  1
  In  In3  1  0.82391716  0.49120637  0.66228551  1
  In  In4  1  0.15580751  0.54706293  0.65912888  1
  In  In5  1  0.03750171  0.80197510  0.15082362  1
  In  In6  1  0.82769818  0.82682340  0.37408563  1
  In  In7  1  -0.00323382  0.20702944  0.15727317  1
  In  In8  1  0.83735611  0.49059183  0.00489956  1
  In  In9  1  0.32695536  0.31434743  0.33232435  1
  In  In10  1  0.51684250  0.49585438  0.36487155  1
  In  In11  1  0.49996317  0.67563201  0.81356496  1
  In  In12  1  0.65011206  -0.01439345  0.68538096  1
  In  In13  1  0.67709174  -0.00282477  -0.01178367  1
  In  In14  1  0.82939271  0.31121712  0.18164848  1
  In  In15  1  0.01174511  0.54387745  0.83902644  1
  In  In16  1  0.15680645  0.49699814  0.34719646  1
  In  In17  1  0.13683825  0.36838121  0.16441653  1
  In  In18  1  0.63239784  0.50997471  0.82697150  1
  In  In19  1  0.33716939  0.68055656  0.33953093  1
  In  In20  1  0.50568962  0.15373957  0.66381297  1
  In  In21  1  0.18286096  -0.02896478  0.49036187  1
  In  In22  1  0.33974613  0.50983801  0.51281750  1
  In  In23  1  0.68838179  0.16694880  0.83022516  1
  In  In24  1  -0.10670954  0.18960689  0.82852693  1
  In  In25  1  0.65450482  0.80304951  0.53490992  1
  In  In26  1  0.82385307  0.15755001  0.32767093  1
  In  In27  1  0.33456067  0.34449303  0.68102083  1
  In  In28  1  0.51080678  -0.00329555  0.50669693  1
  In  In29  1  0.10384073  0.78026286  0.65790289  1
  In  In30  1  0.66904180  0.01748341  0.33597502  1
  In  In31  1  0.13047740  0.15629478  0.64781662  1
  In  In32  1  -0.00271637  0.53353297  0.15499660  1
  In  In33  1  0.83940515  0.66100135  0.17621711  1
  In  In34  1  -0.02901643  0.34503392  0.01339408  1
  In  In35  1  0.34011804  0.17352927  0.16878408  1
  In  In36  1  0.32856021  0.69267950  0.65763334  1
  In  In37  1  0.33115833  0.32267027  -0.02117920  1
  In  In38  1  0.50355921  -0.01684791  0.16692493  1
  In  In39  1  0.34144069  0.84576994  0.83500978  1
  In  In40  1  0.83467084  0.47845649  0.35975470  1
  In  In41  1  0.32360191  0.13355833  0.79778906  1
  In  In42  1  0.34382184  -0.02214797  0.63817324  1
  In  In43  1  0.49586630  0.34182848  0.84194513  1
  In  In44  1  0.15657655  -0.01347184  0.17541570  1
  In  In45  1  -0.02249226  0.66910976  0.36205674  1
  In  In46  1  0.50635118  0.81682029  0.33834180  1
  In  In47  1  -0.00745130  -0.02482735  0.33463190  1
  In  In48  1  0.00173757  0.34403096  0.34836971  1
  In  In49  1  0.31905567  0.66693708  -0.00608151  1
  In  In50  1  0.18073574  0.14723533  0.35405052  1
  In  In51  1  0.51111458  0.15009950  0.00948437  1
  In  In52  1  0.83579964  0.83634281  -0.00959670  1
  In  In53  1  0.67351367  0.51224898  0.50990092  1
  In  In54  1  0.34603135  0.16037182  0.48061719  1
  In  In55  1  0.00256800  0.00955809  -0.01769322  1
  In  In56  1  0.33589493  0.51639355  0.14144683  1
  In  In57  1  0.15135505  0.35416872  0.84005307  1
  In  In58  1  0.49757995  0.32232469  0.16261180  1
  In  In59  1  0.17329310  0.17428625  -0.01835143  1
  In  In60  1  0.34224642  0.50526674  0.83666769  1
  In  In61  1  0.86601811  0.82744716  0.65863730  1
  In  In62  1  0.83665518  0.01197369  0.14128642  1
  In  In63  1  0.83548232  0.67366888  0.82003650  1
  In  In64  1  0.30717887  0.83211190  0.17189452  1
  In  In65  1  -0.01202675  0.00793696  0.67637498  1
  In  In66  1  0.64343362  0.67675386  -0.01687583  1
  In  In67  1  0.49257258  0.80684843  -0.03667377  1
  In  In68  1  0.15130510  -0.00854246  0.82642879  1
  In  In69  1  0.68598744  0.33102691  0.64707328  1
  In  In70  1  0.51236326  0.67150782  0.18302558  1
  In  In71  1  0.66488570  0.84302742  0.18260763  1
  Te  Te72  1  0.08784154  0.09974162  0.08582090  1
  Te  Te73  1  0.07098780  0.07577892  0.43033871  1
  Te  Te74  1  0.06491506  0.10478675  0.77285450  1
  Te  Te75  1  0.07627798  0.44974985  0.05456247  1
  Te  Te76  1  0.06717544  0.43354999  0.44587974  1
  Te  Te77  1  0.07964100  0.44152114  0.74146210  1
  Te  Te78  1  0.09181865  0.70529561  0.05515769  1
  Te  Te79  1  0.06630749  0.75178440  0.44913655  1
  Te  Te80  1  0.06105916  0.71349649  0.78476808  1
  Te  Te81  1  0.40652954  0.06791896  0.08288809  1
  Te  Te82  1  0.43476923  0.07272663  0.40588371  1
  Te  Te83  1  0.43373914  0.04507770  0.74136325  1
  Te  Te84  1  0.41777991  0.41253334  0.06697141  1
  Te  Te85  1  0.41491843  0.39910921  0.42745727  1
  Te  Te86  1  0.43788158  0.43943675  0.73934897  1
  Te  Te87  1  0.41953260  0.74738015  0.09084288  1
  Te  Te88  1  0.41694460  0.75446762  0.43908980  1
  Te  Te89  1  0.43593355  0.78755472  0.73046178  1
  Te  Te90  1  0.72191038  0.09103913  0.09501175  1
  Te  Te91  1  0.77869226  0.05796902  0.42622156  1
  Te  Te92  1  0.75693031  0.07835854  0.73294037  1
  Te  Te93  1  0.74638861  0.40371445  0.08880355  1
  Te  Te94  1  0.72786334  0.40034387  0.42660839  1
  Te  Te95  1  0.73548901  0.41818236  0.76234534  1
  Te  Te96  1  0.74287545  0.74664910  0.08417773  1
  Te  Te97  1  0.76420252  0.72730651  0.46269288  1
  Te  Te98  1  0.75661013  0.75105285  0.72339141  1
  Te  Te99  1  0.09951847  0.25000919  0.26598842  1
  Te  Te100  1  0.06458871  0.27020202  0.58467409  1
  Te  Te101  1  0.06388789  0.25999298  0.92186874  1
  Te  Te102  1  0.07607172  0.59673554  0.26568189  1
  Te  Te103  1  0.08191876  0.63775797  0.56458786  1
  Te  Te104  1  0.10483613  0.63551988  0.91257772  1
  Te  Te105  1  0.10702128  0.88825118  0.28316647  1
  Te  Te106  1  0.08899580  0.92428360  0.59697658  1
  Te  Te107  1  0.09328817  0.90638894  0.93205191  1
  Te  Te108  1  0.43757638  0.23141688  0.27076743  1
  Te  Te109  1  0.41255235  0.24858462  0.58961713  1
  Te  Te110  1  0.41005045  0.22236707  0.89674185  1
  Te  Te111  1  0.42186449  0.57080155  0.25781137  1
  Te  Te112  1  0.42618399  0.59796892  0.59454131  1
  Te  Te113  1  0.43270673  0.59179846  0.92251284  1
  Te  Te114  1  0.41259004  0.90480571  0.25897921  1
  Te  Te115  1  0.41500108  0.88918116  0.54462954  1
  Te  Te116  1  0.42077251  0.92821827  0.92795889  1
  Te  Te117  1  0.72161271  0.24797740  0.26357931  1
  Te  Te118  1  0.79039370  0.23438522  0.60763538  1
  Te  Te119  1  0.78170530  0.26455394  0.88903842  1
  Te  Te120  1  0.75912804  0.58675632  0.28235262  1
  Te  Te121  1  0.77643835  0.60106328  0.57211131  1
  Te  Te122  1  0.74561725  0.58387728  0.91855718  1
  Te  Te123  1  0.77267572  0.92302046  0.25215084  1
  Te  Te124  1  0.74588428  0.90723008  0.59594640  1
  Te  Te125  1  0.77345039  0.93268732  0.89597309  1
  Te  Te126  1  0.24104713  0.26323385  0.09290764  1
  Te  Te127  1  0.23411651  0.26179077  0.43952995  1
  Te  Te128  1  0.23873654  0.25573918  0.76018054  1
  Te  Te129  1  0.22675279  0.60381645  0.09464656  1
  Te  Te130  1  0.24602298  0.59108923  0.42671908  1
  Te  Te131  1  0.25623454  0.60274307  0.75866070  1
  Te  Te132  1  0.22467531  0.90518168  0.07374160  1
  Te  Te133  1  0.23158054  0.90069115  0.37409958  1
  Te  Te134  1  0.24639101  0.91453672  0.73618056  1
  Te  Te135  1  0.58820457  0.26083242  0.06445794  1
  Te  Te136  1  0.64703311  0.24212960  0.40512218  1
  Te  Te137  1  0.58354630  0.25559441  0.74581635  1
  Te  Te138  1  0.58669194  0.57970947  0.08764977  1
  Te  Te139  1  0.57701042  0.60520553  0.44205189  1
  Te  Te140  1  0.60519771  0.61476335  0.72345159  1
  Te  Te141  1  0.58273348  0.89665604  0.06658703  1
  Te  Te142  1  0.60727649  0.90204429  0.41802911  1
  Te  Te143  1  0.57415134  0.87912884  0.75198636  1
  Te  Te144  1  0.88146280  0.22918468  0.06345867  1
  Te  Te145  1  0.89341069  0.26336997  0.41514064  1
  Te  Te146  1  0.90443519  0.27909661  0.70488564  1
  Te  Te147  1  0.91580728  0.61241298  0.05394940  1
  Te  Te148  1  0.93258330  0.55154522  0.44204382  1
  Te  Te149  1  0.92305768  0.59151983  0.72569426  1
  Te  Te150  1  0.93817032  0.90849050  0.09126520  1
  Te  Te151  1  0.90998627  0.92518772  0.44570825  1
  Te  Te152  1  0.93707489  0.90200977  0.76583209  1
  Te  Te153  1  0.26077130  0.07203173  0.25098927  1
  Te  Te154  1  0.25091139  0.09061296  0.58452467  1
  Te  Te155  1  0.25571120  0.06739186  0.91679916  1
  Te  Te156  1  0.25862680  0.42235706  0.24840037  1
  Te  Te157  1  0.24229514  0.43126021  0.59835069  1
  Te  Te158  1  0.24291019  0.43681235  0.92898720  1
  Te  Te159  1  0.23552971  0.72598786  0.24449959  1
  Te  Te160  1  0.22662342  0.75977953  0.57540815  1
  Te  Te161  1  0.24597984  0.75258385  0.89971692  1
  Te  Te162  1  0.59775174  0.08251607  0.22354638  1
  Te  Te163  1  0.60745930  0.09147685  0.57307409  1
  Te  Te164  1  0.58373322  0.07654738  0.89922806  1
  Te  Te165  1  0.58208676  0.41390438  0.25574610  1
  Te  Te166  1  0.57585968  0.41521000  0.58484315  1
  Te  Te167  1  0.58547221  0.41605863  0.93046440  1
  Te  Te168  1  0.61704136  0.73207908  0.27494231  1
  Te  Te169  1  0.56713661  0.69622553  0.59175952  1
  Te  Te170  1  0.61497817  0.78159126  0.87340445  1
  Te  Te171  1  0.93799851  0.08809023  0.24312403  1
  Te  Te172  1  0.89283380  0.09524915  0.60205790  1
  Te  Te173  1  0.88477863  0.06399307  0.91042340  1
  Te  Te174  1  0.92214314  0.42030534  0.23468418  1
  Te  Te175  1  0.89339706  0.38150168  0.59078128  1
  Te  Te176  1  0.92166902  0.42965495  0.89636668  1
  Te  Te177  1  0.91822816  0.76631620  0.25276380  1
  Te  Te178  1  0.96711606  0.75066023  0.57285478  1
  Te  Te179  1  0.92637934  0.76779249  0.89357825  1
