# generated using pymatgen
data_In2Te3
_symmetry_space_group_name_H-M   'P 1'
_cell_length_a   18.97013740
_cell_length_b   18.96573060
_cell_length_c   18.95340567
_cell_angle_alpha   90.08790245
_cell_angle_beta   89.93044389
_cell_angle_gamma   90.18215701
_symmetry_Int_Tables_number   1
_chemical_formula_structural   In2Te3
_chemical_formula_sum   'In72 Te108'
_cell_volume   6819.05649549
_cell_formula_units_Z   36
loop_
 _symmetry_equiv_pos_site_id
 _symmetry_equiv_pos_as_xyz
  1  'x, y, z'
loop_
 _atom_site_type_symbol
 _atom_site_label
 _atom_site_symmetry_multiplicity
 _atom_site_fract_x
 _atom_site_fract_y
 _atom_site_fract_z
 _atom_site_occupancy
  In  In0  1  0.66326931  0.67046966  0.29714795  1
  In  In1  1  -0.00141481  0.37205655  -0.00824080  1
  In  In2  1  0.50644738  0.14737217  -0.00448291  1
  In  In3  1  0.85742053  0.14319485  0.32723171  1
  In  In4  1  0.32670726  0.32966700  0.03367563  1
  In  In5  1  0.47156983  0.67885834  0.14428472  1
  In  In6  1  0.50644234  0.83257554  0.66929630  1
  In  In7  1  0.67322685  0.32177050  0.69225766  1
  In  In8  1  0.14482099  0.79996809  0.02300032  1
  In  In9  1  0.38911699  -0.04018753  0.02429942  1
  In  In10  1  0.14745258  0.52740503  -0.03552699  1
  In  In11  1  0.50592504  0.50529799  0.29654802  1
  In  In12  1  0.72301235  0.55551087  0.10987084  1
  In  In13  1  0.81671194  0.84094794  0.69178923  1
  In  In14  1  -0.00806183  0.57267637  0.12058819  1
  In  In15  1  0.66165083  -0.01009600  0.68250039  1
  In  In16  1  -0.00663555  0.49080262  0.51757989  1
  In  In17  1  0.82054774  0.14658395  0.65163827  1
  In  In18  1  0.14434160  0.49945759  0.33541924  1
  In  In19  1  0.17619202  -0.00068704  0.17400920  1
  In  In20  1  -0.00921765  0.84517033  0.51463879  1
  In  In21  1  0.00374390  0.17372039  0.83776924  1
  In  In22  1  0.35830147  0.51273565  0.83808915  1
  In  In23  1  0.83683890  0.33386080  0.84987370  1
  In  In24  1  -0.03322534  0.81958166  0.84122795  1
  In  In25  1  0.49959495  -0.01959899  0.50815364  1
  In  In26  1  0.33980528  0.14688538  0.47594330  1
  In  In27  1  0.16003525  0.85268994  0.30396874  1
  In  In28  1  0.15316011  0.31629656  0.16644925  1
  In  In29  1  0.55389161  0.32791203  0.47681069  1
  In  In30  1  0.03253833  0.14649872  0.48941524  1
  In  In31  1  -0.00467567  -0.02339598  0.02292649  1
  In  In32  1  0.52204653  0.33759415  0.82407385  1
  In  In33  1  0.13402066  0.83533032  0.68083001  1
  In  In34  1  0.18163190  0.31985918  0.52386992  1
  In  In35  1  0.20070949  0.19512015  0.00331141  1
  In  In36  1  0.00374945  0.66597983  0.31952050  1
  In  In37  1  0.35804967  0.33034990  0.32576382  1
  In  In38  1  0.33073090  0.84083386  0.18196714  1
  In  In39  1  0.47443540  0.85191130  0.33354961  1
  In  In40  1  0.30968902  0.51797663  0.15387425  1
  In  In41  1  0.83874031  0.36724134  0.15799237  1
  In  In42  1  0.67895572  0.31578958  0.34019795  1
  In  In43  1  0.83309343  0.79914969  0.31843921  1
  In  In44  1  0.67368559  0.14765277  0.16511456  1
  In  In45  1  0.51639056  0.68773605  0.86015205  1
  In  In46  1  0.32262509  0.49560764  0.49248178  1
  In  In47  1  0.81615740  0.34013370  0.50510032  1
  In  In48  1  -0.03012697  0.34047504  0.31868471  1
  In  In49  1  0.00655712  0.15675030  0.16784621  1
  In  In50  1  0.48368053  0.50163809  0.66780035  1
  In  In51  1  0.67712503  0.50328475  0.87212690  1
  In  In52  1  0.70336330  0.83347141  0.88226921  1
  In  In53  1  0.65105724  -0.00358886  0.32017515  1
  In  In54  1  0.30599936  0.30902058  0.63434189  1
  In  In55  1  0.15115635  0.65489385  0.50304200  1
  In  In56  1  0.82407775  -0.01441150  0.49494338  1
  In  In57  1  0.30220104  0.68389263  0.66687436  1
  In  In58  1  0.49671905  0.16686825  0.65463395  1
  In  In59  1  0.82882158  0.16897588  0.00109886  1
  In  In60  1  0.68655642  0.51035634  0.49741759  1
  In  In61  1  0.17069934  0.14568780  0.66841167  1
  In  In62  1  0.10927829  0.52842235  0.72776398  1
  In  In63  1  0.17079163  0.36488921  0.81247330  1
  In  In64  1  0.50904435  0.31512409  0.16431724  1
  In  In65  1  0.31490726  0.83685529  0.85535001  1
  In  In66  1  0.48410428  0.69076677  0.46845563  1
  In  In67  1  0.17139908  0.00065962  0.84154116  1
  In  In68  1  0.84945252  0.67737181  0.50197927  1
  In  In69  1  0.37242098  0.15592878  0.82860589  1
  In  In70  1  0.67230508  0.84137806  0.13766865  1
  In  In71  1  0.67194571  0.66666125  0.67720630  1
  Te  Te72  1  0.09933627  0.09226902  0.06522868  1
  Te  Te73  1  0.09984368  0.05147909  0.39922377  1
  Te  Te74  1  0.06987776  0.06768290  0.75169521  1
  Te  Te75  1  0.10666239  0.43065637  0.08093348  1
  Te  Te76  1  0.07699976  0.39703930  0.42535671  1
  Te  Te77  1  0.04121911  0.39704622  0.75103619  1
  Te  Te78  1  0.03352579  0.70546316  0.05234088  1
  Te  Te79  1  0.07674146  0.75706200  0.41703396  1
  Te  Te80  1  0.07955383  0.74118468  0.78216493  1
  Te  Te81  1  0.40473164  0.09191941  0.08534382  1
  Te  Te82  1  0.42841311  0.05611169  0.40173696  1
  Te  Te83  1  0.42934070  0.06181523  0.73316137  1
  Te  Te84  1  0.42017282  0.42691422  0.10377492  1
  Te  Te85  1  0.43537408  0.42655658  0.41736407  1
  Te  Te86  1  0.40308422  0.39538855  0.74031532  1
  Te  Te87  1  0.42217156  0.79831220  0.07130181  1
  Te  Te88  1  0.37840985  0.77642495  0.41781305  1
  Te  Te89  1  0.41200296  0.74022495  0.75541102  1
  Te  Te90  1  0.79193809  0.07731639  0.11118183  1
  Te  Te91  1  0.74553093  0.08129116  0.40833949  1
  Te  Te92  1  0.76940112  0.05766757  0.75777794  1
  Te  Te93  1  0.73543334  0.41336021  0.06787417  1
  Te  Te94  1  0.76558138  0.43061554  0.39514696  1
  Te  Te95  1  0.75138808  0.43039382  0.76001004  1
  Te  Te96  1  0.78752407  0.76432209  0.08409019  1
  Te  Te97  1  0.73852035  0.73426029  0.41841262  1
  Te  Te98  1  0.76187470  0.72986126  0.77924784  1
  Te  Te99  1  0.07616962  0.24189468  0.27379892  1
  Te  Te100  1  0.07554974  0.24261038  0.60037334  1
  Te  Te101  1  0.09257235  0.26712868  0.92183363  1
  Te  Te102  1  0.10255650  0.59483837  0.22754226  1
  Te  Te103  1  0.05307869  0.60138151  0.60250013  1
  Te  Te104  1  0.04851653  0.62037673  0.90109214  1
  Te  Te105  1  0.06379209  0.90872903  0.20725681  1
  Te  Te106  1  0.08215174  0.93423435  0.58570669  1
  Te  Te107  1  0.08197551  0.90288679  0.91837347  1
  Te  Te108  1  0.45120564  0.23019723  0.27085415  1
  Te  Te109  1  0.43197869  0.26523009  0.55887422  1
  Te  Te110  1  0.41900396  0.26577528  0.92917592  1
  Te  Te111  1  0.39867206  0.60038834  0.25234557  1
  Te  Te112  1  0.40585680  0.59799287  0.57955802  1
  Te  Te113  1  0.43496525  0.58971139  0.93512841  1
  Te  Te114  1  0.39565630  0.95075582  0.25756138  1
  Te  Te115  1  0.40876622  0.88164883  0.57106106  1
  Te  Te116  1  0.43083010  0.91899760  0.89108689  1
  Te  Te117  1  0.77631047  0.24801834  0.24322375  1
  Te  Te118  1  0.72718285  0.24014739  0.57575476  1
  Te  Te119  1  0.74009503  0.24429900  0.91346986  1
  Te  Te120  1  0.77186688  0.59072514  0.24521310  1
  Te  Te121  1  0.77276758  0.58444909  0.59776092  1
  Te  Te122  1  0.75386414  0.60799786  0.94102584  1
  Te  Te123  1  0.75173444  0.90761701  0.24929074  1
  Te  Te124  1  0.73404469  0.89948235  0.58059236  1
  Te  Te125  1  0.72764730  0.96156403  0.95895018  1
  Te  Te126  1  0.27211902  0.22846637  0.13531733  1
  Te  Te127  1  0.25452560  0.25272798  0.40896125  1
  Te  Te128  1  0.24866948  0.23694028  0.76524747  1
  Te  Te129  1  0.25133206  0.60133755  0.04642612  1
  Te  Te130  1  0.24616711  0.59080011  0.40361404  1
  Te  Te131  1  0.24599061  0.58769191  0.76909955  1
  Te  Te132  1  0.24302930  0.91726465  0.06376754  1
  Te  Te133  1  0.22656999  0.95477964  0.38994976  1
  Te  Te134  1  0.25007147  0.91575124  0.74434534  1
  Te  Te135  1  0.60189914  0.24133478  0.07034044  1
  Te  Te136  1  0.58026656  0.21496507  0.38566819  1
  Te  Te137  1  0.59150764  0.21695751  0.76578731  1
  Te  Te138  1  0.58564533  0.61534925  0.07568971  1
  Te  Te139  1  0.58078846  0.58037737  0.41248951  1
  Te  Te140  1  0.57706494  0.57857550  0.75961608  1
  Te  Te141  1  0.60639220  0.95336704  0.06152708  1
  Te  Te142  1  0.59150204  0.89768636  0.41792680  1
  Te  Te143  1  0.60163448  0.88583691  0.77468361  1
  Te  Te144  1  0.93496226  0.26549754  0.08082774  1
  Te  Te145  1  0.91570648  0.24229226  0.42971623  1
  Te  Te146  1  0.89899798  0.23689047  0.74968201  1
  Te  Te147  1  0.86400429  0.56629172  0.04212402  1
  Te  Te148  1  0.92299732  0.57796830  0.41435593  1
  Te  Te149  1  0.97148150  0.54943403  0.79028965  1
  Te  Te150  1  0.87880811  0.89140412  0.06016340  1
  Te  Te151  1  0.91127320  0.90527588  0.40173255  1
  Te  Te152  1  0.89818145  0.93201675  0.77398990  1
  Te  Te153  1  0.21696303  0.07676638  0.29483670  1
  Te  Te154  1  0.27170018  0.07969989  0.58650823  1
  Te  Te155  1  0.26895582  0.08772643  0.91840960  1
  Te  Te156  1  0.24901882  0.41405690  0.25666252  1
  Te  Te157  1  0.22856718  0.44402575  0.59838302  1
  Te  Te158  1  0.25926378  0.41961142  0.92476128  1
  Te  Te159  1  0.22932498  0.74726955  0.22951407  1
  Te  Te160  1  0.22520765  0.76819132  0.57107587  1
  Te  Te161  1  0.24667806  0.73365769  0.93603104  1
  Te  Te162  1  0.57313328  0.04434096  0.20305472  1
  Te  Te163  1  0.59337994  0.07730435  0.57893305  1
  Te  Te164  1  0.60234413  0.05229371  0.93590061  1
  Te  Te165  1  0.60435711  0.40827448  0.24097103  1
  Te  Te166  1  0.59585896  0.42656084  0.59546162  1
  Te  Te167  1  0.56706048  0.42624539  0.93020843  1
  Te  Te168  1  0.56836439  0.77005833  0.23591878  1
  Te  Te169  1  0.58212494  0.73636852  0.57846425  1
  Te  Te170  1  0.61371203  0.73980208  0.96034844  1
  Te  Te171  1  0.92489486  0.05217022  0.23299217  1
  Te  Te172  1  0.92400225  0.07064066  0.57065736  1
  Te  Te173  1  0.92950604  0.07877552  0.92954286  1
  Te  Te174  1  0.94685375  0.45026108  0.22104615  1
  Te  Te175  1  0.90093663  0.41231320  0.59925369  1
  Te  Te176  1  0.90343896  0.45373786  0.91331754  1
  Te  Te177  1  0.93887980  0.75785284  0.22452207  1
  Te  Te178  1  0.91665644  0.75662866  0.61270251  1
  Te  Te179  1  0.87264900  0.78006279  0.95170985  1
