# generated using pymatgen
data_In2Te3
_symmetry_space_group_name_H-M   'P 1'
_cell_length_a   18.75364980
_cell_length_b   18.75205444
_cell_length_c   18.74653782
_cell_angle_alpha   90.01031139
_cell_angle_beta   90.01728250
_cell_angle_gamma   90.08842713
_symmetry_Int_Tables_number   1
_chemical_formula_structural   In2Te3
_chemical_formula_sum   'In72 Te108'
_cell_volume   6592.57661177
_cell_formula_units_Z   36
loop_
 _symmetry_equiv_pos_site_id
 _symmetry_equiv_pos_as_xyz
  1  'x, y, z'
loop_
 _atom_site_type_symbol
 _atom_site_label
 _atom_site_symmetry_multiplicity
 _atom_site_fract_x
 _atom_site_fract_y
 _atom_site_fract_z
 _atom_site_occupancy
  In  In0  1  0.66284845  0.67311916  0.65925649  1
  In  In1  1  0.13928334  0.17120521  0.31198927  1
  In  In2  1  0.82355214  -0.00236482  0.83277776  1
  In  In3  1  0.83892443  0.31616298  0.50415530  1
  In  In4  1  0.78999080  0.66805254  0.48861311  1
  In  In5  1  0.15990779  0.33360268  0.83303286  1
  In  In6  1  0.50479844  0.65419580  0.84669374  1
  In  In7  1  0.85334772  0.19456513  0.02226000  1
  In  In8  1  -0.02240398  0.85401419  0.49143440  1
  In  In9  1  0.31730505  0.00452292  0.00776944  1
  In  In10  1  0.84410073  0.65799461  0.84912990  1
  In  In11  1  0.15503601  0.84751809  0.00634654  1
  In  In12  1  0.49894186  -0.00796621  0.17826220  1
  In  In13  1  0.50630753  0.82642707  0.32970831  1
  In  In14  1  0.48657954  0.86064208  0.64310658  1
  In  In15  1  0.50945481  0.35775934  0.16230218  1
  In  In16  1  0.17378590  0.65269230  0.83690585  1
  In  In17  1  0.65098526  0.01209373  0.66716775  1
  In  In18  1  0.32616416  0.34310950  0.66488726  1
  In  In19  1  0.50713575  0.00493587  0.82889127  1
  In  In20  1  0.31665541  0.83613535  0.14995614  1
  In  In21  1  0.50499131  0.49599271  -0.00901059  1
  In  In22  1  0.33913991  0.34674027  0.34012150  1
  In  In23  1  0.69234988  -0.03891982  0.31549418  1
  In  In24  1  0.82305086  -0.00622902  0.47660254  1
  In  In25  1  0.84527018  0.47278483  -0.01847682  1
  In  In26  1  -0.00263062  0.65662105  0.32243540  1
  In  In27  1  0.33416987  0.16740798  0.83518217  1
  In  In28  1  0.00306899  0.83739728  0.16432677  1
  In  In29  1  0.32860258  0.50306470  0.18141380  1
  In  In30  1  0.68895294  0.66238992  0.00793363  1
  In  In31  1  0.31579599  0.83805103  0.81081950  1
  In  In32  1  0.16532972  0.67483909  0.50551688  1
  In  In33  1  0.64738352  0.81961682  0.49085982  1
  In  In34  1  -0.00927123  0.65143550  0.69235620  1
  In  In35  1  0.33379491  0.64913003  0.66259149  1
  In  In36  1  0.84096155  0.82200873  0.66590969  1
  In  In37  1  0.48623095  0.50087719  0.67363003  1
  In  In38  1  0.68430521  0.34899429  -0.01326064  1
  In  In39  1  0.00768418  0.32771493  0.67144242  1
  In  In40  1  0.49372062  0.34986332  0.49953947  1
  In  In41  1  0.66851531  0.50148890  0.16399355  1
  In  In42  1  0.35816706  0.66268392  0.01254315  1
  In  In43  1  -0.00970203  0.17781858  0.81169383  1
  In  In44  1  0.18618323  0.86310576  0.34166840  1
  In  In45  1  0.67440609  0.15702351  0.52716612  1
  In  In46  1  0.17257405  0.33606194  0.50892844  1
  In  In47  1  0.66979950  -0.00212094  0.01008302  1
  In  In48  1  0.47641236  0.15950535  0.36116621  1
  In  In49  1  0.01066983  -0.00034732  0.66180327  1
  In  In50  1  0.67396713  0.15103683  0.16022067  1
  In  In51  1  0.64609272  0.53205042  0.49423493  1
  In  In52  1  0.30394489  0.13562049  0.52046628  1
  In  In53  1  0.67720893  0.33301291  0.31989304  1
  In  In54  1  0.34052115  0.67940048  0.33440665  1
  In  In55  1  0.01673168  0.49276155  0.50795802  1
  In  In56  1  0.50686227  0.83639517  0.01496849  1
  In  In57  1  0.30116228  0.17586055  0.17182330  1
  In  In58  1  0.17069520  0.48518037  0.33762930  1
  In  In59  1  0.86585556  0.13823131  0.29670184  1
  In  In60  1  0.82598835  0.66224645  0.16721737  1
  In  In61  1  0.01287695  0.15745028  0.48838527  1
  In  In62  1  0.00722444  0.68031665  -0.01915923  1
  In  In63  1  0.00606989  -0.00860124  0.00964485  1
  In  In64  1  0.15535644  0.16752638  0.01066720  1
  In  In65  1  0.83631137  0.49648396  0.31174260  1
  In  In66  1  0.85007934  0.19170844  0.68144192  1
  In  In67  1  0.49137348  0.18046421  -0.02616032  1
  In  In68  1  0.15876344  0.83480952  0.66535378  1
  In  In69  1  0.51766952  0.19073136  0.68607698  1
  In  In70  1  0.16279127  0.49208527  0.00085099  1
  In  In71  1  0.00359296  0.48489966  0.16343419  1
  Te  Te72  1  0.06251160  0.09484463  0.10881864  1
  Te  Te73  1  0.10035428  0.06771891  0.41180764  1
  Te  Te74  1  0.09092880  0.09139778  0.74605457  1
  Te  Te75  1  0.07700556  0.39073750  0.07327523  1
  Te  Te76  1  0.07122402  0.39180350  0.40721273  1
  Te  Te77  1  0.09318737  0.42712072  0.73837983  1
  Te  Te78  1  0.09399901  0.73687894  0.09246201  1
  Te  Te79  1  0.07952910  0.75675279  0.40906163  1
  Te  Te80  1  0.07971251  0.75207073  0.76752560  1
  Te  Te81  1  0.42466383  0.08608875  0.08194417  1
  Te  Te82  1  0.38331177  0.05615046  0.41733146  1
  Te  Te83  1  0.41725024  0.08295853  0.73660261  1
  Te  Te84  1  0.40238373  0.41709726  0.07450915  1
  Te  Te85  1  0.41816587  0.44594425  0.41612115  1
  Te  Te86  1  0.42839470  0.39341024  0.76132172  1
  Te  Te87  1  0.43584209  0.74513473  0.11506971  1
  Te  Te88  1  0.41655643  0.76397156  0.43062069  1
  Te  Te89  1  0.42600201  0.75015221  0.75212601  1
  Te  Te90  1  0.78098568  0.07211453  0.08721984  1
  Te  Te91  1  0.74657820  0.10328558  0.40262057  1
  Te  Te92  1  0.74392867  0.10010771  0.74917336  1
  Te  Te93  1  0.76983825  0.40879880  0.10005148  1
  Te  Te94  1  0.75100606  0.42121862  0.42501330  1
  Te  Te95  1  0.71957049  0.35706043  0.75707928  1
  Te  Te96  1  0.74818288  0.76898661  0.09594249  1
  Te  Te97  1  0.76336060  0.78604720  0.40459756  1
  Te  Te98  1  0.74881180  0.74810397  0.75992801  1
  Te  Te99  1  0.06509959  0.24654115  0.20840766  1
  Te  Te100  1  0.09646749  0.23231845  0.59159457  1
  Te  Te101  1  0.06242961  0.25557900  0.92408176  1
  Te  Te102  1  0.09848907  0.57945949  0.24054873  1
  Te  Te103  1  0.09682949  0.58022622  0.60459789  1
  Te  Te104  1  0.06734076  0.56473411  0.90315180  1
  Te  Te105  1  0.07664608  0.92907986  0.26051263  1
  Te  Te106  1  0.09543402  0.92608697  0.55653316  1
  Te  Te107  1  0.08904955  0.92874047  0.90337033  1
  Te  Te108  1  0.42792039  0.25069550  0.24559990  1
  Te  Te109  1  0.41240654  0.24297673  0.57393020  1
  Te  Te110  1  0.41450009  0.27963026  0.89451994  1
  Te  Te111  1  0.42533420  0.58677283  0.25409953  1
  Te  Te112  1  0.42323297  0.58085059  0.56576509  1
  Te  Te113  1  0.39577313  0.56410520  0.90303977  1
  Te  Te114  1  0.39679459  0.91389769  0.25592336  1
  Te  Te115  1  0.38100572  0.92858376  0.56571024  1
  Te  Te116  1  0.41430737  0.91807285  0.92271125  1
  Te  Te117  1  0.76817068  0.24636887  0.23520345  1
  Te  Te118  1  0.73259129  0.27255925  0.60870881  1
  Te  Te119  1  0.75552730  0.23769645  0.91949709  1
  Te  Te120  1  0.72944496  0.59750493  0.26919552  1
  Te  Te121  1  0.75981736  0.57106481  0.59989247  1
  Te  Te122  1  0.74094175  0.55804968  0.90985483  1
  Te  Te123  1  0.76820437  0.90785596  0.20359564  1
  Te  Te124  1  0.74734588  0.91609345  0.58761064  1
  Te  Te125  1  0.73506885  0.90929276  0.91091528  1
  Te  Te126  1  0.26416088  0.25724854  0.05600113  1
  Te  Te127  1  0.25299281  0.24410494  0.41426527  1
  Te  Te128  1  0.24081954  0.24060327  0.73864992  1
  Te  Te129  1  0.24594012  0.59166159  0.08681410  1
  Te  Te130  1  0.25231601  0.58165848  0.42142739  1
  Te  Te131  1  0.25536334  0.56271535  0.75331855  1
  Te  Te132  1  0.21836267  0.94564972  0.10661632  1
  Te  Te133  1  0.28253011  0.91230425  0.44329076  1
  Te  Te134  1  0.24718491  0.94331930  0.73065398  1
  Te  Te135  1  0.58836166  0.25344065  0.08100269  1
  Te  Te136  1  0.58871174  0.25343266  0.41930910  1
  Te  Te137  1  0.60126390  0.27416129  0.78375392  1
  Te  Te138  1  0.57524953  0.59332766  0.08580518  1
  Te  Te139  1  0.58924199  0.63001134  0.39966372  1
  Te  Te140  1  0.59577038  0.57401869  0.75555304  1
  Te  Te141  1  0.60311206  0.90148962  0.11504714  1
  Te  Te142  1  0.58368823  0.93655222  0.41789234  1
  Te  Te143  1  0.58855984  0.90036981  0.75187900  1
  Te  Te144  1  0.94822695  0.27089040  0.10578077  1
  Te  Te145  1  0.92166839  0.24221499  0.40018574  1
  Te  Te146  1  0.89128180  0.30476255  0.78439516  1
  Te  Te147  1  0.91851793  0.58400351  0.07483843  1
  Te  Te148  1  0.91454389  0.57647867  0.42405716  1
  Te  Te149  1  0.90194765  0.55490046  0.75918626  1
  Te  Te150  1  0.90196657  0.90879491  0.08009438  1
  Te  Te151  1  0.91674046  0.93161736  0.38087400  1
  Te  Te152  1  0.92690351  0.91135583  0.75479044  1
  Te  Te153  1  0.24480653  0.07610763  0.26129783  1
  Te  Te154  1  0.22884928  0.04885295  0.61323851  1
  Te  Te155  1  0.23193915  0.07819321  0.90761895  1
  Te  Te156  1  0.23639573  0.39182027  0.23580633  1
  Te  Te157  1  0.26020662  0.43659917  0.57132936  1
  Te  Te158  1  0.25510714  0.41309264  0.91567790  1
  Te  Te159  1  0.23463209  0.75150493  0.24852371  1
  Te  Te160  1  0.26492981  0.76100870  0.58325388  1
  Te  Te161  1  0.26027560  0.75499366  0.92897640  1
  Te  Te162  1  0.58231797  0.08714021  0.26564665  1
  Te  Te163  1  0.55294472  0.08092698  0.57466895  1
  Te  Te164  1  0.60014237  0.09449520  0.91004342  1
  Te  Te165  1  0.57648318  0.43865793  0.27204674  1
  Te  Te166  1  0.59155105  0.42389934  0.58876580  1
  Te  Te167  1  0.58314210  0.41138655  0.89489595  1
  Te  Te168  1  0.60738398  0.72876243  0.28087378  1
  Te  Te169  1  0.55238079  0.73653519  0.57584748  1
  Te  Te170  1  0.59374722  0.75199248  0.92238578  1
  Te  Te171  1  0.96768016  0.05359400  0.22890586  1
  Te  Te172  1  0.90269969  0.08427840  0.57999925  1
  Te  Te173  1  0.91771727  0.08896019  0.91553453  1
  Te  Te174  1  0.92874148  0.39649899  0.25818923  1
  Te  Te175  1  0.91178837  0.41861750  0.59155576  1
  Te  Te176  1  0.94051692  0.39303682  0.90305930  1
  Te  Te177  1  0.90631959  0.75688312  0.25754339  1
  Te  Te178  1  0.92505738  0.73361763  0.57252456  1
  Te  Te179  1  0.90692447  0.77023921  0.92261824  1
