# generated using pymatgen
data_In2Te3
_symmetry_space_group_name_H-M   'P 1'
_cell_length_a   18.81576734
_cell_length_b   18.81237802
_cell_length_c   18.81782825
_cell_angle_alpha   90.16824008
_cell_angle_beta   89.95246948
_cell_angle_gamma   89.91698768
_symmetry_Int_Tables_number   1
_chemical_formula_structural   In2Te3
_chemical_formula_sum   'In72 Te108'
_cell_volume   6660.89599538
_cell_formula_units_Z   36
loop_
 _symmetry_equiv_pos_site_id
 _symmetry_equiv_pos_as_xyz
  1  'x, y, z'
loop_
 _atom_site_type_symbol
 _atom_site_label
 _atom_site_symmetry_multiplicity
 _atom_site_fract_x
 _atom_site_fract_y
 _atom_site_fract_z
 _atom_site_occupancy
  In  In0  1  0.52265936  0.14767902  0.34433688  1
  In  In1  1  0.00798175  0.32034746  0.36325225  1
  In  In2  1  0.82162037  0.64411694  0.17439074  1
  In  In3  1  0.15451926  0.83804298  -0.00716577  1
  In  In4  1  0.67889750  0.33261806  0.32917492  1
  In  In5  1  0.47169558  0.01028699  0.51816225  1
  In  In6  1  0.85130439  0.16738919  0.66303559  1
  In  In7  1  0.31400521  0.51597139  0.50418186  1
  In  In8  1  0.31405381  0.84619434  0.51326294  1
  In  In9  1  0.49937883  0.15709819  0.68122091  1
  In  In10  1  0.02294045  0.66770163  -0.04494003  1
  In  In11  1  0.80920255  0.85375901  0.35844617  1
  In  In12  1  0.52927141  0.15470783  -0.02509632  1
  In  In13  1  0.64363191  0.82492081  0.16411417  1
  In  In14  1  0.32012014  -0.00435379  -0.02362060  1
  In  In15  1  0.47131433  0.69953206  0.80780567  1
  In  In16  1  0.65106996  0.49455834  0.82741858  1
  In  In17  1  0.00483364  0.85424801  0.54610621  1
  In  In18  1  0.83425536  0.47014908  -0.00815809  1
  In  In19  1  -0.00678037  0.66080182  0.34865548  1
  In  In20  1  0.14196999  0.33675757  0.16830397  1
  In  In21  1  -0.00376521  0.32626123  -0.02824532  1
  In  In22  1  0.01756667  0.34685754  0.66702529  1
  In  In23  1  0.31879518  0.34336827  0.36170275  1
  In  In24  1  0.63983051  -0.01071621  0.31449596  1
  In  In25  1  0.16941288  0.17321418  -0.01793015  1
  In  In26  1  0.50689431  0.67554924  0.51666905  1
  In  In27  1  0.67392415  0.82289720  0.51808038  1
  In  In28  1  0.51153558  0.31735422  0.82036089  1
  In  In29  1  0.00102586  0.17198617  0.17867331  1
  In  In30  1  0.82792514  0.32292077  0.15756384  1
  In  In31  1  0.83500515  0.86297248  -0.02420084  1
  In  In32  1  0.66957492  0.48047016  0.50606673  1
  In  In33  1  0.50967651  0.49464234  -0.02397614  1
  In  In34  1  0.16971972  0.00890467  0.16461237  1
  In  In35  1  0.68695057  0.18152827  0.49223047  1
  In  In36  1  0.18146410  0.82383968  0.34457299  1
  In  In37  1  0.68761818  0.81138409  0.80767511  1
  In  In38  1  0.49182372  0.85137183  -0.01128151  1
  In  In39  1  0.02942366  0.03612276  0.37373235  1
  In  In40  1  0.33019024  0.17074294  0.50643517  1
  In  In41  1  0.16298015  0.15204602  0.68399363  1
  In  In42  1  0.33593634  0.34571535  -0.02136650  1
  In  In43  1  0.68328964  0.66136255  -0.00612488  1
  In  In44  1  -0.02985443  0.02792019  -0.05654039  1
  In  In45  1  0.32755901  0.15354925  0.17779089  1
  In  In46  1  0.49100170  -0.01556011  0.16020181  1
  In  In47  1  0.81333289  0.03949707  0.12646761  1
  In  In48  1  0.84223504  0.51642786  0.34846411  1
  In  In49  1  0.29992171  0.49753356  0.83244566  1
  In  In50  1  0.16840902  0.66955014  0.82901013  1
  In  In51  1  0.16440294  0.49432679  0.34699546  1
  In  In52  1  0.84590183  0.50269240  0.67647397  1
  In  In53  1  0.33220325  0.68148088  0.01333848  1
  In  In54  1  0.50852180  0.50191893  0.65607746  1
  In  In55  1  0.85649541  0.17596033  0.32990218  1
  In  In56  1  0.19003846  0.65195536  0.17690473  1
  In  In57  1  0.48594611  0.83468941  0.32953296  1
  In  In58  1  0.84190485  0.67193001  0.52269528  1
  In  In59  1  0.67313877  -0.00993977  0.67735096  1
  In  In60  1  -0.00396639  0.83461600  0.16999499  1
  In  In61  1  0.33288476  -0.02081127  0.69027006  1
  In  In62  1  0.82554205  0.32027773  0.82399422  1
  In  In63  1  0.82500668  0.01257466  0.51826806  1
  In  In64  1  0.31499207  0.33643765  0.65974150  1
  In  In65  1  0.49633408  0.30491864  0.15993681  1
  In  In66  1  -0.02092456  0.48815307  0.14409212  1
  In  In67  1  0.15417887  0.65230375  0.52716128  1
  In  In68  1  0.48829811  0.48481945  0.33501871  1
  In  In69  1  0.32758242  0.53419463  0.15152714  1
  In  In70  1  0.01215642  0.84667294  0.81939194  1
  In  In71  1  0.50163101  0.65994404  0.16695151  1
  Te  Te72  1  0.07660990  0.08830988  0.07322594  1
  Te  Te73  1  0.08244194  0.13251165  0.47090829  1
  Te  Te74  1  0.05289671  0.06303702  0.73937437  1
  Te  Te75  1  0.08518780  0.42206455  0.05665892  1
  Te  Te76  1  0.08274364  0.42042807  0.44239308  1
  Te  Te77  1  0.09265431  0.45216969  0.74431198  1
  Te  Te78  1  0.08307792  0.73885138  0.08815358  1
  Te  Te79  1  0.06956514  0.76026440  0.43486185  1
  Te  Te80  1  0.08192978  0.74588274  0.73276968  1
  Te  Te81  1  0.41414799  0.08831876  0.06989283  1
  Te  Te82  1  0.40106366  0.07677687  0.40348383  1
  Te  Te83  1  0.42671909  0.06457837  0.77146853  1
  Te  Te84  1  0.42093990  0.42676445  0.08495697  1
  Te  Te85  1  0.41789282  0.41625297  0.45138599  1
  Te  Te86  1  0.41939361  0.42267992  0.75812903  1
  Te  Te87  1  0.42208758  0.77076739  0.09901197  1
  Te  Te88  1  0.40720731  0.75269103  0.43008325  1
  Te  Te89  1  0.37008839  0.77601793  0.72416471  1
  Te  Te90  1  0.72797525  0.10365170  0.02212185  1
  Te  Te91  1  0.74704240  0.07019393  0.39811210  1
  Te  Te92  1  0.76160053  0.08510878  0.75362427  1
  Te  Te93  1  0.74277783  0.42650431  0.09722122  1
  Te  Te94  1  0.77485674  0.40257178  0.42406608  1
  Te  Te95  1  0.73735749  0.40834063  0.73683629  1
  Te  Te96  1  0.76257549  0.76172136  0.07907361  1
  Te  Te97  1  0.74569356  0.72990578  0.41660522  1
  Te  Te98  1  0.79194708  0.72564607  0.74998925  1
  Te  Te99  1  0.10185028  0.23535892  0.27347057  1
  Te  Te100  1  0.09273630  0.24260303  0.58417172  1
  Te  Te101  1  0.07048114  0.23026733  0.88624152  1
  Te  Te102  1  0.06673311  0.57518219  0.24447264  1
  Te  Te103  1  0.10613516  0.55112156  0.62663100  1
  Te  Te104  1  0.08089618  0.55485948  0.87708127  1
  Te  Te105  1  0.08374909  0.91980478  0.25985470  1
  Te  Te106  1  0.07957185  0.94531511  0.63866613  1
  Te  Te107  1  0.09710273  0.94506562  0.90427851  1
  Te  Te108  1  0.40910488  0.25064039  0.27488799  1
  Te  Te109  1  0.42617503  0.25428625  0.58944376  1
  Te  Te110  1  0.41486725  0.23775852  0.90839965  1
  Te  Te111  1  0.40685794  0.59506768  0.26767487  1
  Te  Te112  1  0.40283414  0.59686427  0.59834927  1
  Te  Te113  1  0.41446357  0.59403590  0.91051523  1
  Te  Te114  1  0.39892495  0.93212424  0.26183517  1
  Te  Te115  1  0.43482248  0.89369946  0.60305365  1
  Te  Te116  1  0.42720631  0.93820381  0.88754865  1
  Te  Te117  1  0.74385518  0.22578516  0.24010122  1
  Te  Te118  1  0.76403609  0.26175370  0.58715545  1
  Te  Te119  1  0.77698712  0.23546560  0.93780936  1
  Te  Te120  1  0.73471256  0.56453598  0.26043578  1
  Te  Te121  1  0.73931203  0.58439828  0.59349607  1
  Te  Te122  1  0.76128963  0.57182895  0.90043219  1
  Te  Te123  1  0.75363185  0.91882308  0.23127975  1
  Te  Te124  1  0.77635534  0.89666113  0.60290211  1
  Te  Te125  1  0.73480635  0.92927313  0.89005469  1
  Te  Te126  1  0.25538184  0.25857376  0.08941418  1
  Te  Te127  1  0.22893747  0.25688339  0.43939133  1
  Te  Te128  1  0.25791070  0.24242586  0.75742224  1
  Te  Te129  1  0.22797810  0.57469407  0.04403082  1
  Te  Te130  1  0.24259444  0.60928318  0.40681196  1
  Te  Te131  1  0.26379548  0.60086799  0.73488574  1
  Te  Te132  1  0.25430357  0.91032433  0.08463697  1
  Te  Te133  1  0.22228641  0.93253611  0.43569567  1
  Te  Te134  1  0.25533296  0.87166992  0.75637586  1
  Te  Te135  1  0.59634411  0.25074820  0.06736659  1
  Te  Te136  1  0.57793385  0.26483798  0.42290281  1
  Te  Te137  1  0.60650741  0.22407499  0.75694925  1
  Te  Te138  1  0.59218376  0.57335563  0.07997747  1
  Te  Te139  1  0.57617696  0.57207361  0.42540709  1
  Te  Te140  1  0.57687967  0.60243595  0.75002925  1
  Te  Te141  1  0.59878353  0.92996510  0.06481694  1
  Te  Te142  1  0.57969468  0.91213832  0.43115230  1
  Te  Te143  1  0.58254441  0.89321770  0.74357212  1
  Te  Te144  1  0.91667163  0.23680705  0.06900784  1
  Te  Te145  1  0.91896747  0.23638914  0.44766908  1
  Te  Te146  1  0.94376658  0.24758471  0.75718138  1
  Te  Te147  1  0.91565880  0.59910962  0.06102513  1
  Te  Te148  1  0.93760005  0.56939332  0.45627663  1
  Te  Te149  1  0.91044295  0.62415398  0.73521239  1
  Te  Te150  1  0.93094034  0.93288226  0.07274780  1
  Te  Te151  1  0.92718389  0.92061261  0.42536249  1
  Te  Te152  1  0.94519908  0.94960333  0.73126274  1
  Te  Te153  1  0.23243493  0.09114525  0.27067157  1
  Te  Te154  1  0.25638989  0.06970303  0.59347845  1
  Te  Te155  1  0.24153854  0.08403961  0.88853782  1
  Te  Te156  1  0.25536882  0.42330449  0.23857730  1
  Te  Te157  1  0.22299271  0.43128600  0.58890182  1
  Te  Te158  1  0.22668455  0.37979776  0.88516983  1
  Te  Te159  1  0.26554523  0.76106521  0.23953483  1
  Te  Te160  1  0.22341280  0.76292572  0.60032104  1
  Te  Te161  1  0.26296984  0.76934150  0.90952920  1
  Te  Te162  1  0.58496969  0.09297143  0.21723840  1
  Te  Te163  1  0.59656919  0.07982980  0.57003836  1
  Te  Te164  1  0.62442045  0.06195891  0.90944453  1
  Te  Te165  1  0.57977181  0.40803729  0.24058932  1
  Te  Te166  1  0.59021326  0.39486645  0.59687318  1
  Te  Te167  1  0.60359183  0.38691749  0.92418235  1
  Te  Te168  1  0.58801785  0.73470359  0.27086294  1
  Te  Te169  1  0.59199236  0.74766946  0.61493466  1
  Te  Te170  1  0.57616662  0.74094097  0.91926964  1
  Te  Te171  1  0.92109298  0.06314460  0.24972949  1
  Te  Te172  1  0.94242645  0.07521030  0.58535441  1
  Te  Te173  1  0.85812892  0.10962047  0.88930498  1
  Te  Te174  1  0.92352501  0.40116991  0.25623194  1
  Te  Te175  1  0.91251300  0.40887336  0.58349702  1
  Te  Te176  1  0.92505714  0.42585634  0.87991701  1
  Te  Te177  1  0.90474216  0.75126244  0.26103316  1
  Te  Te178  1  0.94565416  0.73382052  0.61662241  1
  Te  Te179  1  0.91088665  0.75641136  0.89666360  1
