# generated using pymatgen
data_In2Te3
_symmetry_space_group_name_H-M   'P 1'
_cell_length_a   18.95369047
_cell_length_b   19.00073320
_cell_length_c   18.98402390
_cell_angle_alpha   89.73099858
_cell_angle_beta   89.89038117
_cell_angle_gamma   89.83984489
_symmetry_Int_Tables_number   1
_chemical_formula_structural   In2Te3
_chemical_formula_sum   'In72 Te108'
_cell_volume   6836.67836373
_cell_formula_units_Z   36
loop_
 _symmetry_equiv_pos_site_id
 _symmetry_equiv_pos_as_xyz
  1  'x, y, z'
loop_
 _atom_site_type_symbol
 _atom_site_label
 _atom_site_symmetry_multiplicity
 _atom_site_fract_x
 _atom_site_fract_y
 _atom_site_fract_z
 _atom_site_occupancy
  In  In0  1  0.06198115  0.53145427  0.82319824  1
  In  In1  1  0.88840267  0.53117078  -0.00975548  1
  In  In2  1  0.83136760  0.70990665  0.88254432  1
  In  In3  1  0.15287173  0.00021171  0.48824439  1
  In  In4  1  0.15675610  0.50790963  0.01297259  1
  In  In5  1  0.00498964  0.67439623  0.67401413  1
  In  In6  1  0.29449015  0.64123872  0.70265272  1
  In  In7  1  0.83623063  0.29334081  0.83411945  1
  In  In8  1  0.68739147  0.53070620  0.43131404  1
  In  In9  1  0.51166216  0.00678998  0.16203133  1
  In  In10  1  -0.02481628  0.68881047  0.32681591  1
  In  In11  1  0.35151843  0.64662723  0.32717881  1
  In  In12  1  0.35023800  0.00643518  0.64338943  1
  In  In13  1  0.65366092  0.33906792  0.02789468  1
  In  In14  1  0.47793786  0.49615154  0.67635045  1
  In  In15  1  0.16803391  -0.02558483  0.86419041  1
  In  In16  1  0.67092652  -0.01946347  0.67051594  1
  In  In17  1  0.48838158  0.00239669  0.83026487  1
  In  In18  1  0.64257517  0.14186912  0.86201573  1
  In  In19  1  0.65614480  0.29490974  0.66856747  1
  In  In20  1  0.01459580  0.35006462  0.00238848  1
  In  In21  1  -0.03243782  0.81693776  0.48375151  1
  In  In22  1  0.19562425  0.47356839  0.31871286  1
  In  In23  1  0.01041828  0.16283240  0.48588274  1
  In  In24  1  0.14036036  0.17528915  0.68995369  1
  In  In25  1  0.65615097  0.33774408  0.33507679  1
  In  In26  1  0.35934910  0.30215277  -0.02304198  1
  In  In27  1  0.36022352  0.50050582  0.48512757  1
  In  In28  1  0.20142745  0.33633392  0.49715063  1
  In  In29  1  0.67796251  0.13574218  0.13679740  1
  In  In30  1  0.85247802  0.34372915  0.17467046  1
  In  In31  1  0.68680776  0.47389020  0.84788516  1
  In  In32  1  0.33278278  0.14684416  0.48433543  1
  In  In33  1  0.49920381  0.52292095  0.02461372  1
  In  In34  1  0.50913026  0.34610198  0.48540362  1
  In  In35  1  0.53982115  0.89200169  -0.00000953  1
  In  In36  1  0.81027026  0.84443629  0.31682118  1
  In  In37  1  0.14950098  0.84998651  0.32846656  1
  In  In38  1  0.14631730  0.67348360  0.17348581  1
  In  In39  1  0.34095273  0.32828799  0.67035049  1
  In  In40  1  0.84575685  -0.00698155  0.47280117  1
  In  In41  1  -0.02044042  0.34484403  0.68605884  1
  In  In42  1  0.30905979  0.01078360  0.30659556  1
  In  In43  1  0.82785106  0.02986777  0.84823616  1
  In  In44  1  0.33816441  0.00262872  0.02094459  1
  In  In45  1  -0.00153048  0.16243482  0.14670903  1
  In  In46  1  0.01561924  0.00340901  0.66125899  1
  In  In47  1  0.67103364  0.15772427  0.50188390  1
  In  In48  1  0.51812033  0.17220472  0.67656137  1
  In  In49  1  0.17216552  0.81285497  0.67463009  1
  In  In50  1  0.69529327  0.51346702  0.19154575  1
  In  In51  1  0.63588161  0.66944854  0.65627900  1
  In  In52  1  0.49911230  0.67072832  0.84441157  1
  In  In53  1  0.51152755  0.66886827  0.18446140  1
  In  In54  1  0.52963427  0.82519751  0.31795547  1
  In  In55  1  0.66394373  0.85198472  0.83458482  1
  In  In56  1  0.31730597  0.80558775  0.83348522  1
  In  In57  1  -0.01998139  0.85481350  0.86016197  1
  In  In58  1  0.54086183  0.68085605  0.46764142  1
  In  In59  1  -0.00849520  0.85748175  0.17485842  1
  In  In60  1  0.16570114  0.34066807  0.84244076  1
  In  In61  1  0.83385096  0.16319848  0.30816408  1
  In  In62  1  0.32032483  0.67258138  0.00872370  1
  In  In63  1  0.00988357  0.52724024  0.49381266  1
  In  In64  1  0.01137750  0.31669463  0.31695578  1
  In  In65  1  0.32655739  0.83441650  0.15164637  1
  In  In66  1  0.82642489  0.82505999  0.66540031  1
  In  In67  1  -0.00863100  0.50114431  0.17294539  1
  In  In68  1  0.49094760  -0.03054806  0.47098904  1
  In  In69  1  0.48870101  0.31249294  0.17038889  1
  In  In70  1  0.17442332  0.17718006  -0.00253800  1
  In  In71  1  0.83107638  0.51551003  0.66155495  1
  Te  Te72  1  0.08124593  0.07750865  0.05656928  1
  Te  Te73  1  0.08386133  0.08172197  0.38567017  1
  Te  Te74  1  0.07721684  0.07077132  0.77972342  1
  Te  Te75  1  0.09726353  0.40952793  0.11368674  1
  Te  Te76  1  0.09117883  0.40776677  0.41669072  1
  Te  Te77  1  0.10246909  0.41944688  0.72929791  1
  Te  Te78  1  0.07432182  0.76740578  0.08770825  1
  Te  Te79  1  0.08431944  0.74555260  0.41747433  1
  Te  Te80  1  0.07125552  0.76400643  0.77721116  1
  Te  Te81  1  0.40044441  0.09504048  0.11529645  1
  Te  Te82  1  0.42191112  0.07602099  0.38668649  1
  Te  Te83  1  0.40468283  0.09887742  0.74858906  1
  Te  Te84  1  0.41525759  0.40837623  0.07734333  1
  Te  Te85  1  0.40560759  0.39564867  0.38733784  1
  Te  Te86  1  0.39906034  0.41729262  0.76988298  1
  Te  Te87  1  0.42895845  0.74989085  0.08027351  1
  Te  Te88  1  0.42251008  0.75373778  0.40359289  1
  Te  Te89  1  0.41165848  0.73402836  0.73830051  1
  Te  Te90  1  0.79179731  0.07709491  0.06240307  1
  Te  Te91  1  0.74511336  0.07634641  0.39657035  1
  Te  Te92  1  0.73330637  0.09363523  0.74756092  1
  Te  Te93  1  0.76447316  0.42726190  0.08178210  1
  Te  Te94  1  0.74769624  0.39761624  0.43019055  1
  Te  Te95  1  0.75751504  0.39995224  0.73617753  1
  Te  Te96  1  0.78265802  0.77974857  0.00619714  1
  Te  Te97  1  0.75813399  0.73157066  0.39333121  1
  Te  Te98  1  0.74047811  0.73707575  0.75568715  1
  Te  Te99  1  0.09761245  0.24331768  0.22369692  1
  Te  Te100  1  0.08569096  0.25996253  0.57605832  1
  Te  Te101  1  0.06926375  0.24605914  0.90777577  1
  Te  Te102  1  0.08160186  0.57738472  0.27142046  1
  Te  Te103  1  0.09531950  0.59733484  0.58832848  1
  Te  Te104  1  0.03402230  0.57879961  0.96262850  1
  Te  Te105  1  0.10931746  0.93897349  0.21793102  1
  Te  Te106  1  0.07210808  0.89183253  0.57632690  1
  Te  Te107  1  0.05004305  0.94862548  0.95112373  1
  Te  Te108  1  0.40128537  0.26645727  0.28026860  1
  Te  Te109  1  0.42110372  0.24224033  0.57130373  1
  Te  Te110  1  0.45567723  0.22297665  0.90180357  1
  Te  Te111  1  0.41445597  0.56612136  0.22402147  1
  Te  Te112  1  0.45095200  0.59165378  0.56260471  1
  Te  Te113  1  0.40375079  0.58170798  0.92020831  1
  Te  Te114  1  0.41704497  0.91104419  0.24583442  1
  Te  Te115  1  0.40492148  0.89777753  0.56577358  1
  Te  Te116  1  0.40508555  0.89928571  0.91667875  1
  Te  Te117  1  0.74053785  0.25544376  0.22757962  1
  Te  Te118  1  0.75843616  0.24667043  0.57633097  1
  Te  Te119  1  0.72867602  0.24709408  0.92920632  1
  Te  Te120  1  0.72793812  0.61147481  0.30382023  1
  Te  Te121  1  0.72500040  0.57946583  0.57453441  1
  Te  Te122  1  0.75661446  0.58120979  0.92449770  1
  Te  Te123  1  0.75897602  0.94120025  0.21553498  1
  Te  Te124  1  0.75314730  0.90999887  0.56409119  1
  Te  Te125  1  0.76515258  0.91575298  0.92376227  1
  Te  Te126  1  0.28118567  0.23278887  0.08175556  1
  Te  Te127  1  0.23284655  0.22396103  0.40348018  1
  Te  Te128  1  0.25215875  0.24433901  0.76303211  1
  Te  Te129  1  0.24845835  0.58146900  0.10779266  1
  Te  Te130  1  0.24878450  0.57681469  0.41473388  1
  Te  Te131  1  0.20480316  0.58369571  0.80087210  1
  Te  Te132  1  0.23096560  0.93561537  0.10008360  1
  Te  Te133  1  0.25568025  0.91718867  0.41518921  1
  Te  Te134  1  0.25340184  0.92249688  0.74160484  1
  Te  Te135  1  0.56641039  0.22544063  0.07343029  1
  Te  Te136  1  0.57563083  0.23332269  0.40990965  1
  Te  Te137  1  0.56306345  0.26134453  0.79446248  1
  Te  Te138  1  0.61405309  0.59494173  0.09139541  1
  Te  Te139  1  0.56153035  0.57370608  0.36897841  1
  Te  Te140  1  0.58790944  0.56845792  0.76678992  1
  Te  Te141  1  0.62524249  0.91062155  0.12111386  1
  Te  Te142  1  0.60722357  0.91585716  0.40131304  1
  Te  Te143  1  0.55848043  0.90433486  0.73839782  1
  Te  Te144  1  0.91019738  0.25829642  0.06594518  1
  Te  Te145  1  0.91070242  0.24794552  0.40809895  1
  Te  Te146  1  0.92221491  0.22238371  0.73918150  1
  Te  Te147  1  0.89181498  0.59723833  0.12126672  1
  Te  Te148  1  0.90472340  0.59686537  0.41769851  1
  Te  Te149  1  0.92482007  0.57863190  0.76044001  1
  Te  Te150  1  0.88289864  0.95406491  0.12691539  1
  Te  Te151  1  0.93555868  0.91878438  0.37842259  1
  Te  Te152  1  0.90445678  0.92731828  0.74319398  1
  Te  Te153  1  0.21371324  0.12080548  0.28238715  1
  Te  Te154  1  0.22582974  0.08921142  0.58897223  1
  Te  Te155  1  0.26215073  0.08000369  0.91488722  1
  Te  Te156  1  0.28601353  0.37089562  0.26772396  1
  Te  Te157  1  0.26859233  0.43571873  0.58848994  1
  Te  Te158  1  0.24944531  0.41232198  0.94216956  1
  Te  Te159  1  0.25210848  0.75137857  0.25808768  1
  Te  Te160  1  0.25136202  0.72459715  0.58901150  1
  Te  Te161  1  0.22573702  0.76012152  0.93781488  1
  Te  Te162  1  0.59147507  0.09479206  0.24700625  1
  Te  Te163  1  0.57257118  0.06562556  0.58289523  1
  Te  Te164  1  0.57821906  0.03416667  0.94647522  1
  Te  Te165  1  0.58421046  0.41872901  0.23082558  1
  Te  Te166  1  0.57966259  0.40880252  0.60137351  1
  Te  Te167  1  0.57220660  0.42417639  0.93253951  1
  Te  Te168  1  0.61872298  0.76657879  0.21443454  1
  Te  Te169  1  0.59334243  0.77533632  0.56716352  1
  Te  Te170  1  0.58394633  0.76135861  0.92790990  1
  Te  Te171  1  0.92853077  0.07143449  0.24253004  1
  Te  Te172  1  0.91718560  0.07943315  0.57447348  1
  Te  Te173  1  0.89056847  0.11257653  0.94917147  1
  Te  Te174  1  0.91051168  0.43036009  0.28114498  1
  Te  Te175  1  0.92043424  0.42842210  0.57582327  1
  Te  Te176  1  0.91183403  0.40369023  0.90322505  1
  Te  Te177  1  0.89001998  0.75068842  0.21972574  1
  Te  Te178  1  0.89566639  0.72341558  0.57883785  1
  Te  Te179  1  0.93605505  0.76627099  0.97713218  1
