# generated using pymatgen
data_In2Te3
_symmetry_space_group_name_H-M   'P 1'
_cell_length_a   19.02598444
_cell_length_b   18.99330599
_cell_length_c   19.00078300
_cell_angle_alpha   90.03715258
_cell_angle_beta   90.12551650
_cell_angle_gamma   89.99686650
_symmetry_Int_Tables_number   1
_chemical_formula_structural   In2Te3
_chemical_formula_sum   'In72 Te108'
_cell_volume   6866.22556067
_cell_formula_units_Z   36
loop_
 _symmetry_equiv_pos_site_id
 _symmetry_equiv_pos_as_xyz
  1  'x, y, z'
loop_
 _atom_site_type_symbol
 _atom_site_label
 _atom_site_symmetry_multiplicity
 _atom_site_fract_x
 _atom_site_fract_y
 _atom_site_fract_z
 _atom_site_occupancy
  In  In0  1  0.16724242  0.16584718  0.66269031  1
  In  In1  1  0.65709718  0.65948107  0.34282831  1
  In  In2  1  0.84670658  0.33632796  0.51114479  1
  In  In3  1  0.18981926  0.34500319  0.48568453  1
  In  In4  1  0.02835208  0.83608825  0.50029335  1
  In  In5  1  0.34926456  -0.01241156  0.64406243  1
  In  In6  1  0.82443956  0.66531670  0.50690810  1
  In  In7  1  0.14827171  0.51519803  0.34113898  1
  In  In8  1  0.50851780  0.84134204  0.33860035  1
  In  In9  1  0.18432579  0.82773932  -0.03337141  1
  In  In10  1  0.65861263  0.15012719  0.51025752  1
  In  In11  1  0.84755063  0.79684257  -0.00677861  1
  In  In12  1  0.34978905  -0.04590997  -0.04218694  1
  In  In13  1  0.49182844  0.66079707  0.84280790  1
  In  In14  1  0.15425246  0.18308511  0.01295944  1
  In  In15  1  0.66174210  0.82369337  0.83479948  1
  In  In16  1  0.34988915  0.35153549  0.00345592  1
  In  In17  1  0.82953672  0.34330236  0.85424557  1
  In  In18  1  0.82170613  0.15847636  0.64375938  1
  In  In19  1  0.84784808  0.80456899  0.29794537  1
  In  In20  1  0.15656942  0.31404988  0.82456354  1
  In  In21  1  0.00502794  0.50273256  0.83874086  1
  In  In22  1  0.84017996  -0.01883647  0.15461630  1
  In  In23  1  0.16533340  0.49767752  0.01142031  1
  In  In24  1  -0.00972444  0.34897283  0.66753727  1
  In  In25  1  0.34123998  0.51330759  0.17369064  1
  In  In26  1  0.13978612  0.33930478  0.16870359  1
  In  In27  1  0.66461613  0.50088359  0.53733161  1
  In  In28  1  0.49650033  0.83324880  0.68746625  1
  In  In29  1  0.65831703  -0.01286458  -0.01179029  1
  In  In30  1  0.68601012  0.53356287  0.86748172  1
  In  In31  1  0.47488631  0.14842367  0.32730142  1
  In  In32  1  0.68826857  0.33286236  0.34589116  1
  In  In33  1  0.67048403  0.50949266  0.14539304  1
  In  In34  1  -0.01365587  0.16859409  0.85128628  1
  In  In35  1  0.16352151  0.00028302  0.16284789  1
  In  In36  1  0.15906564  0.67076591  0.17412979  1
  In  In37  1  0.46671466  0.70258733  0.14315039  1
  In  In38  1  0.82367832  -0.01668964  0.49700847  1
  In  In39  1  0.48679650  0.68158829  0.52101525  1
  In  In40  1  -0.01523627  0.15650528  0.50135813  1
  In  In41  1  0.85204465  0.49825250  0.31527032  1
  In  In42  1  0.17104112  0.67750442  0.49085289  1
  In  In43  1  0.33737089  0.14872154  0.17547104  1
  In  In44  1  0.33829706  0.51317002  0.50879229  1
  In  In45  1  -0.00340933  0.50371524  0.49124259  1
  In  In46  1  0.82067251  0.34853681  0.15944736  1
  In  In47  1  0.82317521  0.16678010  -0.00411465  1
  In  In48  1  0.50201147  -0.00178176  0.16686627  1
  In  In49  1  0.82420644  0.82363723  0.68603020  1
  In  In50  1  0.48086436  0.35031696  0.82776089  1
  In  In51  1  0.15287280  -0.00771520  0.82653190  1
  In  In52  1  0.00258630  0.65271252  -0.00922980  1
  In  In53  1  0.70696944  0.81053095  0.15141926  1
  In  In54  1  0.32453723  0.15226564  0.81771067  1
  In  In55  1  0.49944492  0.49770343  0.31511358  1
  In  In56  1  0.01420520  -0.00186610  0.33726294  1
  In  In57  1  0.50874484  0.50522350  -0.01295665  1
  In  In58  1  0.33453777  -0.02328702  0.35319680  1
  In  In59  1  0.65668881  0.35731710  0.69662476  1
  In  In60  1  0.52187183  0.16377139  0.01066350  1
  In  In61  1  0.65049311  0.18331690  0.17368710  1
  In  In62  1  0.01996566  0.66324195  0.67664198  1
  In  In63  1  0.48012284  0.16133752  0.65367839  1
  In  In64  1  0.51150914  0.32712545  0.51736883  1
  In  In65  1  0.33791917  0.31686242  0.32161631  1
  In  In66  1  -0.00391223  0.17030694  0.17828638  1
  In  In67  1  0.18081455  0.83003186  0.65255341  1
  In  In68  1  0.63598730  0.83530465  0.51708903  1
  In  In69  1  0.31018498  0.53306582  0.79702263  1
  In  In70  1  0.17653656  0.83660735  0.32729871  1
  In  In71  1  0.84220474  0.00131600  0.80869440  1
  Te  Te72  1  0.06679891  0.07868375  0.07869506  1
  Te  Te73  1  0.08811867  0.08008293  0.43186819  1
  Te  Te74  1  0.06778736  0.09197502  0.74857653  1
  Te  Te75  1  0.06090797  0.43614115  0.09422423  1
  Te  Te76  1  0.07132784  0.40305666  0.40799617  1
  Te  Te77  1  0.09567973  0.42637323  0.74290570  1
  Te  Te78  1  0.09385217  0.74829086  0.06258566  1
  Te  Te79  1  0.07533451  0.74188337  0.39301747  1
  Te  Te80  1  0.10352118  0.75744582  0.75766830  1
  Te  Te81  1  0.40781972  0.06940262  0.06741224  1
  Te  Te82  1  0.42074647  0.06481657  0.43207320  1
  Te  Te83  1  0.42359948  0.05900246  0.75846347  1
  Te  Te84  1  0.43898696  0.42617282  0.09921922  1
  Te  Te85  1  0.42143753  0.41236576  0.41351320  1
  Te  Te86  1  0.39027255  0.42527196  0.73991405  1
  Te  Te87  1  0.39986375  0.76799156  0.02543205  1
  Te  Te88  1  0.41501819  0.77672381  0.43373214  1
  Te  Te89  1  0.40098425  0.75990721  0.77782028  1
  Te  Te90  1  0.73756683  0.07947301  0.09112617  1
  Te  Te91  1  0.76257377  0.09503009  0.42564982  1
  Te  Te92  1  0.74842462  0.10148373  0.75585268  1
  Te  Te93  1  0.75224131  0.42685566  0.05315514  1
  Te  Te94  1  0.75273499  0.44486991  0.42524119  1
  Te  Te95  1  0.76187793  0.44226827  0.76295572  1
  Te  Te96  1  0.73538750  0.71138902  0.04461102  1
  Te  Te97  1  0.74036469  0.75897565  0.42151007  1
  Te  Te98  1  0.75432856  0.72792200  0.77187092  1
  Te  Te99  1  0.10055471  0.23271003  0.25832175  1
  Te  Te100  1  0.07558314  0.25979498  0.58002120  1
  Te  Te101  1  0.06048805  0.27246620  0.93345040  1
  Te  Te102  1  0.06508784  0.58290364  0.24368339  1
  Te  Te103  1  0.09647674  0.57799243  0.57758368  1
  Te  Te104  1  0.11927213  0.59429639  0.90202831  1
  Te  Te105  1  0.07370616  0.90358560  0.23610091  1
  Te  Te106  1  0.11357228  0.93327613  0.56956575  1
  Te  Te107  1  0.07464143  0.91271723  0.91937345  1
  Te  Te108  1  0.43515921  0.25294902  0.22449769  1
  Te  Te109  1  0.39973085  0.25122243  0.57079937  1
  Te  Te110  1  0.40708113  0.24184430  0.91547470  1
  Te  Te111  1  0.41911666  0.61256304  0.25851376  1
  Te  Te112  1  0.39009402  0.61192140  0.60798296  1
  Te  Te113  1  0.39139141  0.57019402  0.92066405  1
  Te  Te114  1  0.40892971  0.90602246  0.24001161  1
  Te  Te115  1  0.41912677  0.87993802  0.56830275  1
  Te  Te116  1  0.47267816  0.87658246  0.94115171  1
  Te  Te117  1  0.76474872  0.24223823  0.25356231  1
  Te  Te118  1  0.72976620  0.27696089  0.58484509  1
  Te  Te119  1  0.74125487  0.23458194  0.89541151  1
  Te  Te120  1  0.75101749  0.58945862  0.24643766  1
  Te  Te121  1  0.74499886  0.59833536  0.60888555  1
  Te  Te122  1  0.78952103  0.57349889  0.97011754  1
  Te  Te123  1  0.75163008  0.91185399  0.25641537  1
  Te  Te124  1  0.73739555  0.91430743  0.59914061  1
  Te  Te125  1  0.76910383  0.91007487  0.92109405  1
  Te  Te126  1  0.26025748  0.25723438  0.09254972  1
  Te  Te127  1  0.26294959  0.23810588  0.41801421  1
  Te  Te128  1  0.26366199  0.26155651  0.73277242  1
  Te  Te129  1  0.25896146  0.59435509  0.07958051  1
  Te  Te130  1  0.26203011  0.59285493  0.40325223  1
  Te  Te131  1  0.20471196  0.63303343  0.77354521  1
  Te  Te132  1  0.25174646  0.92027101  0.07195835  1
  Te  Te133  1  0.22673711  0.92027870  0.43832921  1
  Te  Te134  1  0.25788378  0.92111213  0.74897966  1
  Te  Te135  1  0.59790708  0.27160396  0.07102518  1
  Te  Te136  1  0.57849598  0.24804337  0.40561159  1
  Te  Te137  1  0.56296944  0.25099005  0.74776690  1
  Te  Te138  1  0.56801220  0.60425491  0.08289444  1
  Te  Te139  1  0.56751505  0.57721914  0.43213546  1
  Te  Te140  1  0.58266536  0.57161356  0.77140509  1
  Te  Te141  1  0.59608017  0.90249703  0.09707493  1
  Te  Te142  1  0.58816842  0.93236612  0.41967361  1
  Te  Te143  1  0.59667621  0.92126348  0.74800985  1
  Te  Te144  1  0.91237618  0.25213424  0.08261381  1
  Te  Te145  1  0.90749115  0.24707567  0.41479468  1
  Te  Te146  1  0.90779879  0.24656969  0.74253025  1
  Te  Te147  1  0.89166967  0.61026660  0.08535757  1
  Te  Te148  1  0.91798786  0.60145061  0.40599565  1
  Te  Te149  1  0.92146304  0.60471993  0.77023748  1
  Te  Te150  1  0.92372004  0.87351206  0.09740981  1
  Te  Te151  1  0.91446206  0.89406816  0.40542888  1
  Te  Te152  1  0.93038208  0.90943114  0.73871583  1
  Te  Te153  1  0.24657245  0.07291347  0.26551204  1
  Te  Te154  1  0.26780077  0.09459542  0.58501334  1
  Te  Te155  1  0.23140874  0.09050692  0.92025360  1
  Te  Te156  1  0.24877614  0.42332083  0.25375085  1
  Te  Te157  1  0.24097920  0.43627418  0.58622631  1
  Te  Te158  1  0.24186322  0.40618819  0.91560966  1
  Te  Te159  1  0.25914275  0.75953504  0.23452378  1
  Te  Te160  1  0.26898357  0.72933092  0.58911042  1
  Te  Te161  1  0.30121194  0.76417304  0.89997346  1
  Te  Te162  1  0.59060448  0.07541179  0.26175258  1
  Te  Te163  1  0.57432058  0.06716473  0.59221083  1
  Te  Te164  1  0.57480099  0.07589498  0.90833381  1
  Te  Te165  1  0.60543232  0.41571885  0.24759287  1
  Te  Te166  1  0.55314931  0.43599074  0.61427923  1
  Te  Te167  1  0.59390799  0.41228278  0.90752476  1
  Te  Te168  1  0.58853007  0.74763032  0.24026845  1
  Te  Te169  1  0.59075481  0.73181176  0.61565247  1
  Te  Te170  1  0.57370273  0.75101619  0.93130812  1
  Te  Te171  1  0.91050277  0.07215109  0.25456526  1
  Te  Te172  1  0.91833378  0.05510306  0.59191246  1
  Te  Te173  1  0.91466459  0.06472708  0.93083571  1
  Te  Te174  1  0.93155577  0.40290735  0.24053258  1
  Te  Te175  1  0.90275144  0.44945462  0.59589832  1
  Te  Te176  1  0.92836017  0.41875179  0.93089098  1
  Te  Te177  1  0.90501719  0.73038096  0.18365938  1
  Te  Te178  1  0.93032058  0.75260016  0.58164597  1
  Te  Te179  1  0.92635532  0.72787453  0.88802481  1
