# generated using pymatgen
data_In2Te3
_symmetry_space_group_name_H-M   'P 1'
_cell_length_a   18.77399755
_cell_length_b   18.78210462
_cell_length_c   18.77989151
_cell_angle_alpha   89.83203447
_cell_angle_beta   89.94767947
_cell_angle_gamma   90.01996479
_symmetry_Int_Tables_number   1
_chemical_formula_structural   In2Te3
_chemical_formula_sum   'In72 Te108'
_cell_volume   6622.04331922
_cell_formula_units_Z   36
loop_
 _symmetry_equiv_pos_site_id
 _symmetry_equiv_pos_as_xyz
  1  'x, y, z'
loop_
 _atom_site_type_symbol
 _atom_site_label
 _atom_site_symmetry_multiplicity
 _atom_site_fract_x
 _atom_site_fract_y
 _atom_site_fract_z
 _atom_site_occupancy
  In  In0  1  0.18411816  0.84453730  0.00729906  1
  In  In1  1  0.82512793  0.33493643  0.82303214  1
  In  In2  1  0.52770570  0.17014338  0.66730747  1
  In  In3  1  0.35169051  0.16239035  0.51593079  1
  In  In4  1  -0.01977046  0.51106942  0.50067190  1
  In  In5  1  0.67723864  0.50085310  0.16829457  1
  In  In6  1  0.17398401  0.83088435  0.63895501  1
  In  In7  1  0.16140297  0.16736544  0.67800314  1
  In  In8  1  0.18117999  0.64248484  0.80408043  1
  In  In9  1  0.49762373  0.65747293  0.81898301  1
  In  In10  1  -0.00064391  0.00575697  0.33484223  1
  In  In11  1  0.82516812  -0.00228424  0.50053036  1
  In  In12  1  0.66746471  0.51421953  0.48833253  1
  In  In13  1  -0.00457782  0.65188628  0.66324322  1
  In  In14  1  0.51330655  0.48765063  -0.00993135  1
  In  In15  1  0.83716712  0.34613033  0.15111085  1
  In  In16  1  0.02704389  0.65650536  -0.00654940  1
  In  In17  1  0.34761500  0.66449572  0.33235542  1
  In  In18  1  0.65109607  0.00208466  0.32214946  1
  In  In19  1  0.65593669  0.63918829  0.66803648  1
  In  In20  1  0.17875118  -0.00245754  0.16168486  1
  In  In21  1  0.80900792  0.84341855  -0.00086285  1
  In  In22  1  0.81687654  0.80554022  0.31969067  1
  In  In23  1  -0.04934055  0.82587493  0.17929036  1
  In  In24  1  0.15026656  0.17035211  0.31845425  1
  In  In25  1  0.35464557  0.18725202  0.86924689  1
  In  In26  1  0.82884447  0.67499141  0.19035374  1
  In  In27  1  0.65351558  0.67208437  -0.00988132  1
  In  In28  1  0.17569694  0.82105965  0.33829856  1
  In  In29  1  0.35503756  0.15318442  0.12665365  1
  In  In30  1  0.82852634  0.18278245  0.66980769  1
  In  In31  1  0.16342643  0.02131404  0.82977261  1
  In  In32  1  0.17242498  0.49241334  0.66093639  1
  In  In33  1  0.48283508  0.34134556  0.50838009  1
  In  In34  1  0.81692200  0.48957431  -0.00007203  1
  In  In35  1  0.36609696  0.68989963  0.02369734  1
  In  In36  1  0.49391900  -0.01623101  0.84622119  1
  In  In37  1  0.33119035  0.51441410  0.17990297  1
  In  In38  1  0.51095634  0.18319978  0.32673588  1
  In  In39  1  0.64017386  -0.01519255  0.00820852  1
  In  In40  1  0.84412734  0.18625742  0.34535626  1
  In  In41  1  0.13785194  0.34563351  0.49691264  1
  In  In42  1  0.66730787  0.82132211  0.49301171  1
  In  In43  1  0.33716724  0.51735416  0.52141503  1
  In  In44  1  0.65554292  0.16839079  0.14917847  1
  In  In45  1  0.00222975  0.32973990  -0.00603699  1
  In  In46  1  0.32713557  0.81263243  0.49040404  1
  In  In47  1  0.15701456  0.34561038  0.82340110  1
  In  In48  1  0.01106104  0.82470174  0.50989299  1
  In  In49  1  -0.00357125  0.50374693  0.17379077  1
  In  In50  1  0.66621814  0.84946393  0.83689022  1
  In  In51  1  0.51033162  0.34242399  0.15439393  1
  In  In52  1  -0.01697137  0.84332585  0.83154382  1
  In  In53  1  0.67648474  0.33013348  0.66109915  1
  In  In54  1  0.64453256  0.67171152  0.31859676  1
  In  In55  1  0.67214729  0.18268288  0.82740510  1
  In  In56  1  0.01956018  0.19431344  0.15297558  1
  In  In57  1  0.35167154  -0.04131850  0.30761360  1
  In  In58  1  0.83998402  0.64304923  0.82281973  1
  In  In59  1  0.16372587  0.67183597  0.18478388  1
  In  In60  1  0.51023147  0.81852710  0.68250963  1
  In  In61  1  -0.01038634  0.17843029  0.48757888  1
  In  In62  1  0.82198071  -0.00221496  0.15942460  1
  In  In63  1  0.35767408  0.82531731  0.85631161  1
  In  In64  1  0.16842398  0.30933849  0.18328872  1
  In  In65  1  0.32735638  -0.00453521  0.68083768  1
  In  In66  1  0.84999793  0.84029553  0.67218524  1
  In  In67  1  0.66932507  0.34290522  0.35617866  1
  In  In68  1  0.17857847  0.49418693  -0.02626247  1
  In  In69  1  0.32775508  0.34620972  0.34970330  1
  In  In70  1  0.17373722  0.17939273  -0.01294380  1
  In  In71  1  0.50821914  0.01249082  0.51199549  1
  Te  Te72  1  0.08118441  0.07735153  0.06903853  1
  Te  Te73  1  0.09247599  0.07825794  0.42822243  1
  Te  Te74  1  0.05891357  0.08534051  0.74871500  1
  Te  Te75  1  0.09265345  0.41558550  0.08373641  1
  Te  Te76  1  0.06883767  0.43540008  0.40418867  1
  Te  Te77  1  0.06066550  0.41438139  0.72945970  1
  Te  Te78  1  0.07264260  0.76289732  0.09207780  1
  Te  Te79  1  0.09974045  0.73615265  0.43166049  1
  Te  Te80  1  0.07640696  0.74890105  0.75212820  1
  Te  Te81  1  0.42779404  0.05510979  0.04564782  1
  Te  Te82  1  0.41760506  0.08005892  0.40491466  1
  Te  Te83  1  0.41851733  0.09166777  0.75630910  1
  Te  Te84  1  0.40354790  0.42333723  0.08136179  1
  Te  Te85  1  0.42573572  0.44232338  0.41035118  1
  Te  Te86  1  0.41425034  0.47395848  0.69753708  1
  Te  Te87  1  0.46662623  0.76639039  0.10203565  1
  Te  Te88  1  0.43709854  0.74376819  0.42190905  1
  Te  Te89  1  0.39346539  0.73597901  0.73649718  1
  Te  Te90  1  0.74837483  0.08644677  0.06132656  1
  Te  Te91  1  0.74358834  0.08923257  0.40881515  1
  Te  Te92  1  0.74571652  0.08449544  0.74513057  1
  Te  Te93  1  0.71787752  0.39387178  0.06706018  1
  Te  Te94  1  0.76979707  0.41336944  0.43989537  1
  Te  Te95  1  0.74750761  0.43261588  0.74218296  1
  Te  Te96  1  0.73396460  0.75070657  0.09339919  1
  Te  Te97  1  0.75251085  0.71668330  0.42488167  1
  Te  Te98  1  0.74618594  0.74775603  0.75388179  1
  Te  Te99  1  0.04934258  0.27810059  0.27676621  1
  Te  Te100  1  0.06539248  0.25604267  0.59612526  1
  Te  Te101  1  0.06976684  0.23687008  0.89326148  1
  Te  Te102  1  0.09065407  0.57285943  0.26609096  1
  Te  Te103  1  0.09914586  0.59154621  0.57100494  1
  Te  Te104  1  0.07402874  0.56403806  0.88246963  1
  Te  Te105  1  0.07909372  0.91130143  0.24512653  1
  Te  Te106  1  0.07136046  0.92668202  0.59752462  1
  Te  Te107  1  0.08566910  0.91965976  0.91747520  1
  Te  Te108  1  0.40656809  0.26170570  0.24658209  1
  Te  Te109  1  0.41143501  0.25849070  0.61532767  1
  Te  Te110  1  0.45395735  0.27562025  0.93616965  1
  Te  Te111  1  0.44002966  0.59066776  0.24087929  1
  Te  Te112  1  0.43815636  0.58526602  0.60593329  1
  Te  Te113  1  0.41207426  0.58368956  0.92426715  1
  Te  Te114  1  0.46324442  0.89269103  0.23530794  1
  Te  Te115  1  0.41799382  0.91181929  0.59099664  1
  Te  Te116  1  0.40965517  0.92477182  0.95809416  1
  Te  Te117  1  0.73913125  0.25119441  0.24686485  1
  Te  Te118  1  0.76877659  0.26690882  0.56122060  1
  Te  Te119  1  0.75438693  0.25447248  0.92719413  1
  Te  Te120  1  0.75848349  0.56856569  0.27525260  1
  Te  Te121  1  0.76181883  0.57723748  0.58660835  1
  Te  Te122  1  0.72966993  0.57086868  0.90373883  1
  Te  Te123  1  0.73135597  0.90299257  0.23712076  1
  Te  Te124  1  0.73830783  0.91206565  0.59230793  1
  Te  Te125  1  0.75705742  0.94937433  0.90514719  1
  Te  Te126  1  0.26508872  0.26584723  0.07187927  1
  Te  Te127  1  0.24569746  0.23963440  0.42408225  1
  Te  Te128  1  0.26095058  0.24759825  0.76220328  1
  Te  Te129  1  0.24003767  0.59267881  0.07465678  1
  Te  Te130  1  0.25554116  0.58357438  0.41575663  1
  Te  Te131  1  0.28242202  0.53889830  0.75889474  1
  Te  Te132  1  0.28001941  0.90837057  0.10009865  1
  Te  Te133  1  0.25093366  0.92535571  0.41997031  1
  Te  Te134  1  0.24765681  0.89854440  0.76841276  1
  Te  Te135  1  0.55428348  0.23462047  0.05952596  1
  Te  Te136  1  0.58503830  0.24659697  0.44233348  1
  Te  Te137  1  0.56661049  0.28350329  0.76175155  1
  Te  Te138  1  0.57689571  0.58447370  0.09033625  1
  Te  Te139  1  0.56365906  0.59370680  0.41549323  1
  Te  Te140  1  0.58124158  0.54920973  0.76157629  1
  Te  Te141  1  0.56920737  0.89003338  0.09755670  1
  Te  Te142  1  0.57093528  0.91069846  0.41550378  1
  Te  Te143  1  0.58939729  0.93676086  0.73635119  1
  Te  Te144  1  0.90170153  0.23791158  0.06467452  1
  Te  Te145  1  0.89956839  0.28842410  0.43870619  1
  Te  Te146  1  0.92505694  0.23962472  0.76737346  1
  Te  Te147  1  0.90553846  0.59431612  0.07756595  1
  Te  Te148  1  0.92292840  0.61105038  0.40768960  1
  Te  Te149  1  0.90096020  0.54811448  0.72202777  1
  Te  Te150  1  0.92774849  0.93135467  0.06002926  1
  Te  Te151  1  0.90546026  0.90657865  0.40473488  1
  Te  Te152  1  0.90081747  0.94490318  0.76293029  1
  Te  Te153  1  0.26268760  0.09298581  0.24674048  1
  Te  Te154  1  0.24355960  0.07639887  0.58373744  1
  Te  Te155  1  0.26827388  0.07398369  0.92801134  1
  Te  Te156  1  0.23395884  0.42605761  0.25985035  1
  Te  Te157  1  0.25607990  0.39534781  0.57857263  1
  Te  Te158  1  0.26933680  0.40253366  0.90316482  1
  Te  Te159  1  0.27167339  0.76538676  0.23413865  1
  Te  Te160  1  0.25740326  0.72264402  0.58676124  1
  Te  Te161  1  0.24278590  0.73385060  0.91888281  1
  Te  Te162  1  0.55866087  0.07814174  0.22649628  1
  Te  Te163  1  0.61377244  0.08977461  0.57952421  1
  Te  Te164  1  0.57953918  0.08914397  0.91378850  1
  Te  Te165  1  0.58038622  0.42471229  0.26223369  1
  Te  Te166  1  0.58321685  0.42572180  0.58376309  1
  Te  Te167  1  0.56644925  0.38039777  0.90323093  1
  Te  Te168  1  0.55816310  0.76454534  0.23867316  1
  Te  Te169  1  0.57392006  0.73124883  0.57571623  1
  Te  Te170  1  0.56297809  0.76506833  0.90976119  1
  Te  Te171  1  0.91689566  0.09219287  0.23929092  1
  Te  Te172  1  0.91782269  0.08215627  0.58177101  1
  Te  Te173  1  0.95708718  0.05808584  0.97730913  1
  Te  Te174  1  0.89515902  0.43133176  0.25502900  1
  Te  Te175  1  0.94675943  0.42801013  0.62081489  1
  Te  Te176  1  0.92317658  0.42896312  0.91138231  1
  Te  Te177  1  0.94648149  0.71437497  0.29104598  1
  Te  Te178  1  0.90294050  0.73741602  0.57380862  1
  Te  Te179  1  0.90576659  0.74032115  0.92437850  1
