# generated using pymatgen
data_In2Te3
_symmetry_space_group_name_H-M   'P 1'
_cell_length_a   18.91477807
_cell_length_b   18.91105943
_cell_length_c   18.92678376
_cell_angle_alpha   89.92470907
_cell_angle_beta   90.03712112
_cell_angle_gamma   89.95429599
_symmetry_Int_Tables_number   1
_chemical_formula_structural   In2Te3
_chemical_formula_sum   'In72 Te108'
_cell_volume   6770.07258956
_cell_formula_units_Z   36
loop_
 _symmetry_equiv_pos_site_id
 _symmetry_equiv_pos_as_xyz
  1  'x, y, z'
loop_
 _atom_site_type_symbol
 _atom_site_label
 _atom_site_symmetry_multiplicity
 _atom_site_fract_x
 _atom_site_fract_y
 _atom_site_fract_z
 _atom_site_occupancy
  In  In0  1  0.77332896  -0.02496281  0.53359647  1
  In  In1  1  0.17070243  0.83424936  0.01459039  1
  In  In2  1  0.84301986  0.66268296  0.51772412  1
  In  In3  1  0.32096737  -0.01690782  -0.00928978  1
  In  In4  1  0.33971003  0.16830971  0.50488411  1
  In  In5  1  -0.00915161  0.14772394  0.50013038  1
  In  In6  1  0.03291950  0.51082680  0.16584069  1
  In  In7  1  0.01540177  0.50597636  0.81420904  1
  In  In8  1  0.51945278  -0.01468482  0.50606626  1
  In  In9  1  0.35910420  0.01746309  0.32539929  1
  In  In10  1  0.20157769  0.33549806  0.50253888  1
  In  In11  1  0.51725843  0.82836491  0.67804178  1
  In  In12  1  0.68240540  0.67942598  0.34333268  1
  In  In13  1  0.01760512  0.16774348  0.13496415  1
  In  In14  1  0.49017910  0.15387256  0.65106070  1
  In  In15  1  0.83649530  0.32552414  0.17994221  1
  In  In16  1  0.36409989  0.33425611  0.33401201  1
  In  In17  1  0.83764083  0.18345968  0.65166644  1
  In  In18  1  0.66832143  0.33835509  0.65662123  1
  In  In19  1  0.83976658  0.67682188  0.81207320  1
  In  In20  1  0.17715096  0.18068562  0.00068656  1
  In  In21  1  0.32536924  0.64935867  0.65218079  1
  In  In22  1  0.65229311  0.51620229  0.15880628  1
  In  In23  1  0.83193474  0.50334363  -0.00735339  1
  In  In24  1  0.01864193  0.32880826  0.31444302  1
  In  In25  1  0.82528114  0.15400822  0.33381720  1
  In  In26  1  0.48019524  0.17830948  -0.00359864  1
  In  In27  1  0.81849864  0.33551640  0.50746918  1
  In  In28  1  0.16331714  0.66127652  0.50978798  1
  In  In29  1  0.14794235  0.01615796  0.83376442  1
  In  In30  1  0.33758241  0.34631717  0.67301617  1
  In  In31  1  0.47712037  0.49319419  0.00466348  1
  In  In32  1  0.85958706  -0.03038699  0.80937528  1
  In  In33  1  0.32433618  0.83883769  0.84396854  1
  In  In34  1  0.47595710  0.00647698  0.82314868  1
  In  In35  1  0.66890132  0.49283414  0.49979868  1
  In  In36  1  0.20291967  0.46800374  -0.00988907  1
  In  In37  1  0.15050781  -0.01342139  0.48448946  1
  In  In38  1  0.82800799  0.82096706  0.34875581  1
  In  In39  1  0.68231530  -0.00931180  0.00243190  1
  In  In40  1  0.01700656  -0.02355773  0.34231276  1
  In  In41  1  0.66498692  0.84281024  0.17752838  1
  In  In42  1  0.63466065  0.02386170  0.31148568  1
  In  In43  1  0.00851934  0.00294006  -0.00357083  1
  In  In44  1  0.66033941  0.67591197  0.64907794  1
  In  In45  1  0.83962307  0.02129732  0.15351997  1
  In  In46  1  0.17704008  0.16841054  0.67963066  1
  In  In47  1  0.35063160  0.67296762  0.01539215  1
  In  In48  1  0.02047093  0.34764363  -0.02306622  1
  In  In49  1  0.21328251  0.80406057  0.32063834  1
  In  In50  1  0.18657257  0.51686420  0.34273177  1
  In  In51  1  0.82130304  0.67617529  0.17371188  1
  In  In52  1  0.33614773  0.49389133  0.16955591  1
  In  In53  1  0.64855581  0.31633791  -0.01073317  1
  In  In54  1  0.14345911  0.67351582  0.80214077  1
  In  In55  1  0.33628340  0.00728033  0.70135016  1
  In  In56  1  0.62810180  0.32174591  0.35880230  1
  In  In57  1  0.00039571  0.51807531  0.50040941  1
  In  In58  1  0.01499787  0.33639827  0.67177175  1
  In  In59  1  0.67814800  0.15939651  0.83195519  1
  In  In60  1  0.64304072  0.68080512  0.00576518  1
  In  In61  1  0.49553878  0.50847697  0.33603277  1
  In  In62  1  0.33423665  0.81180391  0.51417684  1
  In  In63  1  0.67773457  0.50907613  0.80022883  1
  In  In64  1  0.47934059  0.81797049  0.33936193  1
  In  In65  1  0.00139403  0.67826850  -0.02222305  1
  In  In66  1  -0.00177364  0.84825227  0.16666544  1
  In  In67  1  0.81771113  0.14766717  -0.01532924  1
  In  In68  1  0.01123834  0.82776374  0.51608335  1
  In  In69  1  0.50085495  0.66110748  0.84731316  1
  In  In70  1  0.33550535  0.15969102  0.17124292  1
  In  In71  1  0.48780084  0.33671635  0.83663915  1
  Te  Te72  1  0.11321682  0.06149856  0.08524693  1
  Te  Te73  1  0.09202256  0.09737201  0.39835819  1
  Te  Te74  1  0.06715877  0.08948789  0.73537281  1
  Te  Te75  1  0.10498774  0.40161967  0.08931499  1
  Te  Te76  1  0.09076452  0.41373878  0.42134022  1
  Te  Te77  1  0.11159049  0.41257737  0.75214164  1
  Te  Te78  1  0.07949484  0.74162560  0.09324061  1
  Te  Te79  1  0.09607947  0.75829567  0.41215074  1
  Te  Te80  1  0.02685557  0.74588747  0.74939979  1
  Te  Te81  1  0.41452433  0.06791110  0.07639611  1
  Te  Te82  1  0.45303615  0.09972855  0.42683800  1
  Te  Te83  1  0.39911877  0.12829481  0.76880263  1
  Te  Te84  1  0.41740145  0.39509663  0.09502620  1
  Te  Te85  1  0.41182984  0.43300637  0.43397134  1
  Te  Te86  1  0.42665270  0.43608814  0.74890971  1
  Te  Te87  1  0.37852812  0.78413552  0.10806344  1
  Te  Te88  1  0.40478979  0.71897497  0.42333162  1
  Te  Te89  1  0.40528915  0.74982460  0.75032131  1
  Te  Te90  1  0.72901943  0.10638065  0.09941526  1
  Te  Te91  1  0.73159634  0.07232826  0.41954101  1
  Te  Te92  1  0.77046776  0.08070093  0.74484444  1
  Te  Te93  1  0.74623051  0.41611544  0.08515043  1
  Te  Te94  1  0.74975285  0.41365177  0.39915323  1
  Te  Te95  1  0.76454813  0.40674373  0.74383885  1
  Te  Te96  1  0.74900926  0.76425868  0.07603408  1
  Te  Te97  1  0.74167086  0.76106480  0.45672084  1
  Te  Te98  1  0.73930217  0.76534648  0.74012501  1
  Te  Te99  1  0.10070097  0.24701497  0.22603298  1
  Te  Te100  1  0.09281129  0.24254474  0.56435060  1
  Te  Te101  1  0.07346081  0.23077348  0.90900308  1
  Te  Te102  1  0.09792726  0.60038709  0.26049425  1
  Te  Te103  1  0.07591200  0.58941811  0.60341710  1
  Te  Te104  1  0.09274169  0.56691533  0.93102660  1
  Te  Te105  1  0.11182040  0.90257805  0.25174427  1
  Te  Te106  1  0.07596352  0.93262330  0.59810057  1
  Te  Te107  1  0.08129557  0.90122770  0.91105333  1
  Te  Te108  1  0.44121892  0.23166214  0.25480361  1
  Te  Te109  1  0.43145052  0.27009568  0.57108770  1
  Te  Te110  1  0.38903759  0.28562909  0.93919385  1
  Te  Te111  1  0.41319548  0.59547368  0.24601583  1
  Te  Te112  1  0.37069547  0.54533041  0.55527610  1
  Te  Te113  1  0.39219511  0.57344398  0.90767904  1
  Te  Te114  1  0.44231689  0.92632638  0.24683021  1
  Te  Te115  1  0.40953089  0.92184082  0.59509608  1
  Te  Te116  1  0.43399886  0.90171072  0.92611432  1
  Te  Te117  1  0.73417522  0.25160494  0.26317561  1
  Te  Te118  1  0.72388934  0.23221338  0.56136478  1
  Te  Te119  1  0.76172352  0.26465026  0.90337439  1
  Te  Te120  1  0.75169859  0.57265551  0.25922976  1
  Te  Te121  1  0.75560383  0.56865429  0.59861491  1
  Te  Te122  1  0.73607780  0.59484617  0.91701112  1
  Te  Te123  1  0.76958974  0.92670992  0.25285763  1
  Te  Te124  1  0.72797631  0.88261445  0.63634926  1
  Te  Te125  1  0.75620572  0.91655792  0.90030335  1
  Te  Te126  1  0.26178019  0.25967873  0.09062428  1
  Te  Te127  1  0.25949661  0.24077663  0.39945434  1
  Te  Te128  1  0.24307257  0.27199569  0.76389027  1
  Te  Te129  1  0.24801692  0.58215402  0.08132506  1
  Te  Te130  1  0.27479940  0.60691435  0.42416792  1
  Te  Te131  1  0.24337659  0.57950295  0.75296536  1
  Te  Te132  1  0.26476511  0.90512669  0.10550021  1
  Te  Te133  1  0.27039824  0.91447699  0.41742954  1
  Te  Te134  1  0.22948870  0.91245233  0.75196282  1
  Te  Te135  1  0.57471018  0.24273466  0.09115958  1
  Te  Te136  1  0.54626759  0.23382174  0.44185688  1
  Te  Te137  1  0.57894374  0.24451170  0.75175089  1
  Te  Te138  1  0.54637495  0.60082426  0.08971930  1
  Te  Te139  1  0.58551700  0.59504183  0.42451865  1
  Te  Te140  1  0.56597456  0.58568691  0.73333399  1
  Te  Te141  1  0.58351075  0.92830419  0.09099161  1
  Te  Te142  1  0.59209394  0.90710638  0.39984025  1
  Te  Te143  1  0.58420564  0.94769857  0.73713784  1
  Te  Te144  1  0.90892649  0.25123441  0.06873787  1
  Te  Te145  1  0.91502523  0.25244417  0.41208149  1
  Te  Te146  1  0.92428430  0.25040087  0.74806529  1
  Te  Te147  1  0.91483409  0.58835882  0.08710749  1
  Te  Te148  1  0.91447166  0.59452718  0.41000487  1
  Te  Te149  1  0.92394015  0.58780952  0.73036699  1
  Te  Te150  1  0.90526376  0.91616270  0.06735425  1
  Te  Te151  1  0.90938344  0.91887198  0.43203064  1
  Te  Te152  1  0.93976035  0.87425659  0.72486464  1
  Te  Te153  1  0.24590696  0.08340801  0.26105175  1
  Te  Te154  1  0.25321107  0.06984713  0.58165631  1
  Te  Te155  1  0.25824860  0.09111940  0.90572307  1
  Te  Te156  1  0.25014851  0.40731580  0.26069562  1
  Te  Te157  1  0.25405352  0.44409754  0.58919259  1
  Te  Te158  1  0.26779544  0.37534254  0.89702927  1
  Te  Te159  1  0.30339169  0.72749419  0.23109829  1
  Te  Te160  1  0.22843405  0.76044808  0.60764111  1
  Te  Te161  1  0.23696738  0.73595978  0.91468157  1
  Te  Te162  1  0.55658008  0.12708954  0.24512729  1
  Te  Te163  1  0.59724297  0.06035840  0.60941225  1
  Te  Te164  1  0.57761358  0.08314523  0.91640921  1
  Te  Te165  1  0.57729609  0.41723482  0.24576892  1
  Te  Te166  1  0.57313611  0.42283567  0.58511753  1
  Te  Te167  1  0.59118567  0.43556835  0.91374773  1
  Te  Te168  1  0.58086057  0.73965343  0.24876494  1
  Te  Te169  1  0.54951218  0.73478862  0.57063771  1
  Te  Te170  1  0.58292073  0.76786798  0.90382148  1
  Te  Te171  1  0.93837511  0.08423951  0.25029675  1
  Te  Te172  1  0.89441867  0.06190476  0.57625469  1
  Te  Te173  1  0.92266034  0.08150104  0.90044319  1
  Te  Te174  1  0.92669008  0.42770843  0.24482976  1
  Te  Te175  1  0.91890642  0.41711520  0.58309548  1
  Te  Te176  1  0.91381229  0.42113297  0.89810027  1
  Te  Te177  1  0.92508636  0.74877589  0.25776386  1
  Te  Te178  1  0.91260836  0.76153345  0.60860045  1
  Te  Te179  1  0.89762335  0.76091331  0.91771145  1
