# generated using pymatgen
data_In2Te3
_symmetry_space_group_name_H-M   'P 1'
_cell_length_a   19.00273108
_cell_length_b   19.00801021
_cell_length_c   18.99184233
_cell_angle_alpha   90.06996201
_cell_angle_beta   90.02730071
_cell_angle_gamma   89.86835146
_symmetry_Int_Tables_number   1
_chemical_formula_structural   In2Te3
_chemical_formula_sum   'In72 Te108'
_cell_volume   6859.90744526
_cell_formula_units_Z   36
loop_
 _symmetry_equiv_pos_site_id
 _symmetry_equiv_pos_as_xyz
  1  'x, y, z'
loop_
 _atom_site_type_symbol
 _atom_site_label
 _atom_site_symmetry_multiplicity
 _atom_site_fract_x
 _atom_site_fract_y
 _atom_site_fract_z
 _atom_site_occupancy
  In  In0  1  0.18381703  0.00598066  0.83121632  1
  In  In1  1  0.19350531  0.82798952  0.02371229  1
  In  In2  1  0.51684390  0.02452976  0.85210033  1
  In  In3  1  0.03813551  0.32511057  -0.01258070  1
  In  In4  1  0.50462694  0.67418067  0.48030186  1
  In  In5  1  0.64906160  0.33184290  0.64910551  1
  In  In6  1  0.34727708  0.14649414  0.15955718  1
  In  In7  1  0.18922473  0.67722002  0.19156089  1
  In  In8  1  0.02579213  0.13833646  0.51187270  1
  In  In9  1  0.34792591  0.50660838  0.18565794  1
  In  In10  1  0.19185414  0.51563792  0.33866270  1
  In  In11  1  0.15975085  0.14757288  0.68811378  1
  In  In12  1  0.16885673  0.31959331  0.85887775  1
  In  In13  1  0.81327018  0.14954131  0.02335092  1
  In  In14  1  0.66101259  0.16632989  0.50628409  1
  In  In15  1  0.17467802  -0.00526755  0.18151872  1
  In  In16  1  0.50273662  0.14690084  0.30637611  1
  In  In17  1  0.67470265  0.68191649  0.66476278  1
  In  In18  1  0.81990194  0.29956272  0.48358546  1
  In  In19  1  0.81912289  0.50657097  0.66110008  1
  In  In20  1  0.32227156  0.32503604  0.03762520  1
  In  In21  1  0.03294748  0.83992586  0.16566221  1
  In  In22  1  0.50153723  0.82817018  0.33725058  1
  In  In23  1  0.64730946  0.83214434  0.83062368  1
  In  In24  1  0.16153713  0.67578945  0.83452030  1
  In  In25  1  0.27497047  -0.04786118  0.60760461  1
  In  In26  1  0.62954133  0.30784838  0.01246869  1
  In  In27  1  0.83144279  0.84191055  0.33911384  1
  In  In28  1  0.18964962  0.32966654  0.49451651  1
  In  In29  1  0.67406594  0.00534712  0.67230957  1
  In  In30  1  -0.01860244  0.32129285  0.67586883  1
  In  In31  1  0.51277889  0.48603297  0.33650608  1
  In  In32  1  0.50228634  0.34024082  0.81627826  1
  In  In33  1  0.82457484  0.32361049  0.82737124  1
  In  In34  1  0.83780434  0.68436204  0.50688486  1
  In  In35  1  0.37192271  0.50877878  0.49481136  1
  In  In36  1  0.84107808  0.32861903  0.15772705  1
  In  In37  1  0.34703611  0.33615765  0.66984093  1
  In  In38  1  0.16835199  0.16614458  0.33498497  1
  In  In39  1  0.66812836  0.30819957  0.31052737  1
  In  In40  1  0.81036526  0.49582704  0.00410403  1
  In  In41  1  0.00135747  0.84421763  0.81453616  1
  In  In42  1  -0.02110510  0.48813601  0.16558203  1
  In  In43  1  -0.02040398  0.49546080  0.81931604  1
  In  In44  1  0.00129884  0.66806434  0.35219903  1
  In  In45  1  0.81659952  0.00176862  0.16689964  1
  In  In46  1  0.85014528  0.15763244  0.35328302  1
  In  In47  1  0.00110091  -0.01057782  0.00543318  1
  In  In48  1  0.83695164  0.00741907  0.50440772  1
  In  In49  1  0.03406201  0.82327004  0.50800733  1
  In  In50  1  0.34988529  0.15622259  0.86395933  1
  In  In51  1  0.16879091  0.50520373  0.00925639  1
  In  In52  1  0.16261476  0.52422857  0.67468954  1
  In  In53  1  0.02367923  0.49446696  0.51723998  1
  In  In54  1  0.49762727  0.68154692  0.80328764  1
  In  In55  1  0.35202095  0.84491451  0.83028495  1
  In  In56  1  0.81476047  -0.02027252  0.83251739  1
  In  In57  1  0.80604356  0.49012578  0.33961393  1
  In  In58  1  0.48691797  0.16918467  0.67401495  1
  In  In59  1  0.66157420  0.66343165  -0.01539643  1
  In  In60  1  0.81578665  0.83465351  -0.02593132  1
  In  In61  1  0.84914763  0.67576239  0.82917017  1
  In  In62  1  0.48885497  0.66220610  0.15685798  1
  In  In63  1  0.67240969  0.82727883  0.48037045  1
  In  In64  1  0.31901867  0.70336904  0.36319885  1
  In  In65  1  0.32306361  0.51765593  0.80329984  1
  In  In66  1  0.82909037  0.65324865  0.17298531  1
  In  In67  1  0.48636750  0.49561193  -0.01687771  1
  In  In68  1  -0.00632070  0.16185842  0.19624981  1
  In  In69  1  0.60631600  0.87588311  0.15862496  1
  In  In70  1  0.37071102  0.14930119  0.48636252  1
  In  In71  1  0.38260739  0.86040797  0.15591681  1
  Te  Te72  1  0.07740807  0.07835605  0.09969304  1
  Te  Te73  1  0.08554575  0.06396315  0.40237130  1
  Te  Te74  1  0.06926959  0.05605044  0.75407395  1
  Te  Te75  1  0.09340894  0.41067878  0.09997844  1
  Te  Te76  1  0.09690704  0.41683903  0.41218582  1
  Te  Te77  1  0.09022873  0.41098666  0.75520949  1
  Te  Te78  1  0.09347589  0.72976950  0.08330546  1
  Te  Te79  1  0.11236233  0.75251816  0.39861803  1
  Te  Te80  1  0.07494318  0.74326562  0.73781928  1
  Te  Te81  1  0.45093350  0.09424205  0.06122819  1
  Te  Te82  1  0.44062658  0.04851352  0.40314378  1
  Te  Te83  1  0.40527632  0.07050671  0.75333145  1
  Te  Te84  1  0.42950008  0.41320087  0.09730067  1
  Te  Te85  1  0.39867554  0.41162084  0.39054489  1
  Te  Te86  1  0.43475920  0.44522733  0.72904576  1
  Te  Te87  1  0.40179740  0.74192807  0.07229994  1
  Te  Te88  1  0.39880257  0.79734014  0.45567050  1
  Te  Te89  1  0.42312605  0.77704274  0.72161835  1
  Te  Te90  1  0.70810005  0.06453401  0.08610335  1
  Te  Te91  1  0.73775725  0.07542447  0.41127776  1
  Te  Te92  1  0.73826882  0.08874394  0.77244601  1
  Te  Te93  1  0.72938986  0.40148734  0.08772439  1
  Te  Te94  1  0.72346524  0.39817176  0.42717440  1
  Te  Te95  1  0.73582484  0.41494944  0.74585195  1
  Te  Te96  1  0.74916461  0.74502884  0.07672285  1
  Te  Te97  1  0.74888643  0.72817759  0.39264171  1
  Te  Te98  1  0.76166557  0.77142944  0.75151392  1
  Te  Te99  1  0.08256726  0.25777983  0.25776808  1
  Te  Te100  1  0.09846255  0.26113637  0.59672312  1
  Te  Te101  1  0.08251344  0.21127499  0.90627033  1
  Te  Te102  1  0.07630544  0.58094696  0.24641921  1
  Te  Te103  1  0.08409523  0.60775593  0.58359859  1
  Te  Te104  1  0.07743871  0.57237457  0.90903150  1
  Te  Te105  1  0.09500340  0.91252185  0.27414859  1
  Te  Te106  1  0.11651447  0.93987848  0.56914704  1
  Te  Te107  1  0.09884035  0.90281792  0.92905717  1
  Te  Te108  1  0.41403980  0.24543967  0.24458003  1
  Te  Te109  1  0.43995128  0.27362135  0.56626614  1
  Te  Te110  1  0.41399927  0.27833171  0.92365173  1
  Te  Te111  1  0.40930168  0.61183643  0.27942534  1
  Te  Te112  1  0.42625053  0.60829536  0.58492095  1
  Te  Te113  1  0.41034044  0.59386481  0.89987832  1
  Te  Te114  1  0.42666494  0.94056654  0.27302834  1
  Te  Te115  1  0.40496997  0.92350582  0.54006500  1
  Te  Te116  1  0.42700018  0.93017283  0.92598259  1
  Te  Te117  1  0.77076426  0.22289362  0.23918427  1
  Te  Te118  1  0.75782429  0.23365380  0.60276743  1
  Te  Te119  1  0.74241969  0.24611743  0.93079088  1
  Te  Te120  1  0.73552896  0.56018323  0.23322371  1
  Te  Te121  1  0.73642974  0.58491569  0.56375605  1
  Te  Te122  1  0.75058732  0.58072589  0.89346104  1
  Te  Te123  1  0.73017027  0.90578064  0.24615385  1
  Te  Te124  1  0.75048584  0.91098389  0.58166833  1
  Te  Te125  1  0.70591634  0.92725743  0.93300291  1
  Te  Te126  1  0.23898587  0.21689230  0.08403903  1
  Te  Te127  1  0.27831758  0.24486299  0.40916009  1
  Te  Te128  1  0.26198936  0.24715860  0.75587958  1
  Te  Te129  1  0.26372224  0.59047800  0.08974882  1
  Te  Te130  1  0.25131610  0.59778107  0.44851360  1
  Te  Te131  1  0.26048422  0.62897096  0.72283924  1
  Te  Te132  1  0.27257002  0.94115765  0.07998688  1
  Te  Te133  1  0.22739335  0.93300045  0.46199701  1
  Te  Te134  1  0.23611086  0.89482373  0.74446243  1
  Te  Te135  1  0.56108703  0.21343275  0.10761517  1
  Te  Te136  1  0.57552675  0.24121050  0.40869772  1
  Te  Te137  1  0.59328910  0.23642058  0.75645955  1
  Te  Te138  1  0.58051586  0.57301557  0.07455691  1
  Te  Te139  1  0.59345091  0.57901800  0.41515188  1
  Te  Te140  1  0.59734114  0.59045938  0.74747666  1
  Te  Te141  1  0.51153485  0.94315863  0.06890358  1
  Te  Te142  1  0.59256649  0.92239434  0.40412868  1
  Te  Te143  1  0.56688133  0.92600867  0.74523588  1
  Te  Te144  1  0.93005439  0.24173667  0.07053960  1
  Te  Te145  1  0.94717888  0.24562661  0.42732149  1
  Te  Te146  1  0.93054588  0.23470850  0.78068324  1
  Te  Te147  1  0.91550787  0.58457045  0.06757717  1
  Te  Te148  1  0.91417374  0.56917451  0.42437893  1
  Te  Te149  1  0.92347781  0.59648188  0.72216921  1
  Te  Te150  1  0.90676937  0.90210739  0.08881845  1
  Te  Te151  1  0.92631200  0.90936437  0.43044697  1
  Te  Te152  1  0.91315427  0.92900639  0.73614239  1
  Te  Te153  1  0.26862195  0.07248845  0.26901103  1
  Te  Te154  1  0.26826253  0.10933867  0.58487096  1
  Te  Te155  1  0.24114947  0.09162133  0.93649131  1
  Te  Te156  1  0.25001392  0.41794865  0.24708069  1
  Te  Te157  1  0.25518007  0.42814170  0.59110919  1
  Te  Te158  1  0.26301444  0.42822809  0.91474108  1
  Te  Te159  1  0.27243535  0.78768240  0.24696874  1
  Te  Te160  1  0.19273300  0.80378488  0.53427656  1
  Te  Te161  1  0.26476234  0.74907703  0.91675350  1
  Te  Te162  1  0.60118914  0.10003361  0.20483723  1
  Te  Te163  1  0.56936322  0.07722956  0.58569230  1
  Te  Te164  1  0.55086720  0.13137495  0.95046146  1
  Te  Te165  1  0.58920040  0.40814423  0.23844418  1
  Te  Te166  1  0.53605023  0.39298913  0.58211229  1
  Te  Te167  1  0.59354345  0.41692145  0.91094361  1
  Te  Te168  1  0.58511267  0.74774097  0.23651998  1
  Te  Te169  1  0.58041453  0.76386164  0.58107112  1
  Te  Te170  1  0.55965899  0.75628505  0.92633937  1
  Te  Te171  1  0.91850041  0.05194841  0.26642066  1
  Te  Te172  1  0.91110741  0.09877381  0.59136762  1
  Te  Te173  1  0.89921349  0.06781707  0.92877425  1
  Te  Te174  1  0.91041463  0.40275383  0.26994874  1
  Te  Te175  1  0.90408323  0.40918583  0.57894702  1
  Te  Te176  1  0.91588259  0.41014157  0.92884675  1
  Te  Te177  1  0.92555837  0.75115243  0.24888245  1
  Te  Te178  1  0.92149984  0.76983476  0.58841912  1
  Te  Te179  1  0.93388651  0.75560735  0.92377705  1
