# generated using pymatgen
data_In2Te3
_symmetry_space_group_name_H-M   'P 1'
_cell_length_a   18.85248683
_cell_length_b   18.85561345
_cell_length_c   18.84430747
_cell_angle_alpha   89.89278111
_cell_angle_beta   90.07826508
_cell_angle_gamma   89.95033379
_symmetry_Int_Tables_number   1
_chemical_formula_structural   In2Te3
_chemical_formula_sum   'In72 Te108'
_cell_volume   6698.66353568
_cell_formula_units_Z   36
loop_
 _symmetry_equiv_pos_site_id
 _symmetry_equiv_pos_as_xyz
  1  'x, y, z'
loop_
 _atom_site_type_symbol
 _atom_site_label
 _atom_site_symmetry_multiplicity
 _atom_site_fract_x
 _atom_site_fract_y
 _atom_site_fract_z
 _atom_site_occupancy
  In  In0  1  0.84171326  0.49347971  0.67892881  1
  In  In1  1  0.17222898  0.34569402  0.49412729  1
  In  In2  1  0.79908318  0.80823653  0.64494498  1
  In  In3  1  0.35801064  -0.01315241  0.65888484  1
  In  In4  1  0.49102829  0.17900743  0.01111300  1
  In  In5  1  0.67054835  0.01194106  0.64776913  1
  In  In6  1  0.52531909  0.70142702  0.19434656  1
  In  In7  1  0.19369088  0.84590641  0.01085964  1
  In  In8  1  0.14564213  0.68818188  0.83151891  1
  In  In9  1  0.66873021  0.64861506  0.00647198  1
  In  In10  1  0.17129588  0.48660613  0.66763568  1
  In  In11  1  -0.02282249  0.84416124  0.17758107  1
  In  In12  1  0.63849113  0.15503497  0.20270444  1
  In  In13  1  0.48744985  0.33101168  0.17176753  1
  In  In14  1  0.14284149  0.68525944  0.19244190  1
  In  In15  1  0.82304910  0.49600458  0.33185874  1
  In  In16  1  0.34011997  0.50144850  0.17573223  1
  In  In17  1  0.50884570  0.49175534  -0.01639903  1
  In  In18  1  0.49991046  0.67066319  0.49497313  1
  In  In19  1  0.64330968  0.67347044  0.65584407  1
  In  In20  1  0.15999489  0.12170584  0.67651257  1
  In  In21  1  0.67139375  0.50665066  0.82187479  1
  In  In22  1  0.51982626  0.84480742  -0.00813298  1
  In  In23  1  0.51331654  0.32274354  0.81499817  1
  In  In24  1  0.83548239  0.00758078  0.17208610  1
  In  In25  1  0.65115625  0.01737781  0.00404731  1
  In  In26  1  -0.01349599  0.64997118  0.01904313  1
  In  In27  1  -0.00063792  -0.00016268  0.32670849  1
  In  In28  1  0.17932981  0.66907173  0.48843309  1
  In  In29  1  -0.00966197  0.16354651  0.49515702  1
  In  In30  1  0.18606237  0.01202568  0.82974386  1
  In  In31  1  0.34945987  0.64245941  0.00648132  1
  In  In32  1  0.15979800  0.17020206  0.33139063  1
  In  In33  1  0.83044614  0.66387999  0.48461130  1
  In  In34  1  0.81798406  0.83183707  0.33274758  1
  In  In35  1  0.35325090  0.83409140  0.81558591  1
  In  In36  1  0.35194405  0.31755238  0.65884642  1
  In  In37  1  0.83150826  0.17621304  0.34005246  1
  In  In38  1  0.13293154  0.31424107  0.84680409  1
  In  In39  1  0.64302167  0.17157107  0.45647767  1
  In  In40  1  0.83397148  -0.01344639  0.48747891  1
  In  In41  1  0.15934350  0.17612470  -0.01108225  1
  In  In42  1  0.82522631  0.15092431  0.66390901  1
  In  In43  1  0.01791932  0.03961345  -0.01986123  1
  In  In44  1  0.14665352  0.32377618  0.15586555  1
  In  In45  1  0.83468251  0.31984064  0.14385892  1
  In  In46  1  0.35619965  -0.00395700  0.34532698  1
  In  In47  1  0.82758738  0.34056557  0.86364593  1
  In  In48  1  0.14831577  0.48740921  0.01823751  1
  In  In49  1  -0.01043515  0.83517848  0.82246354  1
  In  In50  1  -0.00622373  0.33633725  0.65283249  1
  In  In51  1  0.35942934  0.67384945  0.64967043  1
  In  In52  1  0.35145230  0.16944115  0.17500565  1
  In  In53  1  0.00788821  0.18837661  0.85866383  1
  In  In54  1  0.68012433  0.82738930  0.82737668  1
  In  In55  1  0.83164255  0.33535028  0.51200469  1
  In  In56  1  0.31565459  0.49645926  0.84091037  1
  In  In57  1  0.32466335  0.83948522  0.17785651  1
  In  In58  1  0.82719766  0.81914089  0.01460430  1
  In  In59  1  0.82176976  0.66423377  0.16219220  1
  In  In60  1  0.35605244  0.83544133  0.48939375  1
  In  In61  1  -0.01078285  0.65300501  0.65805895  1
  In  In62  1  0.49468209  0.00759734  0.82637717  1
  In  In63  1  0.64555105  0.47070550  0.52546697  1
  In  In64  1  0.68493569  0.48790795  0.15955424  1
  In  In65  1  0.36108473  0.34335839  0.32979869  1
  In  In66  1  0.15512325  0.51812140  0.33672783  1
  In  In67  1  0.85206537  0.01390041  0.83230092  1
  In  In68  1  0.50422466  0.50990059  0.33615478  1
  In  In69  1  0.33925071  0.16565677  0.82598450  1
  In  In70  1  0.36068772  0.16557587  0.51214073  1
  In  In71  1  0.15810132  0.83751145  0.33953176  1
  Te  Te72  1  0.09153872  0.09692602  0.09239903  1
  Te  Te73  1  0.08999865  0.07153299  0.42587332  1
  Te  Te74  1  0.04589169  0.06544536  0.76856834  1
  Te  Te75  1  0.05871613  0.44391080  0.12893839  1
  Te  Te76  1  0.07657106  0.41590701  0.40944487  1
  Te  Te77  1  0.06657197  0.42177336  0.75752321  1
  Te  Te78  1  0.07756447  0.76416228  0.07324278  1
  Te  Te79  1  0.07503209  0.74148010  0.41211344  1
  Te  Te80  1  0.08011885  0.76710243  0.72079031  1
  Te  Te81  1  0.43777325  0.07625159  0.10116653  1
  Te  Te82  1  0.44732810  0.06380440  0.44420101  1
  Te  Te83  1  0.43275602  0.10406698  0.72435440  1
  Te  Te84  1  0.40747830  0.41542134  0.07074862  1
  Te  Te85  1  0.42710220  0.42608103  0.43126050  1
  Te  Te86  1  0.41374092  0.42276523  0.75050925  1
  Te  Te87  1  0.42236407  0.75264006  0.08182127  1
  Te  Te88  1  0.43202533  0.75454274  0.39006999  1
  Te  Te89  1  0.44575523  0.74695959  0.74473023  1
  Te  Te90  1  0.73762839  0.09905446  0.09920208  1
  Te  Te91  1  0.74356943  0.06609063  0.39639440  1
  Te  Te92  1  0.73359101  0.08677047  0.76667995  1
  Te  Te93  1  0.75600874  0.41231368  0.05531342  1
  Te  Te94  1  0.73358004  0.40454615  0.41965548  1
  Te  Te95  1  0.74843168  0.39461567  0.74447833  1
  Te  Te96  1  0.71798886  0.75973774  0.10013479  1
  Te  Te97  1  0.72767739  0.75125736  0.41998426  1
  Te  Te98  1  0.75559550  0.71672962  0.75744049  1
  Te  Te99  1  0.06654365  0.25684595  0.25922106  1
  Te  Te100  1  0.09431097  0.24035578  0.58819776  1
  Te  Te101  1  0.03095010  0.29496744  0.97558972  1
  Te  Te102  1  0.05665991  0.57479037  0.23743981  1
  Te  Te103  1  0.09068464  0.57532087  0.57472781  1
  Te  Te104  1  0.07955193  0.58163074  0.91742545  1
  Te  Te105  1  0.09298522  0.92558793  0.23159493  1
  Te  Te106  1  0.08398936  0.99999993  0.63393699  1
  Te  Te107  1  0.09037979  0.91302897  0.91083494  1
  Te  Te108  1  0.45111988  0.22502837  0.28890636  1
  Te  Te109  1  0.45586663  0.27266048  0.55981381  1
  Te  Te110  1  0.41028875  0.26573911  0.91418831  1
  Te  Te111  1  0.41839893  0.60495926  0.25192309  1
  Te  Te112  1  0.43225683  0.56820647  0.57882946  1
  Te  Te113  1  0.43069577  0.58644423  0.89222080  1
  Te  Te114  1  0.43573807  0.91392275  0.24732740  1
  Te  Te115  1  0.45268553  0.89779947  0.58618791  1
  Te  Te116  1  0.40966628  0.92597743  0.92312946  1
  Te  Te117  1  0.73998338  0.25778772  0.25257385  1
  Te  Te118  1  0.73902033  0.22926485  0.56735671  1
  Te  Te119  1  0.76529777  0.21628520  0.90627132  1
  Te  Te120  1  0.72818702  0.59425893  0.25886485  1
  Te  Te121  1  0.74775380  0.57509692  0.58649987  1
  Te  Te122  1  0.76058974  0.56617928  0.92630178  1
  Te  Te123  1  0.74282880  0.91343132  0.23531541  1
  Te  Te124  1  0.72426394  0.90445977  0.55267339  1
  Te  Te125  1  0.75375729  0.92489631  0.92205974  1
  Te  Te126  1  0.25857060  0.24979683  0.08347181  1
  Te  Te127  1  0.26616664  0.24670586  0.41911474  1
  Te  Te128  1  0.23828572  0.25516285  0.75020740  1
  Te  Te129  1  0.23574690  0.59454045  0.09605885  1
  Te  Te130  1  0.26592331  0.57982688  0.40922750  1
  Te  Te131  1  0.24382167  0.59723821  0.74783245  1
  Te  Te132  1  0.26017274  0.94410311  0.09531992  1
  Te  Te133  1  0.24724696  0.92361303  0.42671545  1
  Te  Te134  1  0.24855359  0.91005112  0.73616654  1
  Te  Te135  1  0.59231922  0.25853054  0.09085887  1
  Te  Te136  1  0.56500747  0.27245505  0.38268585  1
  Te  Te137  1  0.58768298  0.25098120  0.71170527  1
  Te  Te138  1  0.56317049  0.57764279  0.09886727  1
  Te  Te139  1  0.60394806  0.57995653  0.42677307  1
  Te  Te140  1  0.57300712  0.56762337  0.73034342  1
  Te  Te141  1  0.58601408  0.92280958  0.09686588  1
  Te  Te142  1  0.55473126  0.91469386  0.36317523  1
  Te  Te143  1  0.59194330  0.92150255  0.74710586  1
  Te  Te144  1  0.93126519  0.22963139  0.07619349  1
  Te  Te145  1  0.92738203  0.27210428  0.41039790  1
  Te  Te146  1  0.91445454  0.24463550  0.74454497  1
  Te  Te147  1  0.87947051  0.56266845  0.07054901  1
  Te  Te148  1  0.92022250  0.57554814  0.41009453  1
  Te  Te149  1  0.92215812  0.58017686  0.76588147  1
  Te  Te150  1  0.92323110  0.93065301  0.06201838  1
  Te  Te151  1  0.93260849  0.89700211  0.41518131  1
  Te  Te152  1  0.88521171  0.90355910  0.73459827  1
  Te  Te153  1  0.25979445  0.08148553  0.25919776  1
  Te  Te154  1  0.26135377  0.06807906  0.57320988  1
  Te  Te155  1  0.26921589  0.08416127  0.93383509  1
  Te  Te156  1  0.24715429  0.40592279  0.24941937  1
  Te  Te157  1  0.27386367  0.42294720  0.57595923  1
  Te  Te158  1  0.23416526  0.40100458  0.92700943  1
  Te  Te159  1  0.25730474  0.74144218  0.27270711  1
  Te  Te160  1  0.25661609  0.76236841  0.58133619  1
  Te  Te161  1  0.26217432  0.74318445  0.91764722  1
  Te  Te162  1  0.58252024  0.04969098  0.29048205  1
  Te  Te163  1  0.57460512  0.07811693  0.55369473  1
  Te  Te164  1  0.57702681  0.10764612  0.90580592  1
  Te  Te165  1  0.58755013  0.41372784  0.25172991  1
  Te  Te166  1  0.57806852  0.36756002  0.61135961  1
  Te  Te167  1  0.60259370  0.39830824  0.91339123  1
  Te  Te168  1  0.58782378  0.77224100  0.31140305  1
  Te  Te169  1  0.56729139  0.77641311  0.57855487  1
  Te  Te170  1  0.58815304  0.73701391  0.90953100  1
  Te  Te171  1  0.92740385  0.10477234  0.24442899  1
  Te  Te172  1  0.92188164  0.06030509  0.58741267  1
  Te  Te173  1  0.88469809  0.12329527  0.94252207  1
  Te  Te174  1  0.90206166  0.41269804  0.23826361  1
  Te  Te175  1  0.92852954  0.44024271  0.56389856  1
  Te  Te176  1  0.95186977  0.40732728  0.90215535  1
  Te  Te177  1  0.91631809  0.73470834  0.25883405  1
  Te  Te178  1  0.91980478  0.75640435  0.56942988  1
  Te  Te179  1  0.91268647  0.74201283  0.91601833  1
