# generated using pymatgen
data_In2Te3
_symmetry_space_group_name_H-M   'P 1'
_cell_length_a   18.84016694
_cell_length_b   18.84022099
_cell_length_c   18.85160848
_cell_angle_alpha   90.00427430
_cell_angle_beta   89.98098970
_cell_angle_gamma   90.01721520
_symmetry_Int_Tables_number   1
_chemical_formula_structural   In2Te3
_chemical_formula_sum   'In72 Te108'
_cell_volume   6691.43257317
_cell_formula_units_Z   36
loop_
 _symmetry_equiv_pos_site_id
 _symmetry_equiv_pos_as_xyz
  1  'x, y, z'
loop_
 _atom_site_type_symbol
 _atom_site_label
 _atom_site_symmetry_multiplicity
 _atom_site_fract_x
 _atom_site_fract_y
 _atom_site_fract_z
 _atom_site_occupancy
  In  In0  1  0.83421502  0.30726754  0.17318865  1
  In  In1  1  0.82243294  0.16576344  0.67068473  1
  In  In2  1  0.16883678  0.64263639  0.18858485  1
  In  In3  1  0.33732006  -0.01507011  0.66070905  1
  In  In4  1  0.65986397  -0.01370887  0.67919881  1
  In  In5  1  0.01191971  0.51148438  0.19409984  1
  In  In6  1  0.84619710  0.84506770  0.67951058  1
  In  In7  1  0.17533787  0.51910372  -0.00935148  1
  In  In8  1  0.16812846  -0.00743699  0.81798969  1
  In  In9  1  0.37554961  0.80585515  0.16956044  1
  In  In10  1  0.81805438  0.51488718  0.00797139  1
  In  In11  1  0.51349803  0.52192469  0.66062191  1
  In  In12  1  0.83341956  0.66560054  0.49818529  1
  In  In13  1  0.80760813  0.32301281  0.80283644  1
  In  In14  1  0.18853192  0.65924401  0.50845374  1
  In  In15  1  0.17932502  -0.00929854  0.49955061  1
  In  In16  1  0.17668453  0.15940707  0.01691074  1
  In  In17  1  0.34799541  -0.01681659  -0.00996749  1
  In  In18  1  0.66890166  0.34984960  0.63807459  1
  In  In19  1  0.34468759  0.49531798  0.48759776  1
  In  In20  1  0.83350709  0.66839867  0.17018180  1
  In  In21  1  0.04653033  0.35377060  0.36455961  1
  In  In22  1  0.18994844  0.35325111  0.80247598  1
  In  In23  1  0.64638759  0.34902494  -0.01840542  1
  In  In24  1  0.49384007  0.35499996  0.18005863  1
  In  In25  1  0.82624619  0.02447612  0.50012790  1
  In  In26  1  0.34480729  0.53364401  0.82789331  1
  In  In27  1  0.48438951  0.67545919  0.48554480  1
  In  In28  1  0.18168696  0.82624016  0.65733283  1
  In  In29  1  0.81744455  0.13582445  0.00722454  1
  In  In30  1  0.01709338  0.82239828  0.81987392  1
  In  In31  1  0.06499693  0.68420955  -0.01879732  1
  In  In32  1  0.81352364  0.81755293  0.32354875  1
  In  In33  1  0.31537045  0.16015905  0.17647816  1
  In  In34  1  0.48399157  0.69156808  0.82410487  1
  In  In35  1  0.01244906  0.34581771  0.62982612  1
  In  In36  1  0.21188593  0.35629871  0.18050058  1
  In  In37  1  0.63620561  0.82230977  0.49092119  1
  In  In38  1  0.47298948  0.17816102  0.65395017  1
  In  In39  1  -0.00419573  -0.02961730  -0.01138376  1
  In  In40  1  0.33253229  0.33819264  0.65143086  1
  In  In41  1  0.18926570  -0.00616674  0.16372391  1
  In  In42  1  0.01637265  0.83463606  0.51173845  1
  In  In43  1  0.50372199  -0.02174475  0.16819255  1
  In  In44  1  0.19216486  0.19075266  0.36428901  1
  In  In45  1  0.00210497  0.34486522  -0.00349312  1
  In  In46  1  -0.00119105  0.51571310  0.86499066  1
  In  In47  1  0.82420348  0.50044425  0.33536811  1
  In  In48  1  0.48395583  0.16145891  0.35731912  1
  In  In49  1  0.81190045  0.85002907  -0.03492400  1
  In  In50  1  0.50375150  0.15406215  -0.03159569  1
  In  In51  1  0.83289557  0.49047499  0.67051226  1
  In  In52  1  0.63557542  0.14398510  0.83514484  1
  In  In53  1  0.48894575  -0.01740098  0.50278049  1
  In  In54  1  0.66265703  0.51831505  0.49451202  1
  In  In55  1  0.66796905  0.16481269  0.16280716  1
  In  In56  1  0.18142389  0.52268790  0.67484338  1
  In  In57  1  0.00029836  0.17167104  0.50970365  1
  In  In58  1  0.63559809  0.80718055  0.18138920  1
  In  In59  1  0.82788627  0.67859350  0.83234626  1
  In  In60  1  0.17959423  0.84039289  0.33423057  1
  In  In61  1  0.63701262  0.51084612  0.16181504  1
  In  In62  1  0.82182849  0.16993391  0.34160835  1
  In  In63  1  0.51073451  0.33835467  0.84796289  1
  In  In64  1  0.36879443  0.52021231  0.19131222  1
  In  In65  1  -0.03377408  0.81609180  0.16455507  1
  In  In66  1  -0.02288899  0.00351888  0.32458296  1
  In  In67  1  0.02571404  0.15399825  0.83620602  1
  In  In68  1  0.66456186  0.17914935  0.49583757  1
  In  In69  1  0.48952142  -0.04067874  0.82082874  1
  In  In70  1  0.00021689  0.15543424  0.20687842  1
  In  In71  1  0.63755800  0.67509954  -0.00760939  1
  Te  Te72  1  0.07302024  0.07126546  0.08650189  1
  Te  Te73  1  0.07757818  0.07760990  0.41151065  1
  Te  Te74  1  0.10870719  0.09520737  0.73095559  1
  Te  Te75  1  0.09654257  0.42172914  0.08992155  1
  Te  Te76  1  0.10721032  0.43973254  0.46686414  1
  Te  Te77  1  0.06590465  0.42745058  0.75507929  1
  Te  Te78  1  0.09481788  0.75520156  0.11327802  1
  Te  Te79  1  0.09147224  0.74689934  0.41627974  1
  Te  Te80  1  0.08489564  0.73529116  0.72291945  1
  Te  Te81  1  0.41580656  0.08707913  0.08639573  1
  Te  Te82  1  0.39172439  0.07858830  0.44149808  1
  Te  Te83  1  0.41851527  0.07722789  0.75624669  1
  Te  Te84  1  0.41625668  0.43137051  0.08150009  1
  Te  Te85  1  0.38370245  0.39817877  0.37918874  1
  Te  Te86  1  0.42084909  0.42294179  0.74440286  1
  Te  Te87  1  0.43303792  0.71526636  0.06651662  1
  Te  Te88  1  0.44777177  0.77648280  0.37827483  1
  Te  Te89  1  0.37659603  0.75081321  0.73782045  1
  Te  Te90  1  0.72155507  0.05329779  0.08140613  1
  Te  Te91  1  0.72205835  0.07114570  0.40174908  1
  Te  Te92  1  0.75438395  0.06913240  0.76597528  1
  Te  Te93  1  0.74821459  0.40740523  0.09266314  1
  Te  Te94  1  0.74476738  0.41667843  0.42627207  1
  Te  Te95  1  0.71565651  0.43350212  0.75682643  1
  Te  Te96  1  0.75108665  0.74776695  0.07113615  1
  Te  Te97  1  0.72583292  0.72783835  0.40888619  1
  Te  Te98  1  0.74402820  0.77291265  0.75793160  1
  Te  Te99  1  0.10797874  0.25643078  0.24542429  1
  Te  Te100  1  0.10690162  0.24712512  0.57768988  1
  Te  Te101  1  0.10352246  0.26084062  0.91919229  1
  Te  Te102  1  0.09724185  0.57115727  0.29643091  1
  Te  Te103  1  0.08312210  0.57362310  0.57337695  1
  Te  Te104  1  0.13109524  0.60162802  0.86364691  1
  Te  Te105  1  0.07267230  0.91672825  0.24344537  1
  Te  Te106  1  0.08428290  0.93347692  0.60397188  1
  Te  Te107  1  0.11002425  0.89871843  0.92416572  1
  Te  Te108  1  0.40872748  0.24998298  0.25404659  1
  Te  Te109  1  0.40778656  0.26020361  0.54765721  1
  Te  Te110  1  0.41045746  0.24724290  0.90448591  1
  Te  Te111  1  0.44512979  0.60938611  0.28654888  1
  Te  Te112  1  0.40023831  0.59436599  0.59027531  1
  Te  Te113  1  0.39811019  0.62683087  0.93319783  1
  Te  Te114  1  0.41725446  0.90986033  0.26920028  1
  Te  Te115  1  0.43486148  0.88792208  0.60315276  1
  Te  Te116  1  0.41650993  0.87307892  0.91819852  1
  Te  Te117  1  0.72515045  0.26244480  0.26790224  1
  Te  Te118  1  0.77242204  0.26281316  0.56599829  1
  Te  Te119  1  0.73991660  0.23852014  0.91529433  1
  Te  Te120  1  0.73242295  0.59142742  0.25187216  1
  Te  Te121  1  0.74474804  0.59334878  0.59976392  1
  Te  Te122  1  0.73118596  0.58540988  0.90825167  1
  Te  Te123  1  0.72758727  0.90474208  0.24364954  1
  Te  Te124  1  0.74709634  0.91384114  0.56995200  1
  Te  Te125  1  0.72484956  0.95162245  0.90730493  1
  Te  Te126  1  0.27125593  0.26546649  0.07261707  1
  Te  Te127  1  0.28992577  0.28116450  0.42490024  1
  Te  Te128  1  0.25945911  0.24204128  0.73821860  1
  Te  Te129  1  0.26779111  0.58500603  0.08905874  1
  Te  Te130  1  0.27508253  0.59756399  0.40450074  1
  Te  Te131  1  0.28483071  0.63014788  0.72441968  1
  Te  Te132  1  0.27046895  0.89410570  0.08785399  1
  Te  Te133  1  0.27638662  0.89623438  0.43441483  1
  Te  Te134  1  0.26919128  0.88840693  0.76732001  1
  Te  Te135  1  0.57397659  0.24988375  0.07392842  1
  Te  Te136  1  0.57086981  0.26317906  0.42107076  1
  Te  Te137  1  0.58888317  0.25235921  0.73449521  1
  Te  Te138  1  0.54516329  0.60816538  0.09246202  1
  Te  Te139  1  0.55013906  0.56541469  0.40400490  1
  Te  Te140  1  0.58646630  0.61513836  0.74692974  1
  Te  Te141  1  0.56050108  0.87816255  0.07512384  1
  Te  Te142  1  0.57357534  0.91914965  0.39870493  1
  Te  Te143  1  0.57411483  0.87784338  0.72992249  1
  Te  Te144  1  0.92554911  0.23472513  0.07400277  1
  Te  Te145  1  0.93086426  0.25567572  0.40385177  1
  Te  Te146  1  0.92913092  0.24878975  0.74909381  1
  Te  Te147  1  0.93050787  0.58294148  0.08465578  1
  Te  Te148  1  0.91898753  0.57309158  0.42145181  1
  Te  Te149  1  0.92060636  0.58658805  0.75383688  1
  Te  Te150  1  0.88962315  0.91812186  0.08476331  1
  Te  Te151  1  0.90741872  0.90854123  0.42162928  1
  Te  Te152  1  0.93028015  0.92860446  0.76675404  1
  Te  Te153  1  0.24937021  0.07017164  0.27935297  1
  Te  Te154  1  0.27521917  0.08388561  0.56636558  1
  Te  Te155  1  0.25484686  0.07844822  0.91552857  1
  Te  Te156  1  0.26458035  0.45148639  0.28147280  1
  Te  Te157  1  0.22855542  0.42000688  0.56953169  1
  Te  Te158  1  0.26775841  0.42757884  0.90991669  1
  Te  Te159  1  0.26407891  0.74161537  0.25585292  1
  Te  Te160  1  0.27104617  0.78038151  0.54556931  1
  Te  Te161  1  0.19815708  0.72221738  0.93173959  1
  Te  Te162  1  0.57026437  0.08790085  0.25127577  1
  Te  Te163  1  0.58369774  0.08715344  0.59112914  1
  Te  Te164  1  0.58878516  0.02896636  0.92924897  1
  Te  Te165  1  0.58349494  0.42742804  0.27095370  1
  Te  Te166  1  0.55923107  0.41707342  0.55989701  1
  Te  Te167  1  0.55704548  0.45276631  0.92936930  1
  Te  Te168  1  0.55166490  0.72565510  0.27570293  1
  Te  Te169  1  0.57964446  0.72638247  0.58768097  1
  Te  Te170  1  0.57791940  0.77863323  0.90534648  1
  Te  Te171  1  0.87500611  0.07234781  0.23557238  1
  Te  Te172  1  0.92546904  0.07505039  0.60248868  1
  Te  Te173  1  0.91744304  0.07400323  0.90841518  1
  Te  Te174  1  0.92673709  0.39894142  0.25257873  1
  Te  Te175  1  0.90749427  0.42268628  0.56288922  1
  Te  Te176  1  0.88788736  0.41066496  0.90975092  1
  Te  Te177  1  0.92654838  0.72421567  0.27821766  1
  Te  Te178  1  0.92437568  0.74529461  0.59370371  1
  Te  Te179  1  0.92749542  0.74545742  0.93198542  1
