# generated using pymatgen
data_In2Te3
_symmetry_space_group_name_H-M   'P 1'
_cell_length_a   18.75748080
_cell_length_b   18.75730716
_cell_length_c   18.75452327
_cell_angle_alpha   89.95002162
_cell_angle_beta   90.05209778
_cell_angle_gamma   89.90477610
_symmetry_Int_Tables_number   1
_chemical_formula_structural   In2Te3
_chemical_formula_sum   'In72 Te108'
_cell_volume   6598.57389865
_cell_formula_units_Z   36
loop_
 _symmetry_equiv_pos_site_id
 _symmetry_equiv_pos_as_xyz
  1  'x, y, z'
loop_
 _atom_site_type_symbol
 _atom_site_label
 _atom_site_symmetry_multiplicity
 _atom_site_fract_x
 _atom_site_fract_y
 _atom_site_fract_z
 _atom_site_occupancy
  In  In0  1  0.33502087  0.49617180  0.81240640  1
  In  In1  1  0.47756923  -0.00828177  0.16974802  1
  In  In2  1  0.66834297  0.18563556  0.16123170  1
  In  In3  1  0.83688940  0.82652063  0.65752094  1
  In  In4  1  0.31444613  0.80162993  0.48852685  1
  In  In5  1  0.81600769  0.64748901  0.19424819  1
  In  In6  1  0.15146933  -0.00985290  0.16332748  1
  In  In7  1  0.34391551  0.18405014  0.49173516  1
  In  In8  1  0.66057739  0.68078731  0.65857429  1
  In  In9  1  0.18146337  0.51748888  0.64953589  1
  In  In10  1  0.17463994  0.16160528  0.31867721  1
  In  In11  1  0.33158616  0.82115898  0.18164737  1
  In  In12  1  0.67151641  0.82848950  0.20190911  1
  In  In13  1  0.47765783  0.82588943  0.01300233  1
  In  In14  1  -0.03651256  0.30819638  0.03572550  1
  In  In15  1  0.16880869  0.51173421  0.33409676  1
  In  In16  1  0.33303327  -0.00252404  0.64937055  1
  In  In17  1  0.18366474  -0.02197252  0.48772803  1
  In  In18  1  0.84767233  0.00610163  0.47984167  1
  In  In19  1  0.82310011  0.16428502  0.31339699  1
  In  In20  1  0.63607115  0.84747383  0.84699124  1
  In  In21  1  0.82202738  0.01737922  0.81971988  1
  In  In22  1  0.53271882  -0.00441834  0.84224976  1
  In  In23  1  0.02113076  0.52166707  0.86366650  1
  In  In24  1  0.67011693  0.02145944  0.01250371  1
  In  In25  1  0.32921559  0.51133924  0.50230081  1
  In  In26  1  0.66164076  0.80846007  0.49154526  1
  In  In27  1  0.66298142  0.34321582  0.01414191  1
  In  In28  1  0.81938786  0.31246382  0.84673921  1
  In  In29  1  0.30768342  0.80247515  0.83958125  1
  In  In30  1  0.34994882  0.34209549  0.01160692  1
  In  In31  1  0.32455074  0.17475305  0.84500378  1
  In  In32  1  0.49470231  0.00429744  0.49875941  1
  In  In33  1  0.50703554  0.17118514  0.34523396  1
  In  In34  1  0.49521314  0.17595822  0.67208943  1
  In  In35  1  -0.00749365  0.16191491  0.51668253  1
  In  In36  1  0.82461214  0.64888832  0.45182181  1
  In  In37  1  0.50173787  0.50714487  0.01517352  1
  In  In38  1  0.65428004  0.32663415  0.64857125  1
  In  In39  1  0.68536003  -0.00982360  0.33272627  1
  In  In40  1  0.02650261  0.65975824  0.00113566  1
  In  In41  1  0.01774354  -0.01312413  0.63137706  1
  In  In42  1  0.16520749  0.34143388  0.17196282  1
  In  In43  1  0.65938634  0.00691996  0.67427264  1
  In  In44  1  -0.00652267  0.50007646  0.19359976  1
  In  In45  1  -0.00271886  0.34913271  0.32687317  1
  In  In46  1  -0.01554486  -0.00630874  0.32006737  1
  In  In47  1  0.52322994  0.64715570  0.18775691  1
  In  In48  1  0.34503136  0.66442768  0.32437668  1
  In  In49  1  0.16313574  0.32645800  0.83234466  1
  In  In50  1  0.82631067  0.47457695  0.01675282  1
  In  In51  1  0.01560488  0.67508970  0.35547679  1
  In  In52  1  0.83808425  0.82365746  0.02375216  1
  In  In53  1  0.01607076  0.66243594  0.63860458  1
  In  In54  1  -0.00368501  0.18260409  0.83954899  1
  In  In55  1  0.66890216  0.49003866  0.84770253  1
  In  In56  1  0.17956608  0.52600382  0.02613867  1
  In  In57  1  0.52248583  0.35183411  0.47249658  1
  In  In58  1  0.18209664  -0.01659464  0.84899526  1
  In  In59  1  0.48462678  0.67329332  0.83472081  1
  In  In60  1  0.80143002  0.35101777  0.47868678  1
  In  In61  1  0.14953926  0.17453482  0.68893430  1
  In  In62  1  0.33537725  0.34267459  0.32339857  1
  In  In63  1  0.34964288  0.17168454  0.17292331  1
  In  In64  1  0.00939655  0.82076697  0.16336990  1
  In  In65  1  0.47605316  0.49955345  0.65770381  1
  In  In66  1  -0.01633122  0.34645422  0.65375768  1
  In  In67  1  0.83137476  0.64789141  0.84862834  1
  In  In68  1  0.01122128  0.00687308  -0.00758069  1
  In  In69  1  0.02998529  0.81563391  0.80570555  1
  In  In70  1  0.83169582  0.50666585  0.63932490  1
  In  In71  1  0.33987364  0.00740356  0.01136700  1
  Te  Te72  1  0.09044807  0.09593285  0.07999761  1
  Te  Te73  1  0.08183904  0.08127277  0.41924699  1
  Te  Te74  1  0.07323735  0.06463966  0.76387810  1
  Te  Te75  1  0.06996341  0.42369930  0.07542932  1
  Te  Te76  1  0.09644635  0.41211659  0.41613344  1
  Te  Te77  1  0.07768347  0.42377561  0.74882676  1
  Te  Te78  1  0.11363347  0.74676588  0.08617304  1
  Te  Te79  1  0.09257844  0.76036513  0.45107871  1
  Te  Te80  1  0.12301753  0.73200050  0.72243560  1
  Te  Te81  1  0.44227816  0.10268924  0.07007364  1
  Te  Te82  1  0.40022737  0.07630623  0.40079122  1
  Te  Te83  1  0.41228409  0.07414448  0.75637394  1
  Te  Te84  1  0.41368049  0.43275799  0.11087663  1
  Te  Te85  1  0.42202272  0.44275551  0.40059850  1
  Te  Te86  1  0.43189836  0.39946741  0.75639235  1
  Te  Te87  1  0.40767253  0.71577581  0.08997237  1
  Te  Te88  1  0.43211953  0.72801171  0.42943675  1
  Te  Te89  1  0.40459126  0.75265714  0.73923050  1
  Te  Te90  1  0.77006999  0.08953773  0.10057774  1
  Te  Te91  1  0.74001542  0.09815340  0.42558740  1
  Te  Te92  1  0.72538698  0.10999889  0.75765711  1
  Te  Te93  1  0.75005173  0.40434994  0.12199287  1
  Te  Te94  1  0.71435842  0.44506713  0.39858052  1
  Te  Te95  1  0.76103859  0.42067183  0.74612755  1
  Te  Te96  1  0.73650268  0.73751283  0.09630712  1
  Te  Te97  1  0.74792409  0.75699464  0.38301510  1
  Te  Te98  1  0.75063618  0.75260513  0.76461145  1
  Te  Te99  1  0.07141136  0.24389837  0.24056461  1
  Te  Te100  1  0.08903025  0.26298992  0.57899144  1
  Te  Te101  1  0.08026109  0.25720760  0.94030474  1
  Te  Te102  1  0.09388916  0.60331121  0.23666284  1
  Te  Te103  1  0.08218066  0.56532698  0.54900414  1
  Te  Te104  1  0.13574397  0.61839437  0.89428623  1
  Te  Te105  1  0.09209327  0.89761933  0.26914716  1
  Te  Te106  1  0.09354047  0.87429059  0.56070870  1
  Te  Te107  1  0.08991617  0.89060514  0.92665941  1
  Te  Te108  1  0.44439101  0.26913831  0.24465729  1
  Te  Te109  1  0.42902889  0.27528447  0.57493658  1
  Te  Te110  1  0.42412745  0.25086509  0.92173298  1
  Te  Te111  1  0.41816439  0.55821631  0.24711946  1
  Te  Te112  1  0.41612797  0.60923380  0.57688813  1
  Te  Te113  1  0.40211846  0.58039757  0.92172011  1
  Te  Te114  1  0.42440467  0.89777477  0.26927498  1
  Te  Te115  1  0.41269424  0.89786515  0.56937666  1
  Te  Te116  1  0.40937261  0.91588120  0.90772929  1
  Te  Te117  1  0.73918985  0.27495619  0.25838826  1
  Te  Te118  1  0.76322822  0.25295155  0.58165191  1
  Te  Te119  1  0.73941032  0.23582464  0.94202960  1
  Te  Te120  1  0.71413574  0.56926003  0.27491189  1
  Te  Te121  1  0.73220815  0.58757557  0.55926940  1
  Te  Te122  1  0.73746290  0.58284523  0.94776076  1
  Te  Te123  1  0.77870383  0.92167226  0.24130967  1
  Te  Te124  1  0.74322315  0.91761249  0.57714871  1
  Te  Te125  1  0.75447905  0.91399684  0.92261710  1
  Te  Te126  1  0.25086843  0.24934532  0.08560576  1
  Te  Te127  1  0.23917017  0.26408233  0.41281068  1
  Te  Te128  1  0.26475888  0.26428543  0.73565091  1
  Te  Te129  1  0.26586800  0.63211247  0.08161228  1
  Te  Te130  1  0.23851307  0.60816108  0.42727767  1
  Te  Te131  1  0.27353741  0.60298861  0.72947077  1
  Te  Te132  1  0.25107283  0.90642589  0.08013164  1
  Te  Te133  1  0.27057208  0.90783152  0.39215813  1
  Te  Te134  1  0.24566169  0.90653749  0.73563682  1
  Te  Te135  1  0.56348125  0.26977634  0.09829224  1
  Te  Te136  1  0.61219879  0.24998349  0.41221387  1
  Te  Te137  1  0.58813658  0.25318595  0.75837890  1
  Te  Te138  1  0.61021093  0.56849957  0.09586730  1
  Te  Te139  1  0.59879733  0.56876471  0.38110605  1
  Te  Te140  1  0.58780857  0.58215106  0.75371293  1
  Te  Te141  1  0.58439826  0.91106204  0.08222740  1
  Te  Te142  1  0.57936956  0.91277386  0.41076968  1
  Te  Te143  1  0.56436521  0.89723699  0.72234075  1
  Te  Te144  1  0.88002178  0.21223475  0.10889838  1
  Te  Te145  1  0.91383461  0.24587288  0.41597996  1
  Te  Te146  1  0.90390413  0.24450746  0.73557515  1
  Te  Te147  1  0.91502500  0.58982265  0.08113010  1
  Te  Te148  1  0.92278210  0.56147587  0.38238750  1
  Te  Te149  1  0.92132614  0.58137142  0.74372920  1
  Te  Te150  1  0.92418692  0.92778731  0.09343467  1
  Te  Te151  1  0.92508011  0.89921494  0.41721435  1
  Te  Te152  1  0.92041028  0.91416063  0.75283691  1
  Te  Te153  1  0.26356435  0.06574533  0.24177151  1
  Te  Te154  1  0.23925469  0.09769757  0.57980982  1
  Te  Te155  1  0.23460141  0.09429655  0.93846615  1
  Te  Te156  1  0.26026298  0.44252110  0.23165688  1
  Te  Te157  1  0.26247990  0.41008424  0.58748777  1
  Te  Te158  1  0.24081080  0.42310040  0.92288206  1
  Te  Te159  1  0.23460431  0.74463335  0.26369501  1
  Te  Te160  1  0.20762803  0.75302308  0.58204506  1
  Te  Te161  1  0.24187599  0.72599843  0.94775023  1
  Te  Te162  1  0.58534722  0.07465106  0.24604632  1
  Te  Te163  1  0.58528779  0.09948730  0.57448876  1
  Te  Te164  1  0.59502763  0.10659736  0.91712120  1
  Te  Te165  1  0.59554188  0.44951934  0.29448692  1
  Te  Te166  1  0.59180943  0.44433237  0.57426167  1
  Te  Te167  1  0.56231369  0.40750104  0.91382914  1
  Te  Te168  1  0.57336843  0.75226402  0.28101833  1
  Te  Te169  1  0.55749882  0.72327842  0.55829847  1
  Te  Te170  1  0.57980625  0.73768016  0.93678355  1
  Te  Te171  1  0.93171757  0.10146009  0.22999477  1
  Te  Te172  1  0.89804121  0.07915262  0.60439147  1
  Te  Te173  1  0.90403014  0.09474467  0.92343968  1
  Te  Te174  1  0.88814557  0.40869038  0.24293548  1
  Te  Te175  1  0.91964103  0.42971832  0.54217523  1
  Te  Te176  1  0.92009506  0.41159994  0.91065719  1
  Te  Te177  1  0.91503557  0.74565022  0.25622634  1
  Te  Te178  1  0.90666302  0.73571875  0.56004800  1
  Te  Te179  1  0.92281519  0.75165911  0.91532769  1
