# generated using pymatgen
data_In2Te3
_symmetry_space_group_name_H-M   'P 1'
_cell_length_a   18.78887968
_cell_length_b   18.77646891
_cell_length_c   18.78727162
_cell_angle_alpha   90.08557684
_cell_angle_beta   89.95094443
_cell_angle_gamma   90.02027524
_symmetry_Int_Tables_number   1
_chemical_formula_structural   In2Te3
_chemical_formula_sum   'In72 Te108'
_cell_volume   6627.92905773
_cell_formula_units_Z   36
loop_
 _symmetry_equiv_pos_site_id
 _symmetry_equiv_pos_as_xyz
  1  'x, y, z'
loop_
 _atom_site_type_symbol
 _atom_site_label
 _atom_site_symmetry_multiplicity
 _atom_site_fract_x
 _atom_site_fract_y
 _atom_site_fract_z
 _atom_site_occupancy
  In  In0  1  0.80992610  0.84623004  0.65841216  1
  In  In1  1  0.86310100  0.83553655  0.31385402  1
  In  In2  1  0.32425674  -0.02865082  0.34280644  1
  In  In3  1  0.83595434  0.18177725  0.66609683  1
  In  In4  1  0.16457758  0.15585758  -0.00194172  1
  In  In5  1  0.14997687  0.17888922  0.35650994  1
  In  In6  1  0.01552491  0.00762366  0.65750746  1
  In  In7  1  0.30668350  0.69111351  0.63108338  1
  In  In8  1  0.84810338  0.51459406  0.02591086  1
  In  In9  1  0.31245288  0.80516861  0.15099017  1
  In  In10  1  0.35531372  0.68518069  0.34062254  1
  In  In11  1  0.50103934  0.32166349  0.51187478  1
  In  In12  1  0.32183914  0.00031291  0.00829160  1
  In  In13  1  0.02250444  0.82053121  0.85154264  1
  In  In14  1  0.51389286  -0.00912419  0.51316868  1
  In  In15  1  0.66602136  0.67531626  0.01591495  1
  In  In16  1  0.16406083  0.81103309  0.33484292  1
  In  In17  1  0.32671216  0.00128767  0.66367843  1
  In  In18  1  0.14962430  0.50943313  0.67938765  1
  In  In19  1  0.30136052  0.82767803  0.82395321  1
  In  In20  1  0.65309554  -0.00534185  0.65399328  1
  In  In21  1  0.00471150  0.66959840  0.66545393  1
  In  In22  1  0.33491770  0.51070032  0.48368023  1
  In  In23  1  0.16528509  0.31569889  0.50058706  1
  In  In24  1  0.82755346  0.82009082  0.00353702  1
  In  In25  1  0.00346389  0.34313431  0.01798153  1
  In  In26  1  0.48531001  0.82511760  0.02149725  1
  In  In27  1  0.65577211  0.81555062  0.17641411  1
  In  In28  1  0.64194581  0.32350824  0.67880986  1
  In  In29  1  0.49366159  0.64572248  0.83230148  1
  In  In30  1  0.48825896  0.01922427  0.83482253  1
  In  In31  1  0.15948680  0.35980313  0.83978815  1
  In  In32  1  0.16938352  0.34428515  0.16073943  1
  In  In33  1  0.50947977  0.15929186  0.34245560  1
  In  In34  1  0.84702415  0.50929307  0.65202351  1
  In  In35  1  0.68344797  0.16491040  0.49659091  1
  In  In36  1  0.85099002  0.32504328  0.83253972  1
  In  In37  1  0.65489030  0.49355359  0.84582555  1
  In  In38  1  0.65881373  0.83270394  0.50405946  1
  In  In39  1  0.31970403  0.18304651  0.16285185  1
  In  In40  1  0.48142490  0.50311970  0.63877927  1
  In  In41  1  0.84320522  -0.00802459  0.84613987  1
  In  In42  1  0.16487350  0.00037364  0.15751608  1
  In  In43  1  0.51337507  0.82808049  0.66074828  1
  In  In44  1  0.50910438  0.51290298  0.32730377  1
  In  In45  1  0.17362692  0.15646137  0.67378679  1
  In  In46  1  0.50123428  0.35720263  0.16270657  1
  In  In47  1  0.84184223  0.68498849  0.81761100  1
  In  In48  1  0.29678311  0.34251875  0.32100691  1
  In  In49  1  0.83956881  0.64991458  0.48068513  1
  In  In50  1  0.50928581  0.49806182  0.00534140  1
  In  In51  1  0.51447434  -0.00139475  0.19498741  1
  In  In52  1  0.33163734  0.32519092  0.66589117  1
  In  In53  1  0.70793721  0.82299208  0.83782108  1
  In  In54  1  0.69342704  0.49007960  0.16758745  1
  In  In55  1  0.03356592  0.79588817  0.14711870  1
  In  In56  1  0.84748030  0.16818714  0.01163880  1
  In  In57  1  0.32179879  0.48597908  0.85113829  1
  In  In58  1  0.16348759  0.63949485  0.85815028  1
  In  In59  1  0.65324760  0.34854597  0.00919273  1
  In  In60  1  -0.00014849  -0.00071808  -0.00567002  1
  In  In61  1  0.66138116  0.00008725  0.36191494  1
  In  In62  1  0.16268190  0.52604228  0.31020611  1
  In  In63  1  -0.00362636  0.49463823  0.49819888  1
  In  In64  1  0.00493120  0.16937747  0.49291094  1
  In  In65  1  0.00030058  0.02788279  0.33069916  1
  In  In66  1  0.64882404  0.16915274  0.82681999  1
  In  In67  1  0.48912008  0.18969042  -0.00742363  1
  In  In68  1  0.84351684  0.01645403  0.17059186  1
  In  In69  1  0.66299365  0.65834865  0.32559133  1
  In  In70  1  0.01887496  0.83703166  0.48643569  1
  In  In71  1  -0.02132052  0.34562065  0.32150111  1
  Te  Te72  1  0.06375212  0.09539987  0.09703521  1
  Te  Te73  1  0.10363948  0.06095492  0.44026866  1
  Te  Te74  1  0.08870041  0.07468341  0.76557142  1
  Te  Te75  1  0.07108139  0.44695249  0.10616161  1
  Te  Te76  1  0.10188431  0.41256094  0.40069536  1
  Te  Te77  1  0.05761981  0.42037532  0.75000151  1
  Te  Te78  1  0.09958593  0.70572625  0.04006078  1
  Te  Te79  1  0.05729853  0.72570088  0.39618576  1
  Te  Te80  1  0.10757621  0.73919681  0.75390528  1
  Te  Te81  1  0.41808127  0.08118774  0.09749420  1
  Te  Te82  1  0.41651751  0.06690120  0.41986474  1
  Te  Te83  1  0.41115474  0.09864841  0.74010970  1
  Te  Te84  1  0.40386024  0.41577709  0.07029657  1
  Te  Te85  1  0.41477645  0.40534492  0.40772388  1
  Te  Te86  1  0.41785088  0.42091675  0.74834557  1
  Te  Te87  1  0.41963253  0.71642089  0.09462215  1
  Te  Te88  1  0.43814360  0.78194563  0.41170652  1
  Te  Te89  1  0.41296662  0.74605189  0.74751947  1
  Te  Te90  1  0.74756035  0.08708775  0.08379170  1
  Te  Te91  1  0.76918951  0.09616094  0.39623085  1
  Te  Te92  1  0.75127626  0.07313370  0.75172232  1
  Te  Te93  1  0.77758290  0.38911471  0.08481157  1
  Te  Te94  1  0.80553313  0.39573782  0.38522407  1
  Te  Te95  1  0.74863887  0.41340609  0.75452728  1
  Te  Te96  1  0.76878698  0.73227056  0.11309070  1
  Te  Te97  1  0.75851039  0.76561718  0.40642770  1
  Te  Te98  1  0.73340011  0.72725253  0.72085637  1
  Te  Te99  1  0.08056898  0.25254112  0.24522689  1
  Te  Te100  1  0.07457087  0.25241889  0.60183846  1
  Te  Te101  1  0.07857209  0.25457761  0.91924873  1
  Te  Te102  1  0.05177150  0.55887774  0.21407209  1
  Te  Te103  1  0.09351934  0.59482015  0.56649216  1
  Te  Te104  1  0.06475294  0.58254690  0.95101056  1
  Te  Te105  1  0.07929659  0.91529085  0.25199914  1
  Te  Te106  1  0.09525011  0.89217985  0.60311148  1
  Te  Te107  1  0.10441865  0.91972472  0.92512263  1
  Te  Te108  1  0.41860837  0.25341027  0.25588138  1
  Te  Te109  1  0.40553170  0.23194346  0.57817862  1
  Te  Te110  1  0.43236005  0.26195104  0.87968319  1
  Te  Te111  1  0.40234907  0.57809595  0.24958343  1
  Te  Te112  1  0.41858534  0.61607623  0.55690442  1
  Te  Te113  1  0.40270568  0.58601217  0.93664139  1
  Te  Te114  1  0.40504634  0.90091661  0.23616273  1
  Te  Te115  1  0.40956139  0.90020439  0.57832838  1
  Te  Te116  1  0.41287776  0.90706251  0.91272246  1
  Te  Te117  1  0.76911914  0.31351622  0.26897606  1
  Te  Te118  1  0.75060905  0.27431390  0.58114249  1
  Te  Te119  1  0.74069743  0.25457595  0.91590935  1
  Te  Te120  1  0.76995378  0.58172836  0.25574536  1
  Te  Te121  1  0.74696695  0.57006106  0.56339545  1
  Te  Te122  1  0.75008795  0.58879508  0.91820187  1
  Te  Te123  1  0.74501361  0.91778029  0.25324772  1
  Te  Te124  1  0.75499304  0.94298439  0.55402035  1
  Te  Te125  1  0.74247208  0.93105379  0.94306485  1
  Te  Te126  1  0.25548698  0.26760392  0.05683798  1
  Te  Te127  1  0.27288797  0.23549121  0.42766723  1
  Te  Te128  1  0.24689921  0.25475008  0.76993530  1
  Te  Te129  1  0.23432838  0.65230934  0.08508455  1
  Te  Te130  1  0.24220724  0.60756489  0.41377402  1
  Te  Te131  1  0.26974891  0.58440054  0.73866485  1
  Te  Te132  1  0.22386461  0.89600049  0.06321005  1
  Te  Te133  1  0.24318518  0.88847172  0.43848872  1
  Te  Te134  1  0.22774198  0.93200991  0.75266477  1
  Te  Te135  1  0.58528703  0.24518707  0.09806005  1
  Te  Te136  1  0.59987498  0.26104764  0.41112645  1
  Te  Te137  1  0.53867125  0.24694819  0.75973481  1
  Te  Te138  1  0.58587810  0.58249258  0.10560383  1
  Te  Te139  1  0.59177445  0.57903662  0.42935076  1
  Te  Te140  1  0.58457510  0.57188884  0.73575614  1
  Te  Te141  1  0.58746895  0.91848585  0.08554639  1
  Te  Te142  1  0.55615158  0.88791937  0.39875903  1
  Te  Te143  1  0.59126543  0.91186588  0.76613749  1
  Te  Te144  1  0.92591574  0.25113571  0.10457533  1
  Te  Te145  1  0.90820592  0.26349650  0.42640816  1
  Te  Te146  1  0.94001336  0.23899197  0.75259332  1
  Te  Te147  1  0.93994858  0.59537332  0.10817840  1
  Te  Te148  1  0.92556666  0.56903965  0.39168314  1
  Te  Te149  1  0.93193275  0.57568706  0.76200584  1
  Te  Te150  1  0.92631808  0.90397769  0.09188442  1
  Te  Te151  1  0.91938202  0.93085966  0.41862806  1
  Te  Te152  1  0.91966711  0.89613388  0.75527635  1
  Te  Te153  1  0.24723466  0.08505697  0.25612781  1
  Te  Te154  1  0.24275679  0.07959017  0.56772213  1
  Te  Te155  1  0.25751416  0.08513577  0.90765439  1
  Te  Te156  1  0.26562547  0.45216339  0.22122963  1
  Te  Te157  1  0.24734645  0.42722722  0.57933373  1
  Te  Te158  1  0.21663346  0.44635291  0.94692626  1
  Te  Te159  1  0.21888059  0.71202620  0.22934911  1
  Te  Te160  1  0.22144417  0.78370220  0.55625053  1
  Te  Te161  1  0.26172672  0.72981103  0.93009554  1
  Te  Te162  1  0.61553831  0.09921091  0.25065645  1
  Te  Te163  1  0.57569240  0.10829885  0.59090899  1
  Te  Te164  1  0.58434885  0.08193074  0.93495690  1
  Te  Te165  1  0.60390924  0.40887871  0.26329313  1
  Te  Te166  1  0.59553603  0.42519009  0.57234344  1
  Te  Te167  1  0.55393351  0.39335484  0.90122781  1
  Te  Te168  1  0.55895657  0.73727878  0.25458707  1
  Te  Te169  1  0.59081176  0.72909546  0.58348606  1
  Te  Te170  1  0.58317087  0.74882326  0.91043300  1
  Te  Te171  1  0.90125602  0.11572363  0.26476972  1
  Te  Te172  1  0.90948807  0.08070658  0.57723172  1
  Te  Te173  1  0.93216087  0.10110881  0.90223376  1
  Te  Te174  1  0.87463712  0.42672832  0.24623817  1
  Te  Te175  1  0.92494375  0.40184222  0.58768128  1
  Te  Te176  1  0.92081903  0.42855626  0.91976913  1
  Te  Te177  1  0.94908204  0.72969774  0.25223840  1
  Te  Te178  1  0.90945938  0.75521530  0.58068920  1
  Te  Te179  1  0.92895452  0.73057988  0.93404857  1
