# generated using pymatgen
data_In2Te3
_symmetry_space_group_name_H-M   'P 1'
_cell_length_a   18.94643100
_cell_length_b   18.92997892
_cell_length_c   18.95940343
_cell_angle_alpha   90.01666936
_cell_angle_beta   89.97851507
_cell_angle_gamma   90.10001622
_symmetry_Int_Tables_number   1
_chemical_formula_structural   In2Te3
_chemical_formula_sum   'In72 Te108'
_cell_volume   6799.88393996
_cell_formula_units_Z   36
loop_
 _symmetry_equiv_pos_site_id
 _symmetry_equiv_pos_as_xyz
  1  'x, y, z'
loop_
 _atom_site_type_symbol
 _atom_site_label
 _atom_site_symmetry_multiplicity
 _atom_site_fract_x
 _atom_site_fract_y
 _atom_site_fract_z
 _atom_site_occupancy
  In  In0  1  0.83136837  0.84843201  0.00699536  1
  In  In1  1  0.52285679  0.01356985  0.17701511  1
  In  In2  1  0.34906145  -0.00131021  0.34639446  1
  In  In3  1  0.53446406  0.14698759  0.66797580  1
  In  In4  1  0.48412936  0.51270805  0.68041269  1
  In  In5  1  0.67419687  0.13970531  0.50264684  1
  In  In6  1  -0.02298216  -0.00489690  0.34757593  1
  In  In7  1  0.68480183  0.64676011  0.30703862  1
  In  In8  1  0.50933846  0.17234051  0.32380546  1
  In  In9  1  0.16142630  0.48153719  0.64719047  1
  In  In10  1  -0.02447231  0.66875242  0.03648734  1
  In  In11  1  0.12710113  0.67825204  0.20912250  1
  In  In12  1  0.50390340  0.65792293  0.14779783  1
  In  In13  1  0.34945193  0.50973814  0.81991754  1
  In  In14  1  0.15091533  0.82859174  0.35503163  1
  In  In15  1  0.68402371  0.85977370  0.49783311  1
  In  In16  1  0.33770287  0.33970378  0.67750726  1
  In  In17  1  0.70905424  0.14061166  0.82317471  1
  In  In18  1  -0.02083005  0.34082634  0.34647839  1
  In  In19  1  0.17741917  0.85692412  0.66214557  1
  In  In20  1  0.31825279  0.83989210  0.15474284  1
  In  In21  1  0.32402140  0.68808515  0.67995876  1
  In  In22  1  0.80883827  0.46796004  -0.01076141  1
  In  In23  1  0.36304814  0.31160825  -0.00802594  1
  In  In24  1  0.31183696  0.68187364  0.00772469  1
  In  In25  1  0.51715640  0.83083846  0.35978687  1
  In  In26  1  0.49544943  -0.01026943  0.84092540  1
  In  In27  1  0.82220535  0.84455128  0.34100230  1
  In  In28  1  0.01830148  0.86787371  0.81821577  1
  In  In29  1  0.64808786  0.83866654  0.82864425  1
  In  In30  1  0.66434423  0.34008516  0.66806565  1
  In  In31  1  0.18246296  0.83813424  -0.01681468  1
  In  In32  1  0.51584163  0.67846599  0.51258324  1
  In  In33  1  0.13010211  0.50369200  0.36760328  1
  In  In34  1  0.67203293  0.19103779  0.16895057  1
  In  In35  1  0.33164155  0.32840806  0.33515399  1
  In  In36  1  0.34190316  0.16250992  0.14880743  1
  In  In37  1  0.02224279  0.50025729  0.81363318  1
  In  In38  1  0.16165951  0.49864414  0.00216604  1
  In  In39  1  0.32820708  0.48047369  0.14309916  1
  In  In40  1  0.67802277  0.65958387  0.66726810  1
  In  In41  1  0.14632852  0.17940681  0.64323450  1
  In  In42  1  0.18344149  0.17904865  0.34389303  1
  In  In43  1  0.84122221  0.84376932  0.66695560  1
  In  In44  1  0.53465096  0.50343799  -0.00044155  1
  In  In45  1  -0.01192926  0.68118013  0.66388942  1
  In  In46  1  -0.02439185  0.85846182  0.16155041  1
  In  In47  1  0.15144740  0.00354816  0.51278967  1
  In  In48  1  0.68248219  0.01696126  0.01142606  1
  In  In49  1  0.54495134  0.45931698  0.30873335  1
  In  In50  1  0.81795137  0.32071645  0.49250581  1
  In  In51  1  -0.02286690  0.66763359  0.34303875  1
  In  In52  1  -0.04154957  0.14301936  0.85778195  1
  In  In53  1  0.18526795  0.68387020  0.86902448  1
  In  In54  1  0.15710948  0.34808993  0.82893834  1
  In  In55  1  0.35556160  -0.00812342  0.65230516  1
  In  In56  1  0.15021581  0.01564225  0.14195163  1
  In  In57  1  0.64591766  0.30911194  -0.00578514  1
  In  In58  1  0.49090044  0.33790249  0.50036421  1
  In  In59  1  0.19420144  0.04259866  0.83772894  1
  In  In60  1  0.19978207  0.32610341  0.17130195  1
  In  In61  1  -0.03363066  0.48368065  0.49606020  1
  In  In62  1  0.68035423  0.51286115  0.48270764  1
  In  In63  1  -0.01436809  0.15515978  0.18676186  1
  In  In64  1  0.34490570  0.64922027  0.35300626  1
  In  In65  1  0.84078124  0.32506994  0.80804968  1
  In  In66  1  -0.02172397  0.30113037  0.00011782  1
  In  In67  1  0.84708076  0.66096337  0.86537754  1
  In  In68  1  -0.02699249  0.02753620  0.64180971  1
  In  In69  1  -0.03848547  0.46847751  0.14508901  1
  In  In70  1  0.68465887  0.84448859  0.16319794  1
  In  In71  1  0.49154121  0.68991468  0.82590076  1
  Te  Te72  1  0.07258743  0.11736821  0.07352575  1
  Te  Te73  1  0.08075829  0.08870699  0.41059082  1
  Te  Te74  1  0.08262045  0.07734689  0.73752838  1
  Te  Te75  1  0.08770354  0.39381558  0.08207138  1
  Te  Te76  1  0.08949576  0.38130151  0.45125424  1
  Te  Te77  1  0.06137835  0.38977108  0.71765896  1
  Te  Te78  1  0.08866631  0.76562757  0.08419629  1
  Te  Te79  1  0.08264735  0.72185196  0.42905951  1
  Te  Te80  1  0.09372965  0.74950259  0.75847354  1
  Te  Te81  1  0.44474919  0.08681424  0.07368765  1
  Te  Te82  1  0.42136304  0.10107864  0.42038024  1
  Te  Te83  1  0.41888274  0.08870311  0.75064896  1
  Te  Te84  1  0.44171761  0.40591250  0.08155158  1
  Te  Te85  1  0.42459920  0.43037172  0.40054245  1
  Te  Te86  1  0.44190730  0.39935877  0.77279411  1
  Te  Te87  1  0.42254176  0.76323529  0.07505277  1
  Te  Te88  1  0.40769251  0.76193190  0.43603249  1
  Te  Te89  1  0.43781616  0.78108879  0.71744054  1
  Te  Te90  1  0.77002304  0.11607960  0.08011608  1
  Te  Te91  1  0.78594567  0.04998289  0.45621215  1
  Te  Te92  1  0.71760044  0.04031785  0.71245030  1
  Te  Te93  1  0.72451661  0.39656576  0.08836470  1
  Te  Te94  1  0.73114775  0.40059956  0.39928974  1
  Te  Te95  1  0.75740170  0.42624223  0.74339928  1
  Te  Te96  1  0.75412232  0.74751446  0.07859796  1
  Te  Te97  1  0.73621040  0.74106041  0.41265594  1
  Te  Te98  1  0.76565941  0.75273251  0.76356527  1
  Te  Te99  1  0.09096307  0.26334112  0.25705299  1
  Te  Te100  1  0.07292383  0.26934210  0.55759849  1
  Te  Te101  1  0.07247362  0.24043262  0.89796749  1
  Te  Te102  1  0.04954579  0.55144858  0.24569326  1
  Te  Te103  1  0.05773749  0.57087767  0.58181219  1
  Te  Te104  1  0.06627453  0.59598154  0.93167651  1
  Te  Te105  1  0.09010920  0.91897946  0.24486338  1
  Te  Te106  1  0.05750888  0.91074619  0.58662421  1
  Te  Te107  1  0.09877827  0.94681823  0.91819517  1
  Te  Te108  1  0.42136198  0.25957388  0.23512145  1
  Te  Te109  1  0.43282905  0.24627302  0.60405156  1
  Te  Te110  1  0.39396737  0.21436402  0.88834021  1
  Te  Te111  1  0.40696819  0.57793559  0.23251747  1
  Te  Te112  1  0.40755818  0.59772024  0.58371091  1
  Te  Te113  1  0.40978038  0.58787586  0.93462864  1
  Te  Te114  1  0.42334978  0.91047960  0.24711256  1
  Te  Te115  1  0.41293581  0.87088562  0.59498448  1
  Te  Te116  1  0.41112664  0.89498372  0.91218844  1
  Te  Te117  1  0.72289903  0.27282105  0.28493777  1
  Te  Te118  1  0.74637832  0.23331818  0.59871415  1
  Te  Te119  1  0.76463713  0.24909290  0.91363489  1
  Te  Te120  1  0.78830302  0.55337231  0.26855862  1
  Te  Te121  1  0.76628393  0.58769743  0.57496705  1
  Te  Te122  1  0.74091378  0.57840233  0.92135283  1
  Te  Te123  1  0.76720559  0.93896641  0.24106748  1
  Te  Te124  1  0.76726539  0.95162116  0.58604816  1
  Te  Te125  1  0.74705397  0.92455650  0.90812202  1
  Te  Te126  1  0.24360382  0.23817991  0.05747511  1
  Te  Te127  1  0.27523557  0.24188799  0.43847236  1
  Te  Te128  1  0.23891138  0.24995204  0.74795079  1
  Te  Te129  1  0.22501237  0.59364630  0.10272795  1
  Te  Te130  1  0.23267436  0.59000944  0.42763459  1
  Te  Te131  1  0.23019731  0.57907688  0.75756844  1
  Te  Te132  1  0.26039203  0.94509161  0.06378591  1
  Te  Te133  1  0.24748018  0.91926793  0.42925364  1
  Te  Te134  1  0.26314454  0.93071605  0.75986446  1
  Te  Te135  1  0.56186872  0.21248999  0.07089215  1
  Te  Te136  1  0.58915445  0.24865441  0.43041513  1
  Te  Te137  1  0.60439651  0.23972573  0.76463578  1
  Te  Te138  1  0.61137040  0.56890798  0.10613307  1
  Te  Te139  1  0.56723697  0.58855370  0.39787724  1
  Te  Te140  1  0.58574612  0.58751728  0.76386342  1
  Te  Te141  1  0.58621191  0.91885659  0.07553654  1
  Te  Te142  1  0.58570741  0.94352897  0.42354310  1
  Te  Te143  1  0.59762872  0.94599570  0.73541995  1
  Te  Te144  1  0.89640066  0.25297352  0.11372853  1
  Te  Te145  1  0.91271216  0.22947860  0.41994449  1
  Te  Te146  1  0.90838459  0.21378969  0.74016888  1
  Te  Te147  1  0.87344367  0.58052876  0.09676891  1
  Te  Te148  1  0.88657434  0.55551881  0.38675772  1
  Te  Te149  1  0.91190065  0.58196706  0.75162758  1
  Te  Te150  1  0.92385541  0.95532358  0.06144080  1
  Te  Te151  1  0.93119461  0.88444340  0.43147095  1
  Te  Te152  1  0.90630450  0.94848073  0.75959658  1
  Te  Te153  1  0.25528972  0.07972456  0.24530873  1
  Te  Te154  1  0.25529755  0.08535947  0.58590692  1
  Te  Te155  1  0.28923550  0.10900535  0.92683723  1
  Te  Te156  1  0.23976027  0.43876221  0.26681274  1
  Te  Te157  1  0.27674543  0.42731970  0.57740210  1
  Te  Te158  1  0.26231593  0.42080718  0.92082829  1
  Te  Te159  1  0.25707752  0.75108339  0.26286747  1
  Te  Te160  1  0.23080143  0.74604765  0.58388881  1
  Te  Te161  1  0.30077459  0.78598238  0.88956683  1
  Te  Te162  1  0.61900543  0.08264682  0.26841828  1
  Te  Te163  1  0.56468862  0.05272154  0.55666601  1
  Te  Te164  1  0.59551335  0.08570729  0.90814380  1
  Te  Te165  1  0.62295320  0.36302983  0.22110963  1
  Te  Te166  1  0.57670860  0.44147066  0.57962510  1
  Te  Te167  1  0.58349366  0.40697216  0.90218259  1
  Te  Te168  1  0.58154171  0.75498500  0.24626981  1
  Te  Te169  1  0.60512188  0.77070165  0.59382242  1
  Te  Te170  1  0.58371602  0.74677307  0.92308680  1
  Te  Te171  1  0.88685397  0.07029426  0.25903057  1
  Te  Te172  1  0.90773698  0.10373051  0.52955768  1
  Te  Te173  1  0.88666324  0.07974251  0.96728219  1
  Te  Te174  1  0.88875188  0.37362579  0.23288995  1
  Te  Te175  1  0.88082038  0.41300183  0.59065040  1
  Te  Te176  1  0.93604117  0.42172711  0.91641868  1
  Te  Te177  1  0.90404442  0.75443475  0.24293328  1
  Te  Te178  1  0.89887981  0.74941989  0.56893887  1
  Te  Te179  1  0.94273633  0.77140354  0.91910953  1
