# generated using pymatgen
data_In2Te3
_symmetry_space_group_name_H-M   'P 1'
_cell_length_a   19.01312024
_cell_length_b   19.06068617
_cell_length_c   19.06437836
_cell_angle_alpha   89.89271522
_cell_angle_beta   90.08876969
_cell_angle_gamma   89.90303472
_symmetry_Int_Tables_number   1
_chemical_formula_structural   In2Te3
_chemical_formula_sum   'In72 Te108'
_cell_volume   6908.95982643
_cell_formula_units_Z   36
loop_
 _symmetry_equiv_pos_site_id
 _symmetry_equiv_pos_as_xyz
  1  'x, y, z'
loop_
 _atom_site_type_symbol
 _atom_site_label
 _atom_site_symmetry_multiplicity
 _atom_site_fract_x
 _atom_site_fract_y
 _atom_site_fract_z
 _atom_site_occupancy
  In  In0  1  0.18748945  0.35164350  0.17412463  1
  In  In1  1  0.54794902  0.54287926  0.19269653  1
  In  In2  1  0.30050215  0.04697160  0.64024252  1
  In  In3  1  0.82901213  0.49225773  0.33943524  1
  In  In4  1  -0.00832697  0.15499408  0.82842336  1
  In  In5  1  0.18717486  0.65363154  0.15120974  1
  In  In6  1  0.65940942  0.30950174  0.00078134  1
  In  In7  1  0.47919761  0.17471231  0.32556725  1
  In  In8  1  0.79177966  0.31351343  0.16427998  1
  In  In9  1  0.35487764  0.48675188  0.49184077  1
  In  In10  1  0.32599108  0.17763444  0.82847107  1
  In  In11  1  0.63316672  0.32238895  0.32129259  1
  In  In12  1  0.64276281  0.65746110  0.02538433  1
  In  In13  1  0.19753455  0.33705697  0.49349352  1
  In  In14  1  0.32521519  0.84004499  0.14610643  1
  In  In15  1  0.47911063  0.65045518  0.87278519  1
  In  In16  1  0.50769267  0.69872284  0.50560693  1
  In  In17  1  0.87743983  0.83380489  0.29331278  1
  In  In18  1  0.45657744  0.07888592  0.51519754  1
  In  In19  1  0.66377682  0.69624454  0.32120981  1
  In  In20  1  0.15008807  0.16665431  0.00402699  1
  In  In21  1  0.02701167  0.01408867  0.30676051  1
  In  In22  1  0.64389796  0.02199182  0.67625916  1
  In  In23  1  0.02175855  0.32134123  0.36851690  1
  In  In24  1  0.65051729  0.86221329  0.13178005  1
  In  In25  1  0.85652089  0.64995919  0.82774304  1
  In  In26  1  0.01275303  0.33738025  0.64193841  1
  In  In27  1  0.32258119  0.64854119  0.68327906  1
  In  In28  1  0.47011863  0.35935265  0.83586377  1
  In  In29  1  0.33192023  0.32779918  0.01679602  1
  In  In30  1  0.69000428  -0.01246501  0.35549396  1
  In  In31  1  0.03139812  0.50577665  0.51073155  1
  In  In32  1  0.48731483  0.85614979  0.69320392  1
  In  In33  1  0.69995705  0.66032063  0.67299136  1
  In  In34  1  0.48241896  0.84042221  0.00713972  1
  In  In35  1  0.48510500  0.49574995  0.70008241  1
  In  In36  1  0.04317224  -0.00148506  0.66801524  1
  In  In37  1  0.29943371  0.82134352  0.85395180  1
  In  In38  1  0.00496521  0.47689784  0.18597727  1
  In  In39  1  -0.02713423  0.47474048  0.82693663  1
  In  In40  1  0.18036522  0.50680095  0.00679522  1
  In  In41  1  0.49487066  0.02440107  0.85525316  1
  In  In42  1  0.85685293  -0.01254968  0.51650385  1
  In  In43  1  0.69334200  0.81200082  0.50574515  1
  In  In44  1  0.15417029  0.31216529  0.81992633  1
  In  In45  1  0.84418410  0.84410279  -0.00746335  1
  In  In46  1  0.80962228  0.47112322  0.00400818  1
  In  In47  1  0.82640776  -0.01437481  0.82385154  1
  In  In48  1  0.83791252  0.00067153  0.14281800  1
  In  In49  1  0.20120060  0.65097561  0.50147091  1
  In  In50  1  -0.02086128  0.16691280  0.17687513  1
  In  In51  1  0.17341608  0.00275514  0.15957933  1
  In  In52  1  0.34256920  0.51090278  0.18105026  1
  In  In53  1  0.17229143  0.80303096  0.68457009  1
  In  In54  1  0.84304440  0.81517675  0.65776183  1
  In  In55  1  0.83163607  0.32571070  0.47490487  1
  In  In56  1  0.49758134  0.85441950  0.30620799  1
  In  In57  1  0.63894894  0.35839999  0.71527830  1
  In  In58  1  0.35361037  0.85432594  0.48220333  1
  In  In59  1  0.65713397  0.18779891  0.50034410  1
  In  In60  1  0.19095594  0.16943124  0.33347927  1
  In  In61  1  0.03598777  0.82528069  0.83220156  1
  In  In62  1  0.18417921  0.00292769  0.83688130  1
  In  In63  1  0.84142581  0.63867552  0.49527788  1
  In  In64  1  0.67318185  0.49799185  0.83232371  1
  In  In65  1  0.62187400  0.16212070  0.16228449  1
  In  In66  1  0.83335201  0.16534107  -0.01220502  1
  In  In67  1  0.01820035  0.81153026  0.49954014  1
  In  In68  1  0.83825946  0.66625635  0.17892323  1
  In  In69  1  0.83760353  0.15104207  0.66455745  1
  In  In70  1  0.01707354  0.64795322  0.02704611  1
  In  In71  1  0.19409526  0.82948808  0.33688233  1
  Te  Te72  1  0.05922824  0.07863621  0.08552428  1
  Te  Te73  1  0.09469330  0.08772686  0.41211679  1
  Te  Te74  1  0.11087246  0.10418394  0.75109036  1
  Te  Te75  1  0.08486683  0.40833624  0.07839787  1
  Te  Te76  1  0.11000284  0.43347563  0.40460204  1
  Te  Te77  1  0.08797066  0.42313258  0.74110665  1
  Te  Te78  1  0.10816269  0.75054331  0.07283971  1
  Te  Te79  1  0.10604050  0.73021569  0.41061469  1
  Te  Te80  1  0.07439674  0.71444867  0.74611706  1
  Te  Te81  1  0.47558204  0.14971206  0.11223350  1
  Te  Te82  1  0.39641683  0.06508367  0.38119359  1
  Te  Te83  1  0.40832017  0.08040730  0.74645417  1
  Te  Te84  1  0.40758805  0.44539371  0.06607837  1
  Te  Te85  1  0.45549533  0.41446102  0.41472968  1
  Te  Te86  1  0.37361981  0.40164714  0.73035709  1
  Te  Te87  1  0.39449629  0.73656758  0.06350116  1
  Te  Te88  1  0.42233513  0.75400859  0.39443965  1
  Te  Te89  1  0.41284821  0.74774637  0.76736733  1
  Te  Te90  1  0.73968223  0.09568471  0.08325299  1
  Te  Te91  1  0.75685343  0.08127763  0.45122582  1
  Te  Te92  1  0.74014405  0.09691461  0.76677269  1
  Te  Te93  1  0.70880930  0.42195123  0.10305217  1
  Te  Te94  1  0.72373188  0.40951555  0.40946346  1
  Te  Te95  1  0.76345462  0.43491392  0.73525039  1
  Te  Te96  1  0.75129524  0.74903162  0.08546167  1
  Te  Te97  1  0.78881174  0.75408346  0.40408727  1
  Te  Te98  1  0.76395191  0.75768169  0.77193687  1
  Te  Te99  1  0.08227476  0.25527853  0.24479911  1
  Te  Te100  1  0.10401172  0.24842517  0.56768940  1
  Te  Te101  1  0.05805698  0.25325317  0.92195725  1
  Te  Te102  1  0.10458447  0.56835171  0.23789322  1
  Te  Te103  1  0.11184510  0.58920348  0.59950781  1
  Te  Te104  1  0.06527885  0.55663111  0.91897555  1
  Te  Te105  1  0.09614356  0.89912881  0.24301984  1
  Te  Te106  1  0.11175321  0.89969720  0.57740816  1
  Te  Te107  1  0.09729736  0.92100981  0.92170315  1
  Te  Te108  1  0.43205681  0.25658313  0.21104516  1
  Te  Te109  1  0.34619221  0.17095751  0.56260095  1
  Te  Te110  1  0.41921323  0.24579933  0.92523067  1
  Te  Te111  1  0.43089844  0.59882425  0.25756324  1
  Te  Te112  1  0.43385484  0.59846971  0.59165384  1
  Te  Te113  1  0.38843644  0.53648371  0.85845839  1
  Te  Te114  1  0.41755094  0.93254595  0.21354129  1
  Te  Te115  1  0.44741499  0.93417807  0.57178345  1
  Te  Te116  1  0.39535234  0.92079526  0.91324972  1
  Te  Te117  1  0.72808651  0.22233165  0.26388513  1
  Te  Te118  1  0.75731448  0.25686482  0.58989646  1
  Te  Te119  1  0.76308168  0.26617120  0.90516164  1
  Te  Te120  1  0.73853064  0.58103220  0.25330400  1
  Te  Te121  1  0.72357775  0.57599249  0.55663781  1
  Te  Te122  1  0.75020971  0.59459981  0.93024441  1
  Te  Te123  1  0.74923194  0.90200874  0.24515787  1
  Te  Te124  1  0.74726532  0.92788039  0.60577470  1
  Te  Te125  1  0.74350214  0.92646869  0.92803065  1
  Te  Te126  1  0.24719777  0.23377011  0.09922839  1
  Te  Te127  1  0.27695635  0.28074986  0.38137809  1
  Te  Te128  1  0.25947906  0.26330537  0.72950752  1
  Te  Te129  1  0.27466403  0.62454355  0.02523052  1
  Te  Te130  1  0.28485098  0.58236412  0.40588143  1
  Te  Te131  1  0.25617209  0.58973525  0.80113839  1
  Te  Te132  1  0.22375424  0.90565025  0.06063722  1
  Te  Te133  1  0.26157520  0.93872542  0.40683209  1
  Te  Te134  1  0.26125249  0.92064378  0.73487511  1
  Te  Te135  1  0.55157736  0.28826869  0.10700327  1
  Te  Te136  1  0.54525938  0.26549878  0.43485817  1
  Te  Te137  1  0.56277359  0.25657866  0.78523554  1
  Te  Te138  1  0.53217818  0.56224180  0.04663130  1
  Te  Te139  1  0.60391689  0.61575392  0.42970672  1
  Te  Te140  1  0.58605759  0.60392481  0.76435175  1
  Te  Te141  1  0.56039362  0.95802969  0.06260130  1
  Te  Te142  1  0.59572971  0.89154755  0.42246015  1
  Te  Te143  1  0.58876971  0.92598118  0.77926959  1
  Te  Te144  1  0.90608246  0.25938121  0.08230804  1
  Te  Te145  1  0.91951591  0.22893973  0.41164222  1
  Te  Te146  1  0.92435339  0.25241611  0.73539549  1
  Te  Te147  1  0.90493643  0.55582245  0.08848179  1
  Te  Te148  1  0.93889899  0.57219258  0.40307356  1
  Te  Te149  1  0.89514174  0.55225173  0.72695967  1
  Te  Te150  1  0.92822132  0.89573107  0.10021420  1
  Te  Te151  1  0.93811666  0.91136831  0.41470123  1
  Te  Te152  1  0.93658034  0.91130725  0.73664589  1
  Te  Te153  1  0.26324550  0.09301560  0.23110638  1
  Te  Te154  1  0.20428128  0.11116482  0.54804268  1
  Te  Te155  1  0.25969367  0.09015593  0.93413292  1
  Te  Te156  1  0.28437972  0.40777762  0.26967496  1
  Te  Te157  1  0.25732442  0.43343453  0.58740817  1
  Te  Te158  1  0.23412717  0.39375137  0.92194133  1
  Te  Te159  1  0.27067183  0.73922094  0.24553605  1
  Te  Te160  1  0.28554872  0.76217811  0.58314158  1
  Te  Te161  1  0.22190063  0.70650229  0.90079209  1
  Te  Te162  1  0.59016061  0.07273941  0.28475576  1
  Te  Te163  1  0.56866444  0.13216127  0.60945713  1
  Te  Te164  1  0.56162308  0.08523753  0.97064762  1
  Te  Te165  1  0.52480404  0.41987893  0.27648161  1
  Te  Te166  1  0.56664195  0.42016924  0.60553744  1
  Te  Te167  1  0.58507620  0.41589990  0.92094837  1
  Te  Te168  1  0.57590167  0.76061287  0.21543050  1
  Te  Te169  1  0.59627640  0.76828989  0.61671682  1
  Te  Te170  1  0.57823643  0.75287296  0.92694597  1
  Te  Te171  1  0.89505886  0.07437608  0.26218688  1
  Te  Te172  1  0.94903530  0.08446217  0.58485696  1
  Te  Te173  1  0.91833265  0.06000817  0.91908877  1
  Te  Te174  1  0.89718639  0.39106642  0.25121359  1
  Te  Te175  1  0.91634897  0.41996806  0.55966784  1
  Te  Te176  1  0.88436371  0.38878426  0.90889618  1
  Te  Te177  1  0.95445456  0.72046180  0.24727792  1
  Te  Te178  1  0.93271468  0.72070759  0.58538600  1
  Te  Te179  1  0.93356496  0.74018014  0.92388026  1
