# generated using pymatgen
data_In2Te3
_symmetry_space_group_name_H-M   'P 1'
_cell_length_a   18.84357418
_cell_length_b   18.83430205
_cell_length_c   18.84315671
_cell_angle_alpha   89.98495906
_cell_angle_beta   89.89478192
_cell_angle_gamma   89.94489251
_symmetry_Int_Tables_number   1
_chemical_formula_structural   In2Te3
_chemical_formula_sum   'In72 Te108'
_cell_volume   6687.52663673
_cell_formula_units_Z   36
loop_
 _symmetry_equiv_pos_site_id
 _symmetry_equiv_pos_as_xyz
  1  'x, y, z'
loop_
 _atom_site_type_symbol
 _atom_site_label
 _atom_site_symmetry_multiplicity
 _atom_site_fract_x
 _atom_site_fract_y
 _atom_site_fract_z
 _atom_site_occupancy
  In  In0  1  0.16738281  0.81531970  0.66738587  1
  In  In1  1  0.33479322  -0.00143344  0.33071387  1
  In  In2  1  0.53373272  0.18712481  0.67167662  1
  In  In3  1  0.50440852  0.83944161  -0.02233893  1
  In  In4  1  0.84322698  0.82341285  0.00007481  1
  In  In5  1  0.70749455  0.04254257  0.03893234  1
  In  In6  1  0.33794767  0.81757545  0.50429829  1
  In  In7  1  0.51258695  0.47717260  0.63083964  1
  In  In8  1  0.67552100  0.32782589  -0.00737347  1
  In  In9  1  -0.01150074  -0.00414312  0.33969588  1
  In  In10  1  0.48905784  0.51303203  -0.00719593  1
  In  In11  1  0.13934505  0.33808081  0.50551593  1
  In  In12  1  -0.02492025  0.18155922  0.82741238  1
  In  In13  1  0.84868679  0.63864981  0.81725642  1
  In  In14  1  0.83891765  0.00608960  0.83179653  1
  In  In15  1  0.13665368  0.17233076  0.32065540  1
  In  In16  1  0.82435974  0.48029322  0.66322827  1
  In  In17  1  0.84337796  0.34573848  0.18768499  1
  In  In18  1  0.49758539  0.02602149  0.18193270  1
  In  In19  1  0.68550358  -0.00319956  0.34469947  1
  In  In20  1  0.33970392  0.16867807  0.50122766  1
  In  In21  1  -0.00375563  -0.00179338  0.66666685  1
  In  In22  1  0.83946101  0.81553211  0.34481855  1
  In  In23  1  0.50109378  0.31808373  0.80741454  1
  In  In24  1  0.67315196  0.83941996  0.14979828  1
  In  In25  1  0.66465722  -0.01604662  0.66276094  1
  In  In26  1  0.03303981  0.81920851  0.83636942  1
  In  In27  1  0.16788737  0.18434304  0.00850899  1
  In  In28  1  0.83130798  0.35075851  0.49769028  1
  In  In29  1  0.14640263  0.83685641  0.00315819  1
  In  In30  1  0.34511566  0.81016167  0.81974832  1
  In  In31  1  0.84388409  0.17266699  0.66205905  1
  In  In32  1  0.55383078  0.20744943  0.36081391  1
  In  In33  1  0.50361663  0.65838943  0.51963035  1
  In  In34  1  0.66294715  0.20384038  0.83547241  1
  In  In35  1  0.50804243  0.00667683  0.82381121  1
  In  In36  1  -0.01108505  0.48921473  0.17496800  1
  In  In37  1  0.50098865  0.18477605  -0.00364199  1
  In  In38  1  0.85560502  0.80503486  0.64298312  1
  In  In39  1  0.50718543  0.87050687  0.33331276  1
  In  In40  1  0.13225889  0.64105743  0.51083411  1
  In  In41  1  0.71362128  0.65148543  -0.01551481  1
  In  In42  1  0.70029927  0.66158302  0.34249122  1
  In  In43  1  0.16032889  0.48377548  0.68420707  1
  In  In44  1  0.49838998  0.33412742  0.14646199  1
  In  In45  1  0.30521054  0.81287726  0.13366376  1
  In  In46  1  0.16538797  0.18763884  0.65472734  1
  In  In47  1  0.13178462  0.62640156  0.84187116  1
  In  In48  1  0.33719314  0.19974475  0.14142579  1
  In  In49  1  0.49655298  0.65228517  0.81472136  1
  In  In50  1  0.29954674  0.65744691  0.01412749  1
  In  In51  1  0.34523618  0.32849054  0.66031566  1
  In  In52  1  0.15579119  0.78315168  0.34797306  1
  In  In53  1  0.65993436  0.51711539  0.18875903  1
  In  In54  1  -0.00660798  0.34441408  -0.01053249  1
  In  In55  1  0.85562474  0.48581031  -0.01086954  1
  In  In56  1  0.15430366  0.00781784  0.16376831  1
  In  In57  1  0.16515390  -0.01323076  0.84374876  1
  In  In58  1  0.34116486  0.62510703  0.36260027  1
  In  In59  1  0.15488329  -0.00323645  0.50679616  1
  In  In60  1  0.66472015  0.85008087  0.82286531  1
  In  In61  1  0.49667673  0.66006399  0.19608134  1
  In  In62  1  -0.00085265  0.34164184  0.33652618  1
  In  In63  1  0.32046231  0.35427814  0.32018491  1
  In  In64  1  0.32303310  0.17463017  0.81320970  1
  In  In65  1  -0.00619844  0.19641619  0.18612588  1
  In  In66  1  0.67755970  0.64731060  0.64791433  1
  In  In67  1  0.16709932  0.62590606  0.18493328  1
  In  In68  1  0.81048184  0.18811019  0.33981468  1
  In  In69  1  0.48318682  0.49671410  0.34319501  1
  In  In70  1  -0.01548406  0.82455298  0.18173769  1
  In  In71  1  0.50309259  -0.00910227  0.49860679  1
  Te  Te72  1  0.06527029  0.10068998  0.08608203  1
  Te  Te73  1  0.06561399  0.09384379  0.43060876  1
  Te  Te74  1  0.08831578  0.08431925  0.75221948  1
  Te  Te75  1  0.08149807  0.43267949  0.07071054  1
  Te  Te76  1  0.09278623  0.43772805  0.40374754  1
  Te  Te77  1  0.07968869  0.42940988  0.79748245  1
  Te  Te78  1  0.09418089  0.74519650  0.11039252  1
  Te  Te79  1  0.04528304  0.74617777  0.44356559  1
  Te  Te80  1  0.06880748  0.71787205  0.73028617  1
  Te  Te81  1  0.41079376  0.08587791  0.07120400  1
  Te  Te82  1  0.43293596  0.09178088  0.40506395  1
  Te  Te83  1  0.42472233  0.09527729  0.73191250  1
  Te  Te84  1  0.39909471  0.41675336  0.06871602  1
  Te  Te85  1  0.40815119  0.40265538  0.42841195  1
  Te  Te86  1  0.41558171  0.42807582  0.74979382  1
  Te  Te87  1  0.42619952  0.74223703  0.06689805  1
  Te  Te88  1  0.42785614  0.75323519  0.39850458  1
  Te  Te89  1  0.41578432  0.72961936  0.71940992  1
  Te  Te90  1  0.80044233  0.11915298  0.11769336  1
  Te  Te91  1  0.75800260  0.08796064  0.43472376  1
  Te  Te92  1  0.73298428  0.08547040  0.75625693  1
  Te  Te93  1  0.74687716  0.43312517  0.08561074  1
  Te  Te94  1  0.72086054  0.41316194  0.41642041  1
  Te  Te95  1  0.73710280  0.42889294  0.77233625  1
  Te  Te96  1  0.77064311  0.73289481  0.10016210  1
  Te  Te97  1  0.74673410  0.75499985  0.44571569  1
  Te  Te98  1  0.75427722  0.74620228  0.75500317  1
  Te  Te99  1  0.10244580  0.29217274  0.23412100  1
  Te  Te100  1  0.05237614  0.25687610  0.59260660  1
  Te  Te101  1  0.08698160  0.25672365  0.90272720  1
  Te  Te102  1  0.06763147  0.56596120  0.27646562  1
  Te  Te103  1  0.05571773  0.53645377  0.58751337  1
  Te  Te104  1  0.03513906  0.60457592  0.95031958  1
  Te  Te105  1  0.09773521  0.90765721  0.26290558  1
  Te  Te106  1  0.06934064  0.89426856  0.58055943  1
  Te  Te107  1  0.05335066  0.93598999  0.93427705  1
  Te  Te108  1  0.42489459  0.24866290  0.25584904  1
  Te  Te109  1  0.44370633  0.25810858  0.56807542  1
  Te  Te110  1  0.39501574  0.26504112  0.91755606  1
  Te  Te111  1  0.38915666  0.55409066  0.22486539  1
  Te  Te112  1  0.40706028  0.56056998  0.57108915  1
  Te  Te113  1  0.38984791  0.59079427  0.90800471  1
  Te  Te114  1  0.40244046  0.90478106  0.22093384  1
  Te  Te115  1  0.40258119  0.92375695  0.58213371  1
  Te  Te116  1  0.40534351  0.92719990  0.90467903  1
  Te  Te117  1  0.73091116  0.27554827  0.25199247  1
  Te  Te118  1  0.75040037  0.25275071  0.57773436  1
  Te  Te119  1  0.77689614  0.26285346  0.90697965  1
  Te  Te120  1  0.78007182  0.57591804  0.25189209  1
  Te  Te121  1  0.77103912  0.57449019  0.55562527  1
  Te  Te122  1  0.74278695  0.53666397  0.88276182  1
  Te  Te123  1  0.76433079  0.91410262  0.24427039  1
  Te  Te124  1  0.77561793  0.91776004  0.59086849  1
  Te  Te125  1  0.74217934  0.91893209  0.93381298  1
  Te  Te126  1  0.23559138  0.29542532  0.08653923  1
  Te  Te127  1  0.23787161  0.24405847  0.41621581  1
  Te  Te128  1  0.23293409  0.28126470  0.75436630  1
  Te  Te129  1  0.20736457  0.55094763  0.06064634  1
  Te  Te130  1  0.22139823  0.55916107  0.41927398  1
  Te  Te131  1  0.24583142  0.57191928  0.76750245  1
  Te  Te132  1  0.24649042  0.93645805  0.06543957  1
  Te  Te133  1  0.24249580  0.90904163  0.41556322  1
  Te  Te134  1  0.25406784  0.91352672  0.74432640  1
  Te  Te135  1  0.60484645  0.23597257  0.09363045  1
  Te  Te136  1  0.62539146  0.29645132  0.45949616  1
  Te  Te137  1  0.62852280  0.30145394  0.71954693  1
  Te  Te138  1  0.58739430  0.59579693  0.07866521  1
  Te  Te139  1  0.58426153  0.58723090  0.41183335  1
  Te  Te140  1  0.59040323  0.56028543  0.73796316  1
  Te  Te141  1  0.57377670  0.93163011  0.07936382  1
  Te  Te142  1  0.61075124  0.90049988  0.43882698  1
  Te  Te143  1  0.55526752  0.89715764  0.72871896  1
  Te  Te144  1  0.90129395  0.25580041  0.07695908  1
  Te  Te145  1  0.92256626  0.24768387  0.42493615  1
  Te  Te146  1  0.90149194  0.27970455  0.74554899  1
  Te  Te147  1  0.93360188  0.58658498  0.06920545  1
  Te  Te148  1  0.91290876  0.65922184  0.42175395  1
  Te  Te149  1  0.93779992  0.54525204  0.74307915  1
  Te  Te150  1  0.91495465  0.91485301  0.09007136  1
  Te  Te151  1  0.91963411  0.90566824  0.43206313  1
  Te  Te152  1  0.91605508  0.89475609  0.76182708  1
  Te  Te153  1  0.25178455  0.10083720  0.23940549  1
  Te  Te154  1  0.25245016  0.07988465  0.59014798  1
  Te  Te155  1  0.24996815  0.09075672  0.91730546  1
  Te  Te156  1  0.26196650  0.46620615  0.24446513  1
  Te  Te157  1  0.25062193  0.41286660  0.57755665  1
  Te  Te158  1  0.29303795  0.37450795  0.95831441  1
  Te  Te159  1  0.26942302  0.72927664  0.25687368  1
  Te  Te160  1  0.24717792  0.72070518  0.57821384  1
  Te  Te161  1  0.23020440  0.75192760  0.90682363  1
  Te  Te162  1  0.60368118  0.09527753  0.26051224  1
  Te  Te163  1  0.59602856  0.08741867  0.57337116  1
  Te  Te164  1  0.59411991  0.08769242  0.91940457  1
  Te  Te165  1  0.57524452  0.41093659  0.25484922  1
  Te  Te166  1  0.62403431  0.43118096  0.54246426  1
  Te  Te167  1  0.56646759  0.40472742  0.91848314  1
  Te  Te168  1  0.59695585  0.76024703  0.25679713  1
  Te  Te169  1  0.59051224  0.75269780  0.59089762  1
  Te  Te170  1  0.59608819  0.73649513  0.90997934  1
  Te  Te171  1  0.90529135  0.08828160  0.25048470  1
  Te  Te172  1  0.90358629  0.06762559  0.57655629  1
  Te  Te173  1  0.90906427  0.09332914  0.92572681  1
  Te  Te174  1  0.89340241  0.44306874  0.29380272  1
  Te  Te175  1  0.93631461  0.43340137  0.56646209  1
  Te  Te176  1  0.94313930  0.43129432  0.87255501  1
  Te  Te177  1  0.92541454  0.71748194  0.26682436  1
  Te  Te178  1  0.89661867  0.67934621  0.57357361  1
  Te  Te179  1  0.92986979  0.73173675  0.91466916  1
