# generated using pymatgen
data_In2Te3
_symmetry_space_group_name_H-M   'P 1'
_cell_length_a   18.80031734
_cell_length_b   18.79371799
_cell_length_c   18.79174342
_cell_angle_alpha   90.01746354
_cell_angle_beta   90.02492814
_cell_angle_gamma   90.00555199
_symmetry_Int_Tables_number   1
_chemical_formula_structural   In2Te3
_chemical_formula_sum   'In72 Te108'
_cell_volume   6639.64556196
_cell_formula_units_Z   36
loop_
 _symmetry_equiv_pos_site_id
 _symmetry_equiv_pos_as_xyz
  1  'x, y, z'
loop_
 _atom_site_type_symbol
 _atom_site_label
 _atom_site_symmetry_multiplicity
 _atom_site_fract_x
 _atom_site_fract_y
 _atom_site_fract_z
 _atom_site_occupancy
  In  In0  1  0.00657165  0.33118537  0.33678370  1
  In  In1  1  0.16045981  0.03074062  0.83437239  1
  In  In2  1  0.66425591  0.49933799  0.17322727  1
  In  In3  1  0.00091440  0.83968366  0.15647116  1
  In  In4  1  0.84326034  0.33098041  0.50402607  1
  In  In5  1  0.82740949  0.32873970  0.18641113  1
  In  In6  1  0.00401027  0.81295958  0.50541458  1
  In  In7  1  0.65255511  0.01111589  0.01065546  1
  In  In8  1  0.17114834  0.67879351  0.82029347  1
  In  In9  1  0.34050433  0.80598190  0.48401647  1
  In  In10  1  0.49680915  -0.00520759  0.47225005  1
  In  In11  1  0.50642054  0.83593061  0.01875412  1
  In  In12  1  -0.00938568  0.48795477  0.82662189  1
  In  In13  1  0.67127870  0.85485977  0.81581332  1
  In  In14  1  0.36540911  0.17146858  0.46665445  1
  In  In15  1  0.67074899  -0.00089384  0.66087681  1
  In  In16  1  0.81706729  0.18740355  0.00663695  1
  In  In17  1  0.66992640  0.48603473  0.82212128  1
  In  In18  1  0.18029462  0.84188589  0.02808467  1
  In  In19  1  -0.00953836  0.16843558  0.48362992  1
  In  In20  1  0.67968355  0.67787609  0.01276286  1
  In  In21  1  0.81029887  0.00948543  0.49413459  1
  In  In22  1  0.65403060  0.68989012  0.33590162  1
  In  In23  1  0.15918011  0.15401489  0.65206154  1
  In  In24  1  -0.01747143  0.82100319  0.84815918  1
  In  In25  1  -0.00278335  0.00103907  0.01473787  1
  In  In26  1  0.48745396  0.34936599  0.47071328  1
  In  In27  1  0.19370695  0.50979086  0.02104131  1
  In  In28  1  0.81130977  0.83687262  0.34935744  1
  In  In29  1  0.81187104  0.01517966  0.84649592  1
  In  In30  1  0.17252537  0.81326911  0.30310581  1
  In  In31  1  0.50039935  0.15694617  0.66332373  1
  In  In32  1  0.51918994  0.17422523  0.30890500  1
  In  In33  1  0.16635741  0.50920770  0.65573314  1
  In  In34  1  -0.00949027  0.16093062  0.16369234  1
  In  In35  1  0.21530676  0.80325463  0.64684183  1
  In  In36  1  0.66154644  -0.00190253  0.32720457  1
  In  In37  1  0.49362256  0.32887889  0.85011804  1
  In  In38  1  0.33029484  0.15656034  0.16509877  1
  In  In39  1  0.17304963  0.35229619  0.86151832  1
  In  In40  1  0.00035282  0.64205909  0.67533735  1
  In  In41  1  0.83028669  0.48201222  0.00551134  1
  In  In42  1  -0.00484391  -0.00154966  0.31166629  1
  In  In43  1  0.49169809  0.64952747  0.84726165  1
  In  In44  1  0.33334511  0.00096167  0.66491735  1
  In  In45  1  0.01515821  0.02228115  0.66281343  1
  In  In46  1  0.15849080  0.35439252  0.17177130  1
  In  In47  1  0.47710090  0.65525501  0.20305092  1
  In  In48  1  0.84433548  0.49130951  0.34139300  1
  In  In49  1  0.34929014  0.65399379  0.66302222  1
  In  In50  1  0.65958678  0.50550682  0.50786556  1
  In  In51  1  0.32759583  0.35268224  0.33669885  1
  In  In52  1  0.00630576  0.63492894  0.32697876  1
  In  In53  1  0.67013553  0.66437290  0.65013383  1
  In  In54  1  0.34659104  0.82692344  0.84618898  1
  In  In55  1  0.48113875  0.48882885  0.00905882  1
  In  In56  1  0.16158757  -0.02020267  0.47243072  1
  In  In57  1  0.67500980  0.15962289  0.84977374  1
  In  In58  1  0.18454069  0.34148100  0.49383706  1
  In  In59  1  0.16259614  0.17719172  -0.00548702  1
  In  In60  1  0.53220457  -0.01065728  0.86077426  1
  In  In61  1  0.49782774  0.66266761  0.49230852  1
  In  In62  1  0.65043319  0.31958099  0.30739360  1
  In  In63  1  0.68583420  0.34542004  0.65802308  1
  In  In64  1  0.82581535  0.84664722  0.66581996  1
  In  In65  1  -0.00272756  0.66619475  -0.00408229  1
  In  In66  1  0.35113642  0.83136459  0.17528166  1
  In  In67  1  0.18482278  0.51137221  0.34385747  1
  In  In68  1  0.34464718  0.18283413  0.86587732  1
  In  In69  1  0.32384271  0.35076053  0.68927028  1
  In  In70  1  0.84112304  0.68477828  0.15871616  1
  In  In71  1  -0.05035682  0.33733617  0.68482511  1
  Te  Te72  1  0.10056607  0.07874919  0.09466517  1
  Te  Te73  1  0.08753526  0.08895255  0.39698340  1
  Te  Te74  1  0.05623181  0.12955994  0.77079812  1
  Te  Te75  1  0.08495603  0.41825601  0.06068869  1
  Te  Te76  1  0.07988793  0.42937081  0.42610708  1
  Te  Te77  1  0.09362807  0.40029226  0.73576084  1
  Te  Te78  1  0.09235231  0.73522437  0.09363292  1
  Te  Te79  1  0.09281236  0.73780254  0.40843474  1
  Te  Te80  1  0.07815004  0.76775360  0.73866465  1
  Te  Te81  1  0.45415685  0.09238377  0.10594082  1
  Te  Te82  1  0.40672294  0.06007637  0.35695375  1
  Te  Te83  1  0.41728265  0.07931023  0.76610534  1
  Te  Te84  1  0.45284693  0.40196457  0.12451048  1
  Te  Te85  1  0.40951007  0.46141398  0.40595094  1
  Te  Te86  1  0.42437981  0.42690778  0.76371724  1
  Te  Te87  1  0.41729695  0.73025465  0.07840782  1
  Te  Te88  1  0.41988286  0.73060639  0.38320580  1
  Te  Te89  1  0.43091191  0.75435500  0.74433530  1
  Te  Te90  1  0.74077978  0.09648342  0.09620292  1
  Te  Te91  1  0.74303995  0.09941118  0.40042140  1
  Te  Te92  1  0.75604277  0.10182991  0.73318511  1
  Te  Te93  1  0.73097922  0.39523237  0.08567192  1
  Te  Te94  1  0.73503182  0.40565440  0.40631285  1
  Te  Te95  1  0.77786750  0.40699097  0.75603776  1
  Te  Te96  1  0.72857376  0.77229858  0.11609335  1
  Te  Te97  1  0.75757371  0.72922365  0.43332897  1
  Te  Te98  1  0.75693428  0.74592364  0.75763326  1
  Te  Te99  1  0.09150813  0.24115974  0.24901765  1
  Te  Te100  1  0.07995442  0.25780248  0.57152448  1
  Te  Te101  1  0.06983382  0.26955352  0.92617991  1
  Te  Te102  1  0.09999690  0.56702156  0.23477967  1
  Te  Te103  1  0.07837317  0.58468611  0.56474658  1
  Te  Te104  1  0.08927292  0.58146906  0.90548735  1
  Te  Te105  1  0.10346429  0.92757039  0.23021877  1
  Te  Te106  1  0.09807031  0.91100835  0.59287947  1
  Te  Te107  1  0.08777283  0.91392886  0.91494447  1
  Te  Te108  1  0.41204934  0.26307097  0.24533134  1
  Te  Te109  1  0.40632433  0.25396896  0.58965463  1
  Te  Te110  1  0.41270408  0.27199886  0.96686075  1
  Te  Te111  1  0.39304250  0.55961961  0.28204218  1
  Te  Te112  1  0.44093784  0.56531647  0.58995475  1
  Te  Te113  1  0.39167219  0.57722267  0.92817940  1
  Te  Te114  1  0.40535016  0.92375707  0.27754134  1
  Te  Te115  1  0.41303001  0.91090791  0.57111893  1
  Te  Te116  1  0.41421004  0.92894429  0.93687481  1
  Te  Te117  1  0.72296163  0.22591224  0.21608667  1
  Te  Te118  1  0.74911956  0.24251184  0.57475751  1
  Te  Te119  1  0.74409041  0.27444339  0.91095803  1
  Te  Te120  1  0.75957700  0.58973434  0.25204704  1
  Te  Te121  1  0.76299045  0.56177236  0.59590377  1
  Te  Te122  1  0.74775697  0.57919310  0.92023653  1
  Te  Te123  1  0.76120543  0.92276181  0.24285010  1
  Te  Te124  1  0.72784941  0.89893752  0.56072222  1
  Te  Te125  1  0.74596329  0.91212904  0.93604964  1
  Te  Te126  1  0.24981942  0.26251062  0.08598517  1
  Te  Te127  1  0.24399414  0.23871475  0.39863515  1
  Te  Te128  1  0.24857296  0.23428087  0.75637570  1
  Te  Te129  1  0.24730271  0.60532529  0.12003972  1
  Te  Te130  1  0.28097555  0.60443454  0.40898283  1
  Te  Te131  1  0.26051179  0.57286969  0.75871726  1
  Te  Te132  1  0.27409236  0.93165165  0.09527845  1
  Te  Te133  1  0.26372752  0.90252587  0.39059922  1
  Te  Te134  1  0.24594702  0.91845484  0.76115762  1
  Te  Te135  1  0.53019452  0.21765250  0.06247873  1
  Te  Te136  1  0.58613595  0.24373374  0.42775697  1
  Te  Te137  1  0.58512427  0.24864478  0.75077624  1
  Te  Te138  1  0.57661360  0.59370250  0.08741218  1
  Te  Te139  1  0.58295411  0.56956188  0.39458597  1
  Te  Te140  1  0.57918052  0.57953463  0.74402045  1
  Te  Te141  1  0.56925392  0.93458263  0.11149288  1
  Te  Te142  1  0.57498725  0.89750310  0.39510862  1
  Te  Te143  1  0.56187844  0.91728710  0.72917964  1
  Te  Te144  1  0.92323162  0.26938288  0.08252375  1
  Te  Te145  1  0.89549777  0.24143527  0.38893708  1
  Te  Te146  1  0.92212712  0.21253044  0.75131579  1
  Te  Te147  1  0.92083924  0.57354329  0.09079716  1
  Te  Te148  1  0.90762783  0.59178957  0.42826363  1
  Te  Te149  1  0.90160543  0.59100469  0.77026015  1
  Te  Te150  1  0.89912441  0.91433474  0.08110798  1
  Te  Te151  1  0.92971694  0.92555435  0.43301243  1
  Te  Te152  1  0.91615008  0.93535392  0.75578129  1
  Te  Te153  1  0.26999754  0.08789134  0.28138386  1
  Te  Te154  1  0.25713921  0.07935074  0.55708525  1
  Te  Te155  1  0.26366718  0.07434092  0.93797073  1
  Te  Te156  1  0.27138183  0.44257029  0.22578669  1
  Te  Te157  1  0.27321394  0.43623704  0.57132436  1
  Te  Te158  1  0.28006460  0.42416388  0.93368034  1
  Te  Te159  1  0.26121112  0.71760916  0.22935236  1
  Te  Te160  1  0.25125240  0.69029288  0.54277013  1
  Te  Te161  1  0.25249171  0.74355498  0.93180194  1
  Te  Te162  1  0.57484855  0.06668334  0.21919676  1
  Te  Te163  1  0.58596789  0.08197138  0.56268745  1
  Te  Te164  1  0.55589974  0.12138333  0.93826806  1
  Te  Te165  1  0.55542253  0.41685419  0.24001028  1
  Te  Te166  1  0.56618783  0.41195229  0.58622480  1
  Te  Te167  1  0.59189703  0.41396959  0.93132428  1
  Te  Te168  1  0.57944059  0.76020839  0.22994301  1
  Te  Te169  1  0.58626421  0.75412056  0.56924933  1
  Te  Te170  1  0.58440380  0.75846247  0.90789349  1
  Te  Te171  1  0.89511785  0.07976968  0.24172398  1
  Te  Te172  1  0.90475912  0.09335352  0.58419154  1
  Te  Te173  1  0.91316649  0.09413357  0.92815776  1
  Te  Te174  1  0.93546305  0.42439858  0.23923910  1
  Te  Te175  1  0.91671777  0.43412948  0.58032912  1
  Te  Te176  1  0.91033825  0.39770949  0.91214392  1
  Te  Te177  1  0.92726854  0.76144792  0.26772007  1
  Te  Te178  1  0.90569282  0.73960315  0.59197113  1
  Te  Te179  1  0.89008201  0.74779993  0.93497799  1
