# generated using pymatgen
data_In2Te3
_symmetry_space_group_name_H-M   'P 1'
_cell_length_a   18.87284002
_cell_length_b   18.87347923
_cell_length_c   18.88248196
_cell_angle_alpha   89.88055457
_cell_angle_beta   89.98876819
_cell_angle_gamma   90.06729498
_symmetry_Int_Tables_number   1
_chemical_formula_structural   In2Te3
_chemical_formula_sum   'In72 Te108'
_cell_volume   6725.84806495
_cell_formula_units_Z   36
loop_
 _symmetry_equiv_pos_site_id
 _symmetry_equiv_pos_as_xyz
  1  'x, y, z'
loop_
 _atom_site_type_symbol
 _atom_site_label
 _atom_site_symmetry_multiplicity
 _atom_site_fract_x
 _atom_site_fract_y
 _atom_site_fract_z
 _atom_site_occupancy
  In  In0  1  0.51210339  0.67208612  0.15077834  1
  In  In1  1  0.51883126  0.17554153  -0.01293908  1
  In  In2  1  0.68244620  0.85743909  0.48491138  1
  In  In3  1  0.50738423  0.32196190  0.14966990  1
  In  In4  1  0.51366368  0.33471683  0.80241927  1
  In  In5  1  0.83302138  0.47342972  0.36098139  1
  In  In6  1  0.01433510  0.48944815  0.19379387  1
  In  In7  1  0.35086295  0.49287613  0.85825517  1
  In  In8  1  0.35159318  -0.00008417  -0.01999001  1
  In  In9  1  -0.00176113  0.64978344  0.32545833  1
  In  In10  1  0.31277969  0.34749220  0.61329023  1
  In  In11  1  0.32855212  0.81865523  0.18026410  1
  In  In12  1  0.17963277  -0.00463618  0.17902605  1
  In  In13  1  0.80942730  0.68775379  0.82110797  1
  In  In14  1  0.65998935  0.01755194  0.63974468  1
  In  In15  1  0.86933694  0.34140480  0.84326229  1
  In  In16  1  0.00207833  0.18257194  0.19542144  1
  In  In17  1  0.83013124  0.65979956  0.17452579  1
  In  In18  1  0.14748839  0.48779304  0.02178314  1
  In  In19  1  0.01857263  0.03370933  0.34786353  1
  In  In20  1  -0.00560870  0.32164492  0.65643001  1
  In  In21  1  0.17036406  0.64770794  0.48346282  1
  In  In22  1  0.85721701  0.01506136  0.52137988  1
  In  In23  1  0.81947423  0.83689175  -0.00558070  1
  In  In24  1  0.84597660  0.17801854  0.32830045  1
  In  In25  1  -0.00139991  0.01497807  0.68430039  1
  In  In26  1  0.35962290  0.03598368  0.35876593  1
  In  In27  1  0.15222524  0.65484712  0.86884879  1
  In  In28  1  0.82491202  0.00646189  0.83525320  1
  In  In29  1  0.66510733  0.51103425  0.83274672  1
  In  In30  1  0.31646233  0.48101497  0.18743420  1
  In  In31  1  0.67850801  0.17883311  0.83030040  1
  In  In32  1  0.17175910  0.49479056  0.64866970  1
  In  In33  1  -0.00578978  -0.00210007  -0.00565357  1
  In  In34  1  0.52256647  0.83734777  0.65971959  1
  In  In35  1  0.66160209  0.67602380  -0.02249453  1
  In  In36  1  0.14025144  0.82227894  0.00757368  1
  In  In37  1  0.31418425  0.66180753  0.66126819  1
  In  In38  1  0.48618105  0.83740010  0.33348437  1
  In  In39  1  0.67292574  0.02054833  0.31822328  1
  In  In40  1  0.68924948  0.49215831  0.48924192  1
  In  In41  1  0.49310177  0.52172902  0.01663992  1
  In  In42  1  0.51602582  0.52972003  0.67877567  1
  In  In43  1  0.15364833  0.17498805  0.65210987  1
  In  In44  1  0.33434977  0.84034462  0.48570829  1
  In  In45  1  0.01243803  0.65379951  0.02985369  1
  In  In46  1  -0.00998253  0.82997830  0.52600097  1
  In  In47  1  0.34668874  0.00429211  0.65039926  1
  In  In48  1  0.14200420  0.85150807  0.67559496  1
  In  In49  1  0.30122954  0.30809764  0.35434947  1
  In  In50  1  0.53919384  -0.00882953  0.14050957  1
  In  In51  1  0.30732590  0.30055716  0.00361437  1
  In  In52  1  0.00349167  0.83327185  0.84407567  1
  In  In53  1  0.82576498  0.48940149  0.69699244  1
  In  In54  1  0.83067879  0.31981331  0.16219919  1
  In  In55  1  0.50748002  0.30247100  0.49981260  1
  In  In56  1  0.47600842  0.68170461  0.51093172  1
  In  In57  1  0.83687795  0.33621656  0.49638893  1
  In  In58  1  0.33742768  0.65178475  -0.00430378  1
  In  In59  1  0.33491258  0.15890329  0.80153286  1
  In  In60  1  0.66275208  0.30511713  0.64143704  1
  In  In61  1  0.13220685  0.31434807  0.82929136  1
  In  In62  1  0.16623637  0.18390763  0.00952543  1
  In  In63  1  0.67568126  0.33566433  0.00192348  1
  In  In64  1  0.82266866  0.85212405  0.31879456  1
  In  In65  1  0.81305076  0.01504884  0.11632562  1
  In  In66  1  0.17841008  0.83796517  0.33209170  1
  In  In67  1  0.84483973  0.66008252  0.51613479  1
  In  In68  1  0.32410602  0.18387469  0.15595435  1
  In  In69  1  0.50051816  0.47931210  0.31700648  1
  In  In70  1  0.34247074  0.85126154  0.81323306  1
  In  In71  1  0.64596778  0.66437709  0.32776156  1
  Te  Te72  1  0.08435967  0.08266452  0.09804945  1
  Te  Te73  1  0.11685555  0.12639672  0.40999326  1
  Te  Te74  1  0.09192361  0.09882692  0.76115975  1
  Te  Te75  1  0.07416985  0.38825420  0.10209203  1
  Te  Te76  1  0.02965425  0.36007642  0.39356605  1
  Te  Te77  1  0.07342313  0.42370463  0.74192673  1
  Te  Te78  1  0.09436973  0.73798398  0.11760173  1
  Te  Te79  1  0.07134791  0.75709576  0.41805883  1
  Te  Te80  1  0.08370791  0.73666524  0.75789473  1
  Te  Te81  1  0.42154134  0.09330175  0.08156817  1
  Te  Te82  1  0.44650146  0.11506037  0.45199716  1
  Te  Te83  1  0.43543851  0.06487521  0.75193453  1
  Te  Te84  1  0.39917469  0.41219183  0.07190491  1
  Te  Te85  1  0.42127722  0.39176911  0.41237958  1
  Te  Te86  1  0.40948492  0.42446319  0.73502454  1
  Te  Te87  1  0.41615215  0.75915008  0.07116497  1
  Te  Te88  1  0.39297512  0.73293843  0.39444192  1
  Te  Te89  1  0.41889704  0.74843469  0.73170475  1
  Te  Te90  1  0.70129715  0.09056474  0.05652939  1
  Te  Te91  1  0.76546045  0.08425567  0.42059806  1
  Te  Te92  1  0.75716688  0.09531580  0.72957229  1
  Te  Te93  1  0.76296300  0.42307071  0.08038871  1
  Te  Te94  1  0.72048927  0.37540330  0.40030046  1
  Te  Te95  1  0.72545687  0.39174453  0.75901199  1
  Te  Te96  1  0.74076003  0.74734257  0.09007252  1
  Te  Te97  1  0.76007997  0.74123883  0.40781161  1
  Te  Te98  1  0.69275882  0.76374919  0.77618081  1
  Te  Te99  1  0.08331655  0.24713191  0.30430614  1
  Te  Te100  1  0.10451616  0.28393253  0.56412875  1
  Te  Te101  1  0.05496700  0.24641664  0.93437287  1
  Te  Te102  1  0.10890662  0.56042770  0.28390718  1
  Te  Te103  1  0.08329847  0.59576710  0.58872496  1
  Te  Te104  1  0.04854803  0.55015384  0.91300373  1
  Te  Te105  1  0.07391986  0.92071871  0.25783568  1
  Te  Te106  1  0.08153453  0.94213202  0.57081036  1
  Te  Te107  1  0.10073855  0.93059234  0.90800329  1
  Te  Te108  1  0.41224968  0.26091206  0.25211498  1
  Te  Te109  1  0.41632076  0.24451485  0.60026165  1
  Te  Te110  1  0.41707540  0.25806931  0.90364693  1
  Te  Te111  1  0.42108651  0.58174333  0.23708663  1
  Te  Te112  1  0.39935014  0.56710993  0.57760231  1
  Te  Te113  1  0.44522645  0.60576070  0.89794505  1
  Te  Te114  1  0.40464948  0.93325788  0.24581172  1
  Te  Te115  1  0.43809947  0.91980892  0.56222329  1
  Te  Te116  1  0.44365783  0.91403537  0.90232419  1
  Te  Te117  1  0.73982482  0.23881597  0.24738621  1
  Te  Te118  1  0.76377303  0.22939499  0.56872538  1
  Te  Te119  1  0.77310616  0.24899633  0.92558413  1
  Te  Te120  1  0.75220290  0.57168176  0.27131587  1
  Te  Te121  1  0.74438394  0.57993617  0.59889381  1
  Te  Te122  1  0.76518463  0.57686565  0.92333804  1
  Te  Te123  1  0.73705487  0.92407059  0.21784256  1
  Te  Te124  1  0.76861565  0.91386021  0.59381319  1
  Te  Te125  1  0.73041865  0.92207409  0.91430651  1
  Te  Te126  1  0.21119829  0.28023656  0.12273678  1
  Te  Te127  1  0.24592222  0.20694820  0.45180010  1
  Te  Te128  1  0.25364583  0.27488407  0.74153037  1
  Te  Te129  1  0.24373342  0.58142074  0.09220594  1
  Te  Te130  1  0.27836987  0.55672195  0.44573975  1
  Te  Te131  1  0.24861632  0.57697278  0.77192710  1
  Te  Te132  1  0.25445657  0.91437344  0.07340462  1
  Te  Te133  1  0.24805241  0.94366959  0.41649277  1
  Te  Te134  1  0.24159444  0.94176400  0.74592638  1
  Te  Te135  1  0.61842972  0.22044498  0.09536009  1
  Te  Te136  1  0.58038565  0.20008532  0.42124641  1
  Te  Te137  1  0.56935893  0.21740096  0.72675824  1
  Te  Te138  1  0.61185501  0.57553682  0.09048031  1
  Te  Te139  1  0.56900793  0.57544228  0.42529670  1
  Te  Te140  1  0.60053898  0.62536598  0.75859351  1
  Te  Te141  1  0.58904229  0.90003149  0.03949910  1
  Te  Te142  1  0.57802645  0.93310110  0.40697850  1
  Te  Te143  1  0.61809402  0.91467573  0.74268577  1
  Te  Te144  1  0.91943032  0.23115012  0.08414538  1
  Te  Te145  1  0.93887756  0.24197656  0.43073689  1
  Te  Te146  1  0.90668896  0.24152584  0.74348672  1
  Te  Te147  1  0.91527645  0.56008627  0.09919076  1
  Te  Te148  1  0.93084184  0.56656576  0.43339886  1
  Te  Te149  1  0.90536800  0.59932019  0.75418744  1
  Te  Te150  1  0.92134157  0.90331928  0.08600608  1
  Te  Te151  1  0.91991736  0.92142837  0.41388714  1
  Te  Te152  1  0.91101958  0.90893903  0.75243210  1
  Te  Te153  1  0.25543897  0.09707563  0.26078961  1
  Te  Te154  1  0.25693497  0.09678129  0.57321497  1
  Te  Te155  1  0.25405031  0.09720780  0.91580227  1
  Te  Te156  1  0.22712353  0.42218213  0.28910501  1
  Te  Te157  1  0.22629626  0.43285320  0.51962064  1
  Te  Te158  1  0.23440687  0.41020602  0.91546404  1
  Te  Te159  1  0.24529190  0.72831256  0.26044382  1
  Te  Te160  1  0.23862162  0.76931584  0.58217437  1
  Te  Te161  1  0.25644043  0.75914166  0.91227716  1
  Te  Te162  1  0.55978489  0.08648861  0.24957210  1
  Te  Te163  1  0.57848621  0.09409934  0.53794047  1
  Te  Te164  1  0.60380313  0.07911351  0.91403054  1
  Te  Te165  1  0.59394608  0.41059661  0.22772945  1
  Te  Te166  1  0.58241461  0.42594821  0.58609709  1
  Te  Te167  1  0.56734474  0.41783193  0.92116614  1
  Te  Te168  1  0.58677112  0.77276384  0.23950029  1
  Te  Te169  1  0.60051904  0.74998899  0.56207138  1
  Te  Te170  1  0.56903052  0.78343129  0.93844428  1
  Te  Te171  1  0.90582619  0.06470840  0.23887878  1
  Te  Te172  1  0.94570109  0.11255876  0.58528679  1
  Te  Te173  1  0.91273851  0.09134253  0.91765632  1
  Te  Te174  1  0.92574523  0.39084322  0.27226487  1
  Te  Te175  1  0.91316660  0.43132045  0.58700519  1
  Te  Te176  1  0.95367862  0.42477100  0.92567776  1
  Te  Te177  1  0.92040293  0.75613386  0.24869928  1
  Te  Te178  1  0.90464514  0.75079547  0.61547929  1
  Te  Te179  1  0.92542053  0.73788554  0.93392898  1
