# generated using pymatgen
data_In2Te3
_symmetry_space_group_name_H-M   'P 1'
_cell_length_a   18.99675861
_cell_length_b   18.99407447
_cell_length_c   18.98280228
_cell_angle_alpha   90.07432151
_cell_angle_beta   90.15300467
_cell_angle_gamma   89.84932653
_symmetry_Int_Tables_number   1
_chemical_formula_structural   In2Te3
_chemical_formula_sum   'In72 Te108'
_cell_volume   6849.43191735
_cell_formula_units_Z   36
loop_
 _symmetry_equiv_pos_site_id
 _symmetry_equiv_pos_as_xyz
  1  'x, y, z'
loop_
 _atom_site_type_symbol
 _atom_site_label
 _atom_site_symmetry_multiplicity
 _atom_site_fract_x
 _atom_site_fract_y
 _atom_site_fract_z
 _atom_site_occupancy
  In  In0  1  0.32152112  0.64973181  0.68377866  1
  In  In1  1  0.82485390  0.83625452  0.00639927  1
  In  In2  1  0.14694386  0.64909526  0.49537413  1
  In  In3  1  0.67892198  0.82475126  0.49822297  1
  In  In4  1  0.66053530  -0.00171256  0.01381888  1
  In  In5  1  0.50691507  0.84842770  0.64093960  1
  In  In6  1  0.32295311  0.16447587  0.49292058  1
  In  In7  1  0.45781576  0.01449093  0.81791011  1
  In  In8  1  -0.02834129  0.83221411  0.49421778  1
  In  In9  1  0.82392498  0.33804255  0.84159721  1
  In  In10  1  0.32760044  0.34502184  0.66348662  1
  In  In11  1  -0.02369078  0.48854675  0.18923992  1
  In  In12  1  0.69807726  0.46106980  0.46714027  1
  In  In13  1  0.01063227  0.00834531  0.66328668  1
  In  In14  1  0.48475891  0.50672251  0.00301973  1
  In  In15  1  0.64499046  0.18646526  0.50365591  1
  In  In16  1  0.16761139  0.66343796  0.15536272  1
  In  In17  1  0.83688809  0.02897852  0.49373274  1
  In  In18  1  0.34911661  0.34299157  0.31802977  1
  In  In19  1  0.67907417  -0.01759695  0.69002117  1
  In  In20  1  0.01311509  0.02243461  0.35451447  1
  In  In21  1  0.80856839  0.51935550  0.02627414  1
  In  In22  1  0.17567129  0.84998190  0.30725356  1
  In  In23  1  0.16641484  0.02248897  0.15813281  1
  In  In24  1  -0.01488804  0.68620458  0.31750533  1
  In  In25  1  0.67676942  0.05111240  0.26045578  1
  In  In26  1  0.34560974  0.01636017  0.34047255  1
  In  In27  1  0.50550290  0.66257057  0.86574186  1
  In  In28  1  0.83369502  -0.03011389  0.17351145  1
  In  In29  1  0.17744676  0.32942605  0.51423503  1
  In  In30  1  0.83134585  0.18700561  0.01105934  1
  In  In31  1  0.52790675  0.82132994  0.31793864  1
  In  In32  1  0.81421017  0.65844806  0.48846115  1
  In  In33  1  0.33965332  0.83117155  0.16388248  1
  In  In34  1  0.82474234  0.01004182  0.84568257  1
  In  In35  1  0.34199185  0.16713526  0.16363089  1
  In  In36  1  0.85110257  0.80188157  0.67159486  1
  In  In37  1  0.67494815  0.33755652  0.65194545  1
  In  In38  1  0.64792862  0.48222416  0.17977098  1
  In  In39  1  0.02209599  0.33813234  0.66089095  1
  In  In40  1  0.35226295  0.81590871  0.84989114  1
  In  In41  1  0.81605468  0.65814030  0.83791029  1
  In  In42  1  0.49640966  0.16231071  0.00547253  1
  In  In43  1  0.37202293  0.48908671  0.17360338  1
  In  In44  1  0.66220417  0.67180103  0.31989198  1
  In  In45  1  0.83637761  0.48539560  0.66429035  1
  In  In46  1  0.68150296  0.16726849  0.83099535  1
  In  In47  1  0.81303497  0.67611188  0.16300959  1
  In  In48  1  0.50006375  0.33367206  0.87541623  1
  In  In49  1  0.00875374  0.50557743  0.50274637  1
  In  In50  1  0.20100805  0.31761789  0.84060568  1
  In  In51  1  0.16082303  0.83952518  0.68214351  1
  In  In52  1  -0.02588608  0.32048605  0.33130656  1
  In  In53  1  -0.00444885  0.15171798  0.16215833  1
  In  In54  1  0.02046812  0.51415321  0.83717097  1
  In  In55  1  0.48281165  0.01525010  0.49939015  1
  In  In56  1  0.19031035  0.49275367  0.34243702  1
  In  In57  1  0.18710540  0.49299922  -0.00435075  1
  In  In58  1  0.00580027  0.17077810  0.81462153  1
  In  In59  1  0.18035149  0.68139704  0.83889123  1
  In  In60  1  0.51167759  0.65775378  0.49396772  1
  In  In61  1  0.50124177  0.83052936  0.01783625  1
  In  In62  1  0.16746830  0.83644533  0.00102173  1
  In  In63  1  -0.00307059  0.82800368  0.84896690  1
  In  In64  1  0.48342614  0.16911666  0.67634326  1
  In  In65  1  0.20399195  0.02392251  0.86696575  1
  In  In66  1  -0.01445497  0.33218457  -0.00150826  1
  In  In67  1  0.49349873  0.51731170  0.68360332  1
  In  In68  1  0.78965129  0.19018953  0.31293087  1
  In  In69  1  0.49681790  0.35715247  0.46755109  1
  In  In70  1  0.34365877  0.82763782  0.50101329  1
  In  In71  1  0.15532640  0.30153967  0.14915525  1
  Te  Te72  1  0.08902286  0.10176528  0.06269812  1
  Te  Te73  1  0.09887216  0.08888858  0.45283996  1
  Te  Te74  1  0.10919452  0.07839514  0.75477091  1
  Te  Te75  1  0.07512672  0.42271270  0.08659368  1
  Te  Te76  1  0.07953540  0.40831918  0.40552761  1
  Te  Te77  1  0.10350010  0.41222153  0.76496020  1
  Te  Te78  1  0.08348149  0.76668097  0.09746764  1
  Te  Te79  1  0.08530578  0.76882539  0.40565566  1
  Te  Te80  1  0.07010636  0.73990870  0.74951691  1
  Te  Te81  1  0.42490124  0.06563555  0.09318642  1
  Te  Te82  1  0.44044518  0.11813157  0.39887321  1
  Te  Te83  1  0.36867838  0.09570393  0.73203091  1
  Te  Te84  1  0.44391843  0.39037797  0.09005165  1
  Te  Te85  1  0.39869294  0.45500377  0.40681523  1
  Te  Te86  1  0.42551072  0.40676871  0.76016874  1
  Te  Te87  1  0.42196218  0.73205297  0.09347984  1
  Te  Te88  1  0.42578038  0.74525452  0.40485707  1
  Te  Te89  1  0.42019823  0.75475272  0.72974304  1
  Te  Te90  1  0.76008998  0.08183598  0.09227171  1
  Te  Te91  1  0.71489934  0.08181442  0.40772613  1
  Te  Te92  1  0.77095593  0.09593852  0.73250183  1
  Te  Te93  1  0.74792086  0.40757716  0.09797969  1
  Te  Te94  1  0.79539958  0.37248026  0.40021218  1
  Te  Te95  1  0.73361246  0.42733628  0.75911547  1
  Te  Te96  1  0.72711324  0.73773990  0.05874649  1
  Te  Te97  1  0.76309313  0.76199467  0.39115001  1
  Te  Te98  1  0.74085560  0.74718374  0.74649709  1
  Te  Te99  1  0.07786307  0.23525231  0.26016117  1
  Te  Te100  1  0.08469706  0.23467852  0.57620306  1
  Te  Te101  1  0.08222983  0.25290753  0.91650824  1
  Te  Te102  1  0.08363002  0.57831503  0.25994048  1
  Te  Te103  1  0.10528423  0.55829033  0.60141754  1
  Te  Te104  1  0.09455073  0.59910366  0.93681238  1
  Te  Te105  1  0.07233869  0.93723928  0.24210413  1
  Te  Te106  1  0.07798685  0.90635517  0.57349140  1
  Te  Te107  1  0.08813005  0.92936287  0.91072395  1
  Te  Te108  1  0.43151410  0.27551221  0.21492657  1
  Te  Te109  1  0.42717215  0.26113575  0.56806845  1
  Te  Te110  1  0.40450163  0.22168026  0.90216239  1
  Te  Te111  1  0.44736385  0.53642486  0.28715605  1
  Te  Te112  1  0.40807956  0.58381184  0.57716144  1
  Te  Te113  1  0.39592683  0.57262180  0.90099637  1
  Te  Te114  1  0.42448391  0.91634295  0.25800581  1
  Te  Te115  1  0.39397439  0.93718671  0.59333285  1
  Te  Te116  1  0.41425137  0.92651528  0.93235965  1
  Te  Te117  1  0.70410051  0.26668578  0.21458165  1
  Te  Te118  1  0.75665608  0.24495206  0.57623122  1
  Te  Te119  1  0.72749922  0.26768050  0.93466711  1
  Te  Te120  1  0.75299364  0.57253613  0.25355983  1
  Te  Te121  1  0.73962854  0.56333586  0.57698873  1
  Te  Te122  1  0.72543836  0.57658435  0.92049882  1
  Te  Te123  1  0.71187967  0.90947785  0.23286572  1
  Te  Te124  1  0.76806465  0.91423024  0.58307741  1
  Te  Te125  1  0.73174886  0.91268504  0.90852026  1
  Te  Te126  1  0.25039423  0.22829695  0.05984746  1
  Te  Te127  1  0.25248325  0.26146343  0.40056124  1
  Te  Te128  1  0.25349883  0.23650221  0.72841852  1
  Te  Te129  1  0.27207961  0.57446765  0.09176126  1
  Te  Te130  1  0.25518357  0.60702206  0.40722412  1
  Te  Te131  1  0.26511099  0.56808774  0.79243320  1
  Te  Te132  1  0.25730359  0.92854107  0.08126682  1
  Te  Te133  1  0.25553807  0.91987362  0.41602837  1
  Te  Te134  1  0.25479787  0.90851822  0.77544776  1
  Te  Te135  1  0.60467271  0.20745218  0.10029725  1
  Te  Te136  1  0.58696177  0.26557163  0.38998360  1
  Te  Te137  1  0.58407455  0.25547135  0.75175437  1
  Te  Te138  1  0.56459071  0.58121908  0.10651657  1
  Te  Te139  1  0.60234722  0.56828962  0.41322295  1
  Te  Te140  1  0.58586183  0.59778355  0.76153815  1
  Te  Te141  1  0.59463258  0.90608057  0.10736338  1
  Te  Te142  1  0.57545747  0.91239119  0.43119782  1
  Te  Te143  1  0.56572261  0.91549266  0.76323808  1
  Te  Te144  1  0.90998324  0.26866640  0.11134074  1
  Te  Te145  1  0.89030398  0.23257494  0.41687996  1
  Te  Te146  1  0.91206799  0.26631399  0.74330615  1
  Te  Te147  1  0.92359715  0.59153330  0.09320808  1
  Te  Te148  1  0.91757636  0.58407678  0.40666706  1
  Te  Te149  1  0.91786423  0.58071279  0.74806213  1
  Te  Te150  1  0.91849457  0.93425748  0.06104440  1
  Te  Te151  1  0.90047522  0.92641084  0.40201013  1
  Te  Te152  1  0.91282666  0.92077393  0.75445238  1
  Te  Te153  1  0.24535224  0.09855569  0.26293447  1
  Te  Te154  1  0.22611753  0.06729156  0.53776427  1
  Te  Te155  1  0.28320960  0.12718654  0.93625283  1
  Te  Te156  1  0.23875728  0.40589800  0.22392848  1
  Te  Te157  1  0.25103619  0.43794733  0.57927985  1
  Te  Te158  1  0.27329633  0.38564769  0.94900572  1
  Te  Te159  1  0.25913902  0.73692021  0.25313467  1
  Te  Te160  1  0.24460862  0.74925317  0.58789691  1
  Te  Te161  1  0.26954812  0.73807673  0.94778045  1
  Te  Te162  1  0.55427001  0.10431909  0.19830266  1
  Te  Te163  1  0.58734292  0.07357573  0.60213227  1
  Te  Te164  1  0.58031365  0.07921713  0.89922920  1
  Te  Te165  1  0.60991581  0.37470007  0.27733722  1
  Te  Te166  1  0.57799326  0.42677901  0.57631896  1
  Te  Te167  1  0.58958316  0.43246727  0.92997244  1
  Te  Te168  1  0.55881445  0.71249763  0.22054782  1
  Te  Te169  1  0.59802079  0.73749209  0.59070241  1
  Te  Te170  1  0.59912806  0.74461150  0.94533485  1
  Te  Te171  1  0.90164474  0.08504631  0.26230258  1
  Te  Te172  1  0.92704934  0.09878184  0.58370544  1
  Te  Te173  1  0.91812103  0.10209916  0.91912352  1
  Te  Te174  1  0.87551447  0.41466614  0.26926775  1
  Te  Te175  1  0.91890647  0.40357540  0.56873851  1
  Te  Te176  1  0.91209830  0.43834299  0.91702355  1
  Te  Te177  1  0.90500439  0.77002321  0.23004372  1
  Te  Te178  1  0.92757068  0.71378463  0.57646708  1
  Te  Te179  1  0.91238386  0.73562093  0.92854939  1
