# generated using pymatgen
data_In2Te3
_symmetry_space_group_name_H-M   'P 1'
_cell_length_a   18.93297819
_cell_length_b   18.92569747
_cell_length_c   18.92754324
_cell_angle_alpha   90.26724208
_cell_angle_beta   90.21174592
_cell_angle_gamma   89.81926980
_symmetry_Int_Tables_number   1
_chemical_formula_structural   In2Te3
_chemical_formula_sum   'In72 Te108'
_cell_volume   6781.96037702
_cell_formula_units_Z   36
loop_
 _symmetry_equiv_pos_site_id
 _symmetry_equiv_pos_as_xyz
  1  'x, y, z'
loop_
 _atom_site_type_symbol
 _atom_site_label
 _atom_site_symmetry_multiplicity
 _atom_site_fract_x
 _atom_site_fract_y
 _atom_site_fract_z
 _atom_site_occupancy
  In  In0  1  0.80599733  0.00817091  0.47361255  1
  In  In1  1  0.66298621  0.17062661  0.17051854  1
  In  In2  1  0.35389084  0.16310051  0.83228301  1
  In  In3  1  0.15717508  0.84444978  0.00145432  1
  In  In4  1  0.51613716  0.16606930  0.01085991  1
  In  In5  1  0.51682314  0.72991611  0.40420605  1
  In  In6  1  0.53401214  0.85080325  0.00881051  1
  In  In7  1  0.11506944  0.29707512  0.48012926  1
  In  In8  1  0.32840442  0.81946959  0.84324063  1
  In  In9  1  0.66040950  0.50225333  0.14956428  1
  In  In10  1  0.80931734  0.49647088  0.31295728  1
  In  In11  1  0.41113350  0.82544376  0.20682897  1
  In  In12  1  0.16066365  0.51620788  0.68068041  1
  In  In13  1  0.17952749  0.68830870  0.48356726  1
  In  In14  1  0.69718940  0.28549680  0.72754908  1
  In  In15  1  0.83107713  0.68968919  0.86040453  1
  In  In16  1  0.17050457  0.31105236  0.13232667  1
  In  In17  1  0.35733631  0.17641030  0.14850894  1
  In  In18  1  0.83426035  0.69919954  0.12154437  1
  In  In19  1  0.15288995  0.14946254  0.33197161  1
  In  In20  1  0.65517815  0.49029735  0.86192788  1
  In  In21  1  0.51673908  0.85051446  0.63964965  1
  In  In22  1  0.67912287  -0.00253217  0.03595938  1
  In  In23  1  0.35585862  0.31350584  0.31706707  1
  In  In24  1  0.67402509  0.00451032  0.66242851  1
  In  In25  1  0.49692969  0.33453817  0.48797664  1
  In  In26  1  0.16623290  0.47977692  0.32073305  1
  In  In27  1  0.35839037  0.66574597  0.65331790  1
  In  In28  1  0.16296362  0.34185810  0.82863970  1
  In  In29  1  0.48344178  -0.01359387  0.46429900  1
  In  In30  1  0.35294806  0.67204845  0.28280548  1
  In  In31  1  0.32327157  0.46294167  0.50898574  1
  In  In32  1  -0.01676283  0.32974171  0.02470683  1
  In  In33  1  -0.03825128  0.31448357  0.34130962  1
  In  In34  1  0.32511043  0.34288352  0.68725868  1
  In  In35  1  0.65730325  0.52259102  0.47838946  1
  In  In36  1  0.67931934  0.67132039  0.69412357  1
  In  In37  1  0.85230009  0.46692516  0.64599681  1
  In  In38  1  0.66318011  0.34058499  0.32223071  1
  In  In39  1  -0.03613186  0.48959474  0.54001937  1
  In  In40  1  -0.01871498  0.16132809  0.17699427  1
  In  In41  1  -0.02455760  0.49998110  0.86266585  1
  In  In42  1  0.66802733  0.82150434  0.49320917  1
  In  In43  1  -0.00289977  0.85417252  0.15225677  1
  In  In44  1  0.83018307  0.14164325  0.66663130  1
  In  In45  1  0.01851340  0.29384429  0.65818806  1
  In  In46  1  0.30686270  0.14825923  0.51198648  1
  In  In47  1  0.34629980  0.02661712  -0.00185812  1
  In  In48  1  0.01143065  0.85159532  0.49718875  1
  In  In49  1  0.51926896  0.67571308  0.86214133  1
  In  In50  1  0.50823722  0.01659322  0.81998200  1
  In  In51  1  0.00798171  0.66500745  0.68565794  1
  In  In52  1  0.51483629  0.17448117  0.31468178  1
  In  In53  1  0.32860706  0.88211543  0.42719168  1
  In  In54  1  0.15177645  -0.01281685  0.83764251  1
  In  In55  1  0.00111387  0.67948621  0.35407443  1
  In  In56  1  -0.03399089  0.02267235  0.01736817  1
  In  In57  1  0.51607217  0.16158075  0.64754434  1
  In  In58  1  0.50220583  0.50188684  0.01610174  1
  In  In59  1  -0.02031986  0.16201639  0.85432551  1
  In  In60  1  0.84296202  0.68607383  0.50295825  1
  In  In61  1  0.00788314  0.49446393  0.18739026  1
  In  In62  1  0.48787594  0.47747349  0.66427822  1
  In  In63  1  0.16027836  0.00899204  0.16074526  1
  In  In64  1  0.13957753  0.84300361  0.68480127  1
  In  In65  1  0.82123046  0.48524032  0.01228114  1
  In  In66  1  0.25724506  0.49906308  0.05766582  1
  In  In67  1  0.18161555  0.67997874  0.81661799  1
  In  In68  1  0.01475447  0.67618023  -0.00850523  1
  In  In69  1  0.80333275  0.84929545  0.30292995  1
  In  In70  1  -0.03811635  -0.02058009  0.69788981  1
  In  In71  1  0.37676858  0.48219042  0.85083085  1
  Te  Te72  1  0.08076037  0.10479448  0.07428266  1
  Te  Te73  1  0.08644483  0.03771323  0.39938950  1
  Te  Te74  1  0.06151741  0.07758930  0.75535062  1
  Te  Te75  1  0.09055767  0.43294314  0.07427216  1
  Te  Te76  1  0.05827685  0.42042024  0.41260622  1
  Te  Te77  1  0.05521657  0.42378816  0.74724039  1
  Te  Te78  1  0.09376558  0.74826853  0.10020152  1
  Te  Te79  1  0.10496720  0.78480074  0.39498862  1
  Te  Te80  1  0.05868487  0.76698683  0.78710503  1
  Te  Te81  1  0.44959133  0.06335152  0.10242000  1
  Te  Te82  1  0.41258197  0.11237579  0.41243235  1
  Te  Te83  1  0.41030565  0.07560036  0.72040215  1
  Te  Te84  1  0.38906172  0.43541901  0.08816425  1
  Te  Te85  1  0.42049824  0.42702449  0.39537610  1
  Te  Te86  1  0.44918782  0.37556973  0.76891601  1
  Te  Te87  1  0.44947841  0.75616418  0.08207522  1
  Te  Te88  1  0.36992714  0.73445595  0.42807257  1
  Te  Te89  1  0.43356432  0.75735838  0.74981635  1
  Te  Te90  1  0.76664339  0.11058638  0.08053467  1
  Te  Te91  1  0.78410537  0.12068261  0.37556026  1
  Te  Te92  1  0.76218184  0.05925535  0.77460709  1
  Te  Te93  1  0.73540107  0.39008764  0.08425894  1
  Te  Te94  1  0.75263548  0.41501249  0.42651179  1
  Te  Te95  1  0.74057707  0.43680372  0.74957710  1
  Te  Te96  1  0.71783013  0.78328113  0.08670930  1
  Te  Te97  1  0.75078961  0.73842451  0.39507536  1
  Te  Te98  1  0.77260666  0.77103441  0.75010916  1
  Te  Te99  1  0.07969452  0.26434980  0.24631294  1
  Te  Te100  1  0.09497952  0.19183101  0.58057134  1
  Te  Te101  1  0.07501848  0.26151644  0.92256143  1
  Te  Te102  1  0.09196169  0.59908595  0.25926580  1
  Te  Te103  1  0.08105216  0.59590272  0.56933466  1
  Te  Te104  1  0.09610994  0.58400896  0.90165073  1
  Te  Te105  1  0.06753392  0.93917671  0.25206359  1
  Te  Te106  1  0.11211518  0.93855151  0.57239316  1
  Te  Te107  1  0.05118669  0.92537188  0.93106344  1
  Te  Te108  1  0.45690215  0.27123098  0.21302184  1
  Te  Te109  1  0.40352190  0.25891207  0.58221754  1
  Te  Te110  1  0.40895579  0.24584948  0.94198828  1
  Te  Te111  1  0.40484501  0.55377396  0.20716931  1
  Te  Te112  1  0.42518109  0.56701809  0.55914448  1
  Te  Te113  1  0.41057939  0.60336994  0.93446779  1
  Te  Te114  1  0.42687061  0.92584332  0.31871114  1
  Te  Te115  1  0.39965005  0.90733424  0.56602463  1
  Te  Te116  1  0.42058242  0.92281442  0.91040471  1
  Te  Te117  1  0.75823993  0.24117393  0.26490851  1
  Te  Te118  1  0.73520789  0.22838170  0.59678123  1
  Te  Te119  1  0.76463518  0.29095330  0.85887175  1
  Te  Te120  1  0.76224238  0.60044106  0.21672481  1
  Te  Te121  1  0.75684674  0.58949676  0.58242189  1
  Te  Te122  1  0.74238661  0.59094618  0.93555603  1
  Te  Te123  1  0.72061202  0.95234888  0.23506517  1
  Te  Te124  1  0.75736180  0.90777329  0.57821762  1
  Te  Te125  1  0.77830433  0.88981277  0.99538824  1
  Te  Te126  1  0.27170242  0.24465201  0.04753284  1
  Te  Te127  1  0.24514423  0.25996626  0.41240922  1
  Te  Te128  1  0.24072212  0.23661694  0.75101342  1
  Te  Te129  1  0.27920429  0.61519748  0.15109260  1
  Te  Te130  1  0.24275098  0.56198639  0.42406894  1
  Te  Te131  1  0.28647237  0.56961562  0.75033687  1
  Te  Te132  1  0.25932348  0.92824009  0.07632139  1
  Te  Te133  1  0.22717668  0.98986332  0.38400446  1
  Te  Te134  1  0.25584682  0.91672161  0.75242479  1
  Te  Te135  1  0.61103480  0.26754504  0.06676071  1
  Te  Te136  1  0.59651736  0.24269006  0.42306270  1
  Te  Te137  1  0.57490882  0.21314799  0.77096225  1
  Te  Te138  1  0.58306023  0.60722883  0.07958722  1
  Te  Te139  1  0.58410708  0.59329712  0.36668961  1
  Te  Te140  1  0.56780121  0.57571595  0.74965568  1
  Te  Te141  1  0.61020741  0.89987667  0.13752336  1
  Te  Te142  1  0.58696203  0.89939897  0.39620176  1
  Te  Te143  1  0.59605161  0.91042567  0.75431231  1
  Te  Te144  1  0.88974136  0.22952322  0.07896710  1
  Te  Te145  1  0.93418963  0.18418825  0.40555134  1
  Te  Te146  1  0.90912953  0.24872161  0.75111671  1
  Te  Te147  1  0.92961906  0.57843350  0.07939248  1
  Te  Te148  1  0.90859154  0.57370625  0.41247189  1
  Te  Te149  1  0.90220598  0.58544868  0.75880258  1
  Te  Te150  1  0.88276185  0.94102070  0.11156677  1
  Te  Te151  1  0.90019378  0.90755077  0.40629072  1
  Te  Te152  1  0.85304437  0.93197908  0.78172225  1
  Te  Te153  1  0.26283800  0.09882423  0.23610596  1
  Te  Te154  1  0.21305245  0.05922234  0.57703207  1
  Te  Te155  1  0.24072895  0.08763786  0.90792467  1
  Te  Te156  1  0.25314211  0.39119392  0.23468949  1
  Te  Te157  1  0.21271254  0.40090754  0.59338030  1
  Te  Te158  1  0.25108646  0.42951793  0.91710244  1
  Te  Te159  1  0.27173335  0.78853729  0.24002280  1
  Te  Te160  1  0.23698300  0.74690777  0.61072864  1
  Te  Te161  1  0.24969344  0.73742861  0.94198416  1
  Te  Te162  1  0.60245484  0.06708889  0.26086179  1
  Te  Te163  1  0.58525579  0.06377119  0.55546656  1
  Te  Te164  1  0.60125770  0.07336414  0.92504917  1
  Te  Te165  1  0.57651267  0.43546208  0.25175532  1
  Te  Te166  1  0.59261866  0.41824175  0.57252683  1
  Te  Te167  1  0.57736658  0.39653495  0.94132794  1
  Te  Te168  1  0.56598787  0.71350353  0.26880136  1
  Te  Te169  1  0.58577666  0.72798858  0.58243666  1
  Te  Te170  1  0.61449941  0.77511635  0.91037303  1
  Te  Te171  1  0.91089267  0.08833798  0.28593061  1
  Te  Te172  1  0.91567238  0.05524159  0.57561782  1
  Te  Te173  1  0.87400840  0.07707856  0.91292804  1
  Te  Te174  1  0.89813923  0.40115378  0.23297181  1
  Te  Te175  1  0.91044226  0.34873666  0.56498225  1
  Te  Te176  1  0.88363793  0.38627001  0.91091032  1
  Te  Te177  1  0.91845550  0.74925675  0.24597219  1
  Te  Te178  1  0.93347738  0.76568550  0.59553869  1
  Te  Te179  1  0.90771852  0.77403472  0.95667895  1
