# generated using pymatgen
data_In2Te3
_symmetry_space_group_name_H-M   'P 1'
_cell_length_a   18.88335364
_cell_length_b   18.88710103
_cell_length_c   18.87755626
_cell_angle_alpha   90.14432572
_cell_angle_beta   89.98819439
_cell_angle_gamma   89.96239970
_symmetry_Int_Tables_number   1
_chemical_formula_structural   In2Te3
_chemical_formula_sum   'In72 Te108'
_cell_volume   6732.69161515
_cell_formula_units_Z   36
loop_
 _symmetry_equiv_pos_site_id
 _symmetry_equiv_pos_as_xyz
  1  'x, y, z'
loop_
 _atom_site_type_symbol
 _atom_site_label
 _atom_site_symmetry_multiplicity
 _atom_site_fract_x
 _atom_site_fract_y
 _atom_site_fract_z
 _atom_site_occupancy
  In  In0  1  0.66622429  0.31573643  -0.00060312  1
  In  In1  1  0.35440854  0.70313253  0.64613432  1
  In  In2  1  0.16790121  0.48292507  0.02401763  1
  In  In3  1  -0.01136519  0.67208420  0.67100412  1
  In  In4  1  0.49081591  0.83424665  0.67634788  1
  In  In5  1  0.17102589  0.67248245  0.81258882  1
  In  In6  1  -0.01121947  0.16215352  0.16281713  1
  In  In7  1  0.67873798  0.16765642  0.82294094  1
  In  In8  1  0.16022820  0.33551176  0.50156573  1
  In  In9  1  0.17023215  0.49615915  0.68577397  1
  In  In10  1  0.34231385  0.33585568  0.01348714  1
  In  In11  1  0.83053252  0.32990163  0.84344146  1
  In  In12  1  0.51304570  0.17616070  0.33860172  1
  In  In13  1  0.67680032  0.00962952  0.00654471  1
  In  In14  1  0.51020223  0.66126040  0.48277262  1
  In  In15  1  0.15529993  0.83153986  -0.00125831  1
  In  In16  1  -0.01985419  0.65980774  0.00487452  1
  In  In17  1  0.68575636  0.50010250  0.18823107  1
  In  In18  1  0.82798547  0.18925298  0.64817323  1
  In  In19  1  0.50937651  0.17841320  0.65009166  1
  In  In20  1  0.14965542  0.85070904  0.67804767  1
  In  In21  1  0.32441932  0.15023846  0.16045090  1
  In  In22  1  0.15006384  0.31645737  0.16264818  1
  In  In23  1  0.34810178  0.34032141  0.33818215  1
  In  In24  1  0.34199734  0.83648083  0.15669419  1
  In  In25  1  -0.03333869  0.50244695  0.48820889  1
  In  In26  1  0.17933132  0.50343720  0.34810355  1
  In  In27  1  0.83488090  0.33135490  0.17606941  1
  In  In28  1  0.34650800  0.49296743  0.48270381  1
  In  In29  1  0.14564073  0.15222633  0.70408338  1
  In  In30  1  0.16214974  0.83705579  0.34011600  1
  In  In31  1  0.84353982  0.82472180  0.00499668  1
  In  In32  1  -0.00761330  0.52747684  0.83441476  1
  In  In33  1  0.66322600  0.51810819  0.83255241  1
  In  In34  1  0.00606132  0.67374181  0.31760308  1
  In  In35  1  0.83018678  0.01181038  0.48997206  1
  In  In36  1  0.16920645  0.64078002  0.47518073  1
  In  In37  1  -0.01793758  0.34523158  0.66053867  1
  In  In38  1  0.36015988  0.49317429  0.85474881  1
  In  In39  1  0.66925893  0.33155709  0.31294217  1
  In  In40  1  0.82837579  0.82566395  0.69058802  1
  In  In41  1  0.66233253  0.84675121  0.47635530  1
  In  In42  1  -0.03252751  0.20198335  0.46976654  1
  In  In43  1  0.15294701  -0.00684686  0.51126485  1
  In  In44  1  -0.00531243  0.00330345  0.32660129  1
  In  In45  1  0.34712493  0.82330448  0.51298295  1
  In  In46  1  0.82704133  0.52172738  -0.02418483  1
  In  In47  1  0.50805897  0.17533599  0.00255398  1
  In  In48  1  0.68805070  0.66396669  0.32081622  1
  In  In49  1  0.17891320  0.65068525  0.15576481  1
  In  In50  1  0.16796132  0.16189826  0.30192506  1
  In  In51  1  0.32777552  -0.01889291  0.65859280  1
  In  In52  1  0.49905931  -0.04726475  0.84095144  1
  In  In53  1  0.67854156  0.66023717  0.67248347  1
  In  In54  1  0.85089245  -0.00472087  0.86346352  1
  In  In55  1  0.35996038  0.32384941  0.68929735  1
  In  In56  1  0.66937125  0.01707058  0.34237683  1
  In  In57  1  0.83502121  0.81717206  0.33105119  1
  In  In58  1  0.67299681  0.34112633  0.65182423  1
  In  In59  1  0.16150875  0.00462312  0.16620711  1
  In  In60  1  0.15133639  -0.00718214  0.84668238  1
  In  In61  1  0.67008834  0.82669854  0.16121894  1
  In  In62  1  0.12457306  0.29070317  0.88076147  1
  In  In63  1  0.84512683  0.00269385  0.14373665  1
  In  In64  1  0.33750020  0.66297262  0.00751318  1
  In  In65  1  0.64816517  0.01788126  0.66042758  1
  In  In66  1  0.35650771  0.16373982  0.50199386  1
  In  In67  1  0.52041959  0.49251198  0.02291668  1
  In  In68  1  0.33855787  0.15370072  0.83672917  1
  In  In69  1  0.68755799  0.49946020  0.50178539  1
  In  In70  1  0.49967690  0.64069387  0.18999457  1
  In  In71  1  0.48613483  -0.00258935  0.16784190  1
  Te  Te72  1  0.09032514  0.09721309  0.07427506  1
  Te  Te73  1  0.08311062  0.09227716  0.41616418  1
  Te  Te74  1  0.05065042  0.05292022  0.75405420  1
  Te  Te75  1  0.05993427  0.40615343  0.08698736  1
  Te  Te76  1  0.07068865  0.41612076  0.41210240  1
  Te  Te77  1  0.07697247  0.40782761  0.76453806  1
  Te  Te78  1  0.07608031  0.74207011  0.09180785  1
  Te  Te79  1  0.07412372  0.75240942  0.43040796  1
  Te  Te80  1  0.06041994  0.76534634  0.76977878  1
  Te  Te81  1  0.40974097  0.07487575  0.05928908  1
  Te  Te82  1  0.41930447  0.07984260  0.40145959  1
  Te  Te83  1  0.42218997  0.08034296  0.73347856  1
  Te  Te84  1  0.42946285  0.41009397  0.10569970  1
  Te  Te85  1  0.44899467  0.42885606  0.39780437  1
  Te  Te86  1  0.43844587  0.43356642  0.74495965  1
  Te  Te87  1  0.43898048  0.74077565  0.08919530  1
  Te  Te88  1  0.42077421  0.75246251  0.40784697  1
  Te  Te89  1  0.42015513  0.74596743  0.77266142  1
  Te  Te90  1  0.74397703  0.10285207  0.10132247  1
  Te  Te91  1  0.75006349  0.11349321  0.42035506  1
  Te  Te92  1  0.76635013  0.07453521  0.74076078  1
  Te  Te93  1  0.75307308  0.42057884  0.06849280  1
  Te  Te94  1  0.76905839  0.42032873  0.39369744  1
  Te  Te95  1  0.75475775  0.42268198  0.75303841  1
  Te  Te96  1  0.75945568  0.73667478  0.08861115  1
  Te  Te97  1  0.75811114  0.73705302  0.43544262  1
  Te  Te98  1  0.75522495  0.73211646  0.78044448  1
  Te  Te99  1  0.05715320  0.25695511  0.26774739  1
  Te  Te100  1  0.07710406  0.24433335  0.58982594  1
  Te  Te101  1  0.03536356  0.18693966  0.93731214  1
  Te  Te102  1  0.08731272  0.56689114  0.24348094  1
  Te  Te103  1  0.08359824  0.56494535  0.58201714  1
  Te  Te104  1  0.10876508  0.58640851  0.92322687  1
  Te  Te105  1  0.07134523  0.90615820  0.23871851  1
  Te  Te106  1  0.05536042  0.91682305  0.58775138  1
  Te  Te107  1  0.05461449  0.92239697  0.93751302  1
  Te  Te108  1  0.41295049  0.24325001  0.24041084  1
  Te  Te109  1  0.43260645  0.27949386  0.56284031  1
  Te  Te110  1  0.42287117  0.25996750  0.90778262  1
  Te  Te111  1  0.39517601  0.58069716  0.27089622  1
  Te  Te112  1  0.42239955  0.58336001  0.58053329  1
  Te  Te113  1  0.44822374  0.59131072  0.92978402  1
  Te  Te114  1  0.42029457  0.90509639  0.26174503  1
  Te  Te115  1  0.44052456  0.93130471  0.57069359  1
  Te  Te116  1  0.40940028  0.89668562  0.94232672  1
  Te  Te117  1  0.73078192  0.23342261  0.21693259  1
  Te  Te118  1  0.72810947  0.24195629  0.55363042  1
  Te  Te119  1  0.76929195  0.22081686  0.93332509  1
  Te  Te120  1  0.79194111  0.58515226  0.24968981  1
  Te  Te121  1  0.77456208  0.58033398  0.59189342  1
  Te  Te122  1  0.74317575  0.62239328  0.90543414  1
  Te  Te123  1  0.75663939  0.92213824  0.24825348  1
  Te  Te124  1  0.74623741  0.92077332  0.58046993  1
  Te  Te125  1  0.74325419  0.90544721  0.91847167  1
  Te  Te126  1  0.23976637  0.23738249  0.06864830  1
  Te  Te127  1  0.24615219  0.24347569  0.41362516  1
  Te  Te128  1  0.24210046  0.25688639  0.76061027  1
  Te  Te129  1  0.28094193  0.55367564  0.09729698  1
  Te  Te130  1  0.29285100  0.60760036  0.38700627  1
  Te  Te131  1  0.27743942  0.58296151  0.74859017  1
  Te  Te132  1  0.25088395  0.92461229  0.07235622  1
  Te  Te133  1  0.25535054  0.91722999  0.42982813  1
  Te  Te134  1  0.25816862  0.90737401  0.76743749  1
  Te  Te135  1  0.57274552  0.26347998  0.10030560  1
  Te  Te136  1  0.59892728  0.26154463  0.42387421  1
  Te  Te137  1  0.58513327  0.26199801  0.75262149  1
  Te  Te138  1  0.61007359  0.59301028  0.09245050  1
  Te  Te139  1  0.59790295  0.57017696  0.39889414  1
  Te  Te140  1  0.57004506  0.59650687  0.74940261  1
  Te  Te141  1  0.58034712  0.91599243  0.07744800  1
  Te  Te142  1  0.56921088  0.92047134  0.39143349  1
  Te  Te143  1  0.61076587  0.90206351  0.74983045  1
  Te  Te144  1  0.92765602  0.26799626  0.07796579  1
  Te  Te145  1  0.87727898  0.29866781  0.40311837  1
  Te  Te146  1  0.92041475  0.24263926  0.75653414  1
  Te  Te147  1  0.91333501  0.56148393  0.08960441  1
  Te  Te148  1  0.90337745  0.59583838  0.39338004  1
  Te  Te149  1  0.89951225  0.56844570  0.72900592  1
  Te  Te150  1  0.94038058  0.92823757  0.05805094  1
  Te  Te151  1  0.91940328  0.91047097  0.41958434  1
  Te  Te152  1  0.91870770  0.92840663  0.74946607  1
  Te  Te153  1  0.26739070  0.05386101  0.26442310  1
  Te  Te154  1  0.24562146  0.09515209  0.59477063  1
  Te  Te155  1  0.24483644  0.08024110  0.92080751  1
  Te  Te156  1  0.24216913  0.40367126  0.25044641  1
  Te  Te157  1  0.25709947  0.41381171  0.58832287  1
  Te  Te158  1  0.24459792  0.41016357  0.91267583  1
  Te  Te159  1  0.24712894  0.75381545  0.24470342  1
  Te  Te160  1  0.22072167  0.74441907  0.58388660  1
  Te  Te161  1  0.25405278  0.75055062  0.91518038  1
  Te  Te162  1  0.58646842  0.08870124  0.23514403  1
  Te  Te163  1  0.57975796  0.09146396  0.55413591  1
  Te  Te164  1  0.58011592  0.07904529  0.89942426  1
  Te  Te165  1  0.57392407  0.42268439  0.24447884  1
  Te  Te166  1  0.58379136  0.43532455  0.58370705  1
  Te  Te167  1  0.58700372  0.41052064  0.91236116  1
  Te  Te168  1  0.58232382  0.75314487  0.26048507  1
  Te  Te169  1  0.58521077  0.75501376  0.57992471  1
  Te  Te170  1  0.52397511  0.81363852  0.90267806  1
  Te  Te171  1  0.89532149  0.09468554  0.26180414  1
  Te  Te172  1  0.92546984  0.09796291  0.57325230  1
  Te  Te173  1  0.90103936  0.10688724  0.94406689  1
  Te  Te174  1  0.88849845  0.40934556  0.29130803  1
  Te  Te175  1  0.88554790  0.41296004  0.57361460  1
  Te  Te176  1  0.92780782  0.41912156  0.91914244  1
  Te  Te177  1  0.92649464  0.76288479  0.23022900  1
  Te  Te178  1  0.90401511  0.75434894  0.58505138  1
  Te  Te179  1  0.91691002  0.74316302  0.90346843  1
