# generated using pymatgen
data_In2Te3
_symmetry_space_group_name_H-M   'P 1'
_cell_length_a   19.02699933
_cell_length_b   19.01614615
_cell_length_c   19.05245042
_cell_angle_alpha   89.91496256
_cell_angle_beta   90.28393087
_cell_angle_gamma   89.99694628
_symmetry_Int_Tables_number   1
_chemical_formula_structural   In2Te3
_chemical_formula_sum   'In72 Te108'
_cell_volume   6893.46917540
_cell_formula_units_Z   36
loop_
 _symmetry_equiv_pos_site_id
 _symmetry_equiv_pos_as_xyz
  1  'x, y, z'
loop_
 _atom_site_type_symbol
 _atom_site_label
 _atom_site_symmetry_multiplicity
 _atom_site_fract_x
 _atom_site_fract_y
 _atom_site_fract_z
 _atom_site_occupancy
  In  In0  1  0.48130924  0.68100472  0.49930623  1
  In  In1  1  0.31419616  0.83888912  0.50331229  1
  In  In2  1  0.75919338  0.84420831  0.78347376  1
  In  In3  1  0.51555318  0.34154467  0.18585986  1
  In  In4  1  0.30088298  0.65041762  -0.00543310  1
  In  In5  1  0.02105582  0.68313617  0.34580230  1
  In  In6  1  0.19072890  -0.02345675  0.16943001  1
  In  In7  1  0.48221597  0.33901517  0.83142188  1
  In  In8  1  0.51134611  0.50142481  0.33242000  1
  In  In9  1  0.34755347  0.48832676  0.18631671  1
  In  In10  1  0.03143917  0.54377050  0.85647913  1
  In  In11  1  0.68980358  -0.02216875  0.63682750  1
  In  In12  1  0.15116577  0.31505757  0.83887177  1
  In  In13  1  0.51895387  0.67922679  0.82232000  1
  In  In14  1  0.15890306  0.49321617  0.35168569  1
  In  In15  1  -0.00800430  -0.00244339  0.69303230  1
  In  In16  1  0.33308333  0.82669386  0.85562074  1
  In  In17  1  0.14953615  0.83368107  0.66956329  1
  In  In18  1  0.32515200  0.52476544  0.83526644  1
  In  In19  1  0.34058512  0.14633135  0.81663803  1
  In  In20  1  0.66475560  0.83620761  0.19549235  1
  In  In21  1  0.66157538  0.00259183  0.01017531  1
  In  In22  1  0.84858419  0.64561647  0.82591070  1
  In  In23  1  0.15268300  0.33876071  0.15901195  1
  In  In24  1  0.65622212  0.52036535  0.79461478  1
  In  In25  1  0.02365142  0.83436314  0.14977233  1
  In  In26  1  -0.00893829  0.68026303  0.65686907  1
  In  In27  1  0.50294508  0.16898709  0.33194592  1
  In  In28  1  0.64312900  0.66244175  0.02332538  1
  In  In29  1  0.84623030  0.83575672  0.35857289  1
  In  In30  1  0.84717433  0.82215394  -0.01397236  1
  In  In31  1  -0.02477989  0.25409536  0.39494299  1
  In  In32  1  0.51072422  0.16016737  0.63236183  1
  In  In33  1  0.68752206  0.46809913  0.18149730  1
  In  In34  1  -0.03356816  0.32099358  0.65740765  1
  In  In35  1  0.83359479  0.31091819  0.15688301  1
  In  In36  1  0.15519865  0.32489445  0.48649111  1
  In  In37  1  0.49065487  0.66735911  0.15218006  1
  In  In38  1  0.29543577  0.31206522  -0.01010414  1
  In  In39  1  0.14602343  -0.00266825  0.83659400  1
  In  In40  1  0.16034391  0.67120985  0.17144891  1
  In  In41  1  0.83601008  0.49140850  -0.02256245  1
  In  In42  1  0.83178422  0.15782146  -0.01333146  1
  In  In43  1  0.34780480  0.36258073  0.65671641  1
  In  In44  1  0.48895247  0.81597570  -0.00420377  1
  In  In45  1  0.16198467  0.50937477  0.67435228  1
  In  In46  1  0.68230886  0.79957059  0.50246196  1
  In  In47  1  0.16028329  0.15843118  0.68522443  1
  In  In48  1  0.31794573  0.00846890  0.00231321  1
  In  In49  1  -0.07265772  0.04681493  0.37672327  1
  In  In50  1  0.83413422  0.64853308  0.17700911  1
  In  In51  1  -0.01284210  0.50872352  0.51618403  1
  In  In52  1  0.66009816  0.18526481  0.17515645  1
  In  In53  1  0.52482839  0.33658384  0.48801395  1
  In  In54  1  0.68755524  0.34055937  0.67014685  1
  In  In55  1  0.00483985  0.15608735  0.16302553  1
  In  In56  1  0.15594290  0.84536810  0.33579237  1
  In  In57  1  0.50114320  0.47307340  -0.01651262  1
  In  In58  1  0.67778487  0.18634230  0.83538080  1
  In  In59  1  0.33621333  0.52054367  0.46581927  1
  In  In60  1  0.34029407  -0.01824921  0.33712380  1
  In  In61  1  0.00069250  0.00530654  -0.00307137  1
  In  In62  1  0.54858049  -0.00540253  0.82800627  1
  In  In63  1  0.68712500  0.52009182  0.53032080  1
  In  In64  1  0.15406749  0.16032638  0.32002723  1
  In  In65  1  0.69876312  0.00526286  0.35049626  1
  In  In66  1  0.83833099  0.49060968  0.35031128  1
  In  In67  1  0.47097433  0.00128165  0.17574695  1
  In  In68  1  0.82842210  0.16376551  0.68189710  1
  In  In69  1  0.31901938  -0.00171140  0.64118896  1
  In  In70  1  -0.00270539  0.49618036  0.13076068  1
  In  In71  1  0.50201345  -0.02243598  0.48236357  1
  Te  Te72  1  0.10211183  0.07294200  0.08560483  1
  Te  Te73  1  0.05242511  0.12116648  0.42382339  1
  Te  Te74  1  0.05998360  0.11099629  0.78389449  1
  Te  Te75  1  0.08064288  0.40597816  0.04392423  1
  Te  Te76  1  0.04657390  0.40691837  0.41547129  1
  Te  Te77  1  0.08193615  0.39543510  0.73115609  1
  Te  Te78  1  0.07430983  0.72576127  0.06335983  1
  Te  Te79  1  0.07078640  0.78369886  0.44058488  1
  Te  Te80  1  0.05718444  0.76287688  0.75925969  1
  Te  Te81  1  0.41393087  0.08946811  0.07633317  1
  Te  Te82  1  0.41432839  0.08364408  0.42123335  1
  Te  Te83  1  0.44518368  0.06899676  0.73646169  1
  Te  Te84  1  0.39445867  0.40639631  0.06627115  1
  Te  Te85  1  0.41702903  0.40938295  0.40444026  1
  Te  Te86  1  0.42647724  0.45329214  0.74931547  1
  Te  Te87  1  0.38570442  0.74784351  0.08013199  1
  Te  Te88  1  0.41605473  0.78216868  0.41431059  1
  Te  Te89  1  0.41500531  0.75860483  0.75764322  1
  Te  Te90  1  0.74984321  0.08945294  0.09291301  1
  Te  Te91  1  0.79466494  0.07003233  0.44360978  1
  Te  Te92  1  0.72944942  0.07354066  0.75296781  1
  Te  Te93  1  0.75009904  0.40021165  0.06381753  1
  Te  Te94  1  0.76513848  0.41698145  0.45531419  1
  Te  Te95  1  0.76557948  0.44340148  0.73770957  1
  Te  Te96  1  0.74878032  0.74972434  0.09090540  1
  Te  Te97  1  0.75290939  0.73079386  0.39354564  1
  Te  Te98  1  0.75882801  0.70797269  0.71934048  1
  Te  Te99  1  0.05396821  0.26880316  0.25626399  1
  Te  Te100  1  0.07826991  0.24463246  0.58978008  1
  Te  Te101  1  0.07743142  0.27743394  0.95896460  1
  Te  Te102  1  0.06543365  0.56733979  0.24800896  1
  Te  Te103  1  0.09270651  0.59854049  0.57333736  1
  Te  Te104  1  0.12467245  0.61579186  0.94267426  1
  Te  Te105  1  0.06987251  0.93747514  0.25046420  1
  Te  Te106  1  0.10050378  0.95521849  0.60620059  1
  Te  Te107  1  0.06851492  0.90408383  0.91569703  1
  Te  Te108  1  0.41964965  0.25168238  0.24538453  1
  Te  Te109  1  0.41684819  0.26094693  0.56893221  1
  Te  Te110  1  0.40952279  0.23924601  0.91611960  1
  Te  Te111  1  0.41414573  0.59743744  0.26438629  1
  Te  Te112  1  0.40254579  0.58459533  0.57672956  1
  Te  Te113  1  0.43466043  0.59801234  0.92845562  1
  Te  Te114  1  0.41729083  0.89087875  0.25288375  1
  Te  Te115  1  0.42644088  0.90760342  0.59050981  1
  Te  Te116  1  0.43767931  0.93307830  0.91325632  1
  Te  Te117  1  0.77111036  0.23041215  0.26336070  1
  Te  Te118  1  0.74109027  0.23554127  0.58106813  1
  Te  Te119  1  0.78128873  0.26806124  0.89968251  1
  Te  Te120  1  0.73790709  0.57931688  0.26992145  1
  Te  Te121  1  0.78003776  0.62153989  0.58994221  1
  Te  Te122  1  0.73109348  0.59234536  0.92102243  1
  Te  Te123  1  0.77629497  0.92046739  0.25210594  1
  Te  Te124  1  0.78697482  0.88208370  0.57640106  1
  Te  Te125  1  0.74895715  0.91813693  0.92158757  1
  Te  Te126  1  0.23005348  0.23390571  0.09331422  1
  Te  Te127  1  0.24057769  0.24876169  0.39751993  1
  Te  Te128  1  0.27141985  0.26528818  0.74754341  1
  Te  Te129  1  0.24391795  0.56279162  0.10319400  1
  Te  Te130  1  0.23954627  0.60621103  0.39519745  1
  Te  Te131  1  0.24130927  0.60617549  0.74827429  1
  Te  Te132  1  0.24724449  0.89662803  0.06231968  1
  Te  Te133  1  0.22922659  0.94169033  0.42901753  1
  Te  Te134  1  0.26219283  0.93103082  0.76250031  1
  Te  Te135  1  0.58656236  0.26966576  0.08152013  1
  Te  Te136  1  0.60140984  0.23477545  0.41871256  1
  Te  Te137  1  0.56884323  0.25160574  0.74059243  1
  Te  Te138  1  0.57616525  0.54321914  0.10114038  1
  Te  Te139  1  0.58293553  0.58039044  0.43599064  1
  Te  Te140  1  0.58015897  0.61126040  0.70560696  1
  Te  Te141  1  0.57585886  0.90369454  0.08830466  1
  Te  Te142  1  0.60764537  0.90062392  0.40931438  1
  Te  Te143  1  0.61543233  0.89502157  0.73810674  1
  Te  Te144  1  0.93351957  0.24879715  0.06404098  1
  Te  Te145  1  0.86545579  0.21148920  0.48488020  1
  Te  Te146  1  0.89360625  0.26239591  0.77167136  1
  Te  Te147  1  0.91064940  0.59738264  0.05772534  1
  Te  Te148  1  0.91619037  0.60115718  0.41925965  1
  Te  Te149  1  0.93830871  0.56204565  0.73848928  1
  Te  Te150  1  0.91323065  0.91654043  0.08432259  1
  Te  Te151  1  0.95409888  0.90890262  0.42675805  1
  Te  Te152  1  0.88164041  0.90786195  0.73537731  1
  Te  Te153  1  0.26312585  0.08074493  0.24986343  1
  Te  Te154  1  0.25822425  0.11757277  0.58600209  1
  Te  Te155  1  0.23490163  0.09710904  0.91187264  1
  Te  Te156  1  0.24334022  0.40755850  0.26081168  1
  Te  Te157  1  0.24100256  0.42446691  0.56733860  1
  Te  Te158  1  0.23807804  0.42491376  0.90486123  1
  Te  Te159  1  0.24082751  0.75386844  0.25999510  1
  Te  Te160  1  0.24283026  0.75160014  0.59541198  1
  Te  Te161  1  0.22231458  0.73983180  0.90482088  1
  Te  Te162  1  0.59156901  0.06350303  0.25204348  1
  Te  Te163  1  0.60069411  0.06903258  0.55330860  1
  Te  Te164  1  0.58687687  0.10406299  0.92576118  1
  Te  Te165  1  0.61208149  0.39531132  0.28849189  1
  Te  Te166  1  0.58448257  0.42267947  0.59504459  1
  Te  Te167  1  0.60107897  0.41158789  0.89131995  1
  Te  Te168  1  0.58259281  0.72840340  0.24750520  1
  Te  Te169  1  0.58184212  0.73965485  0.59270861  1
  Te  Te170  1  0.60473652  0.76393710  0.91649295  1
  Te  Te171  1  0.89217584  0.11076297  0.24713295  1
  Te  Te172  1  0.92158936  0.08764111  0.59663971  1
  Te  Te173  1  0.91957044  0.08067131  0.89971644  1
  Te  Te174  1  0.90142261  0.42815684  0.22628436  1
  Te  Te175  1  0.88771186  0.41340292  0.57128006  1
  Te  Te176  1  0.94855519  0.43260772  0.90545480  1
  Te  Te177  1  0.92851601  0.74854360  0.23960366  1
  Te  Te178  1  0.87868795  0.74251588  0.58226875  1
  Te  Te179  1  0.93280079  0.74832443  0.89160335  1
