# generated using pymatgen
data_In2Te3
_symmetry_space_group_name_H-M   'P 1'
_cell_length_a   18.99675398
_cell_length_b   19.01875554
_cell_length_c   19.03286380
_cell_angle_alpha   89.90998619
_cell_angle_beta   89.98329922
_cell_angle_gamma   89.93420786
_symmetry_Int_Tables_number   1
_chemical_formula_structural   In2Te3
_chemical_formula_sum   'In72 Te108'
_cell_volume   6876.45798749
_cell_formula_units_Z   36
loop_
 _symmetry_equiv_pos_site_id
 _symmetry_equiv_pos_as_xyz
  1  'x, y, z'
loop_
 _atom_site_type_symbol
 _atom_site_label
 _atom_site_symmetry_multiplicity
 _atom_site_fract_x
 _atom_site_fract_y
 _atom_site_fract_z
 _atom_site_occupancy
  In  In0  1  0.14632804  0.67467383  0.85617080  1
  In  In1  1  0.31639217  0.32436976  0.32145327  1
  In  In2  1  0.83431716  -0.00946539  0.16196418  1
  In  In3  1  0.55907366  0.41473968  0.09066262  1
  In  In4  1  0.14760745  0.67547687  0.13576442  1
  In  In5  1  -0.03087891  0.82480169  0.86079819  1
  In  In6  1  0.00337546  0.81398536  0.50557713  1
  In  In7  1  0.83960802  -0.00048395  0.51117291  1
  In  In8  1  -0.02583656  0.15022019  0.83778880  1
  In  In9  1  0.34752145  0.48205860  0.85905553  1
  In  In10  1  0.84653150  0.51731337  0.31053337  1
  In  In11  1  0.49368759  0.00799228  0.53296259  1
  In  In12  1  0.18549904  0.37083782  0.53307838  1
  In  In13  1  0.84646603  0.78889899  0.29986779  1
  In  In14  1  0.53304657  0.20633412  0.31492438  1
  In  In15  1  0.81213393  0.34301602  0.83601922  1
  In  In16  1  0.68479582  0.82473198  0.84871275  1
  In  In17  1  -0.02832862  0.65522658  0.69191192  1
  In  In18  1  -0.02510994  -0.00933980  -0.00916861  1
  In  In19  1  -0.04389958  0.35085207  0.00277423  1
  In  In20  1  0.13793759  0.64540608  0.47573669  1
  In  In21  1  0.34476959  0.84256685  0.47424284  1
  In  In22  1  0.68759050  0.00529334  0.32632181  1
  In  In23  1  0.68480116  0.83749251  0.48128388  1
  In  In24  1  0.15701439  0.49848185  -0.02052261  1
  In  In25  1  0.32462493  0.83237582  0.14074787  1
  In  In26  1  0.31162120  0.81729761  0.82868972  1
  In  In27  1  0.49140429  0.33534143  0.49522946  1
  In  In28  1  0.52917780  -0.00554152  0.85901368  1
  In  In29  1  0.15297725  0.31423156  0.83289065  1
  In  In30  1  0.36031245  0.16974851  0.53183017  1
  In  In31  1  0.36068202  0.18818085  0.84050691  1
  In  In32  1  0.66515751  0.66048117  0.63042942  1
  In  In33  1  0.69187808  0.78418594  0.13125609  1
  In  In34  1  0.31540198  0.51715285  0.48799353  1
  In  In35  1  0.15157093  0.15352057  0.01736613  1
  In  In36  1  -0.03977883  0.19755960  0.18314800  1
  In  In37  1  0.51380844  0.83836443  0.31683891  1
  In  In38  1  0.53662681  0.15671794  0.70526024  1
  In  In39  1  0.15136897  0.17185540  0.68167771  1
  In  In40  1  0.80047983  0.16313072  0.70875331  1
  In  In41  1  0.52246589  0.68481612  0.46472717  1
  In  In42  1  0.54838110  0.35884116  0.88958358  1
  In  In43  1  -0.03131983  0.18848227  0.53638598  1
  In  In44  1  0.73086969  0.20245767  0.16484168  1
  In  In45  1  -0.04732462  0.40945310  0.69401303  1
  In  In46  1  -0.01928079  0.33817992  0.34999850  1
  In  In47  1  0.18698784  0.52391191  0.67147502  1
  In  In48  1  0.16805247  -0.00901003  0.51212134  1
  In  In49  1  0.67530372  0.49522088  0.46452239  1
  In  In50  1  0.17822426  0.84323874  0.66355357  1
  In  In51  1  0.83053662  0.82418355  0.68109832  1
  In  In52  1  0.35289456  0.14871618  0.17450516  1
  In  In53  1  0.74124370  0.41969535  0.01876106  1
  In  In54  1  0.12656263  0.84471069  0.03121284  1
  In  In55  1  0.54803660  0.17419897  0.00807169  1
  In  In56  1  0.33854366  0.00802287  -0.02478889  1
  In  In57  1  0.15868937  0.16367869  0.37372297  1
  In  In58  1  0.48275604  0.67396530  0.83469305  1
  In  In59  1  -0.00457487  -0.01999888  0.33363792  1
  In  In60  1  -0.03632606  0.48374977  0.50020119  1
  In  In61  1  0.13081579  0.51433120  0.30293116  1
  In  In62  1  0.66112352  0.33548700  0.67927588  1
  In  In63  1  0.34215355  0.65441017  0.00080527  1
  In  In64  1  0.52570686  -0.03533817  0.15570613  1
  In  In65  1  0.14325558  0.00470629  0.19065511  1
  In  In66  1  0.47708079  0.50162017  0.66339944  1
  In  In67  1  0.31735424  0.67462800  0.65876183  1
  In  In68  1  0.67208355  0.62957905  0.30003933  1
  In  In69  1  0.15895352  0.32821074  0.15495247  1
  In  In70  1  0.34912744  0.00268467  0.37580357  1
  In  In71  1  0.51023056  0.80181461  0.01039888  1
  Te  Te72  1  0.04629670  0.08116415  0.09896839  1
  Te  Te73  1  0.05726238  0.07506449  0.44111198  1
  Te  Te74  1  0.08074065  0.07879292  0.76807894  1
  Te  Te75  1  0.06938966  0.41974173  0.07741269  1
  Te  Te76  1  0.09537367  0.41890936  0.42132850  1
  Te  Te77  1  0.09899976  0.42446768  0.74463163  1
  Te  Te78  1  0.03817299  0.73139484  0.05227163  1
  Te  Te79  1  0.05043343  0.73068624  0.39422916  1
  Te  Te80  1  0.08158327  0.75242363  0.74412726  1
  Te  Te81  1  0.43955121  0.07227466  0.06933043  1
  Te  Te82  1  0.43244149  0.12539066  0.40648948  1
  Te  Te83  1  0.42903871  0.07278986  0.77103743  1
  Te  Te84  1  0.41493426  0.44109062  0.06064680  1
  Te  Te85  1  0.39952514  0.41806626  0.40706123  1
  Te  Te86  1  0.45033785  0.40765797  0.77814278  1
  Te  Te87  1  0.42464046  0.72297599  0.10809138  1
  Te  Te88  1  0.41098209  0.74498421  0.37969622  1
  Te  Te89  1  0.41511033  0.76397098  0.73178783  1
  Te  Te90  1  0.73266038  0.07371225  0.09739519  1
  Te  Te91  1  0.75448905  0.08532841  0.42665833  1
  Te  Te92  1  0.72817672  0.05520484  0.78070484  1
  Te  Te93  1  0.80070077  0.38381083  0.15765437  1
  Te  Te94  1  0.76299644  0.41229073  0.37777506  1
  Te  Te95  1  0.72812269  0.43863189  0.75928773  1
  Te  Te96  1  0.79841814  0.77175359  0.02490958  1
  Te  Te97  1  0.74352809  0.72947442  0.39431170  1
  Te  Te98  1  0.74186665  0.72143064  0.74689548  1
  Te  Te99  1  0.08931956  0.24356469  0.26423164  1
  Te  Te100  1  0.08251946  0.27011016  0.58878899  1
  Te  Te101  1  0.06367635  0.24640788  0.93601099  1
  Te  Te102  1  0.04610501  0.59861753  0.21689871  1
  Te  Te103  1  0.06939292  0.57453143  0.58998608  1
  Te  Te104  1  0.05289455  0.58071157  0.91564890  1
  Te  Te105  1  0.05451403  0.89549040  0.22980358  1
  Te  Te106  1  0.06365552  0.91948681  0.59501504  1
  Te  Te107  1  0.08063142  0.91836755  0.90901842  1
  Te  Te108  1  0.42407532  0.27102109  0.22893909  1
  Te  Te109  1  0.45061997  0.25290037  0.61549426  1
  Te  Te110  1  0.44083751  0.26088810  0.94541384  1
  Te  Te111  1  0.46710234  0.50172623  0.18547209  1
  Te  Te112  1  0.41853796  0.61034591  0.56160660  1
  Te  Te113  1  0.44795934  0.56482459  0.93997664  1
  Te  Te114  1  0.40499144  0.92329939  0.24228660  1
  Te  Te115  1  0.39053028  0.92242947  0.58687638  1
  Te  Te116  1  0.41711105  0.88663873  0.92538297  1
  Te  Te117  1  0.77617554  0.28781688  0.27486214  1
  Te  Te118  1  0.75411469  0.25306386  0.60129405  1
  Te  Te119  1  0.75703328  0.28266605  0.95925424  1
  Te  Te120  1  0.78074066  0.60193320  0.19480040  1
  Te  Te121  1  0.75622965  0.58551569  0.54519385  1
  Te  Te122  1  0.79569675  0.62616355  0.98046728  1
  Te  Te123  1  0.74035655  0.88934546  0.24390455  1
  Te  Te124  1  0.74409662  0.91656731  0.59522538  1
  Te  Te125  1  0.78374070  0.93771560  0.86423261  1
  Te  Te126  1  0.25832990  0.23424824  0.08886687  1
  Te  Te127  1  0.25352898  0.25576642  0.44988114  1
  Te  Te128  1  0.26340012  0.25650000  0.74573874  1
  Te  Te129  1  0.24565361  0.57081065  0.07891900  1
  Te  Te130  1  0.24153442  0.59172244  0.37992340  1
  Te  Te131  1  0.26677019  0.59509900  0.78571720  1
  Te  Te132  1  0.23895366  0.95223115  0.07763038  1
  Te  Te133  1  0.22879230  0.90952880  0.40164695  1
  Te  Te134  1  0.24530682  0.92746239  0.76104560  1
  Te  Te135  1  0.60337629  0.26337597  0.11397911  1
  Te  Te136  1  0.60175802  0.27021445  0.42529003  1
  Te  Te137  1  0.60804774  0.25405280  0.79489101  1
  Te  Te138  1  0.63169143  0.54720052  0.13560102  1
  Te  Te139  1  0.56360076  0.56423862  0.38645094  1
  Te  Te140  1  0.56680482  0.59819510  0.73399233  1
  Te  Te141  1  0.61708422  0.89962089  0.05686941  1
  Te  Te142  1  0.57297026  0.93023047  0.42038252  1
  Te  Te143  1  0.58528836  0.89704527  0.76765499  1
  Te  Te144  1  0.88279335  0.23299818  0.06114036  1
  Te  Te145  1  0.90255202  0.23280153  0.41448619  1
  Te  Te146  1  0.92052536  0.26303884  0.75279566  1
  Te  Te147  1  0.86442023  0.50411582  0.04342929  1
  Te  Te148  1  0.93327555  0.59049471  0.40575550  1
  Te  Te149  1  0.88787124  0.54132429  0.72682227  1
  Te  Te150  1  0.89857259  0.89078588  0.07190842  1
  Te  Te151  1  0.89865339  0.89222062  0.41240217  1
  Te  Te152  1  0.91101445  0.91980617  0.76292307  1
  Te  Te153  1  0.24744206  0.09056952  0.27022795  1
  Te  Te154  1  0.24833367  0.08872297  0.59404629  1
  Te  Te155  1  0.24684976  0.10696051  0.90856146  1
  Te  Te156  1  0.23973730  0.42440196  0.23859734  1
  Te  Te157  1  0.29601431  0.43314614  0.61524306  1
  Te  Te158  1  0.24852931  0.38918431  0.92561330  1
  Te  Te159  1  0.22441833  0.76686622  0.22269621  1
  Te  Te160  1  0.22998571  0.74450266  0.55600091  1
  Te  Te161  1  0.23865184  0.76045290  0.94948142  1
  Te  Te162  1  0.57705979  0.07271827  0.24788117  1
  Te  Te163  1  0.59787912  0.08660021  0.59241825  1
  Te  Te164  1  0.62710859  0.08998834  0.91506139  1
  Te  Te165  1  0.60886855  0.43658035  0.23278366  1
  Te  Te166  1  0.58252728  0.43634563  0.57658084  1
  Te  Te167  1  0.63650551  0.47167014  0.92333697  1
  Te  Te168  1  0.58567392  0.73788051  0.23252208  1
  Te  Te169  1  0.57974186  0.77294513  0.57115077  1
  Te  Te170  1  0.59790216  0.71645675  0.92389615  1
  Te  Te171  1  0.90456052  0.07959860  0.26242571  1
  Te  Te172  1  0.90223982  0.08417707  0.61992001  1
  Te  Te173  1  0.87750056  0.07782991  0.92247761  1
  Te  Te174  1  0.93459546  0.41844122  0.23420024  1
  Te  Te175  1  0.87732515  0.38811953  0.56898454  1
  Te  Te176  1  0.92328545  0.43161848  0.88388244  1
  Te  Te177  1  0.90442117  0.69193826  0.20456059  1
  Te  Te178  1  0.90119734  0.73279907  0.58212653  1
  Te  Te179  1  0.88027939  0.70999128  0.88060662  1
