# generated using pymatgen
data_In2Te3
_symmetry_space_group_name_H-M   'P 1'
_cell_length_a   18.89567563
_cell_length_b   18.90154939
_cell_length_c   18.87181309
_cell_angle_alpha   89.99317835
_cell_angle_beta   90.01307711
_cell_angle_gamma   90.04659206
_symmetry_Int_Tables_number   1
_chemical_formula_structural   In2Te3
_chemical_formula_sum   'In72 Te108'
_cell_volume   6740.20800303
_cell_formula_units_Z   36
loop_
 _symmetry_equiv_pos_site_id
 _symmetry_equiv_pos_as_xyz
  1  'x, y, z'
loop_
 _atom_site_type_symbol
 _atom_site_label
 _atom_site_symmetry_multiplicity
 _atom_site_fract_x
 _atom_site_fract_y
 _atom_site_fract_z
 _atom_site_occupancy
  In  In0  1  0.48002053  0.83577893  -0.01513250  1
  In  In1  1  0.83008852  0.49298108  0.64250044  1
  In  In2  1  0.71079721  0.84880657  0.18567295  1
  In  In3  1  0.31613404  0.83039779  0.14619220  1
  In  In4  1  0.67050104  0.66453511  0.34008929  1
  In  In5  1  0.02978508  -0.01429162  0.31534060  1
  In  In6  1  0.50003646  0.32789402  0.82127679  1
  In  In7  1  0.82493357  0.66504513  0.83869232  1
  In  In8  1  0.66954537  0.15607280  0.18337096  1
  In  In9  1  0.82294746  0.02902676  0.49535933  1
  In  In10  1  0.31350285  0.65169169  0.34870586  1
  In  In11  1  0.86972092  0.85973943  0.69975789  1
  In  In12  1  0.52128757  -0.00392554  0.15738631  1
  In  In13  1  0.15603387  0.00664291  0.82322290  1
  In  In14  1  0.00620987  0.19477747  0.18261416  1
  In  In15  1  0.14068141  0.34380291  0.48630305  1
  In  In16  1  -0.00198407  0.34541648  0.01635796  1
  In  In17  1  0.65481004  0.47932862  0.17382723  1
  In  In18  1  0.65408774  0.85017475  0.82228083  1
  In  In19  1  0.00342369  0.51183809  0.83925853  1
  In  In20  1  0.83584237  0.47806915  0.33930114  1
  In  In21  1  0.00149411  0.15431939  0.81081564  1
  In  In22  1  0.31127930  0.66330776  0.66667909  1
  In  In23  1  0.48110769  0.35124244  0.16827448  1
  In  In24  1  0.31566499  0.34030202  0.31228292  1
  In  In25  1  0.02022255  0.50067216  0.15726742  1
  In  In26  1  0.85213807  0.84758147  0.31191327  1
  In  In27  1  0.27286227  0.49655915  0.44496126  1
  In  In28  1  0.68808713  0.31523308  -0.01332779  1
  In  In29  1  0.85447087  0.02685946  0.17395125  1
  In  In30  1  0.48651754  0.65411709  0.20645599  1
  In  In31  1  0.32234652  0.32839877  0.65619484  1
  In  In32  1  0.84622944  0.64765119  0.50656873  1
  In  In33  1  0.46463419  0.50574247  -0.00410082  1
  In  In34  1  0.51652639  0.30629456  0.48409092  1
  In  In35  1  0.32514701  0.81841596  0.82991042  1
  In  In36  1  0.34297581  0.16329096  0.81841406  1
  In  In37  1  0.02425651  0.66815069  0.01503854  1
  In  In38  1  0.68427338  0.28053914  0.64095107  1
  In  In39  1  0.65819927  0.48012579  0.81803674  1
  In  In40  1  0.30732350  0.82753560  0.49323305  1
  In  In41  1  0.00350063  0.00447804  0.00595043  1
  In  In42  1  0.32163957  0.65774667  -0.02087884  1
  In  In43  1  0.83108627  0.31434731  0.16232182  1
  In  In44  1  0.69041510  0.48884435  0.50068771  1
  In  In45  1  0.16538546  0.67319519  0.83479704  1
  In  In46  1  0.33806888  -0.00626790  0.66304147  1
  In  In47  1  0.02716544  0.83256273  0.49739776  1
  In  In48  1  0.32184081  0.17102411  0.15924476  1
  In  In49  1  0.50964392  0.66668891  0.52389641  1
  In  In50  1  0.52156662  0.17235546  -0.01858678  1
  In  In51  1  0.16943303  0.16946240  0.32418355  1
  In  In52  1  0.04725730  0.66781453  0.63583229  1
  In  In53  1  -0.00445771  0.34762824  0.65979929  1
  In  In54  1  0.35829198  0.15763357  0.50166169  1
  In  In55  1  0.17405681  -0.01104226  0.51391527  1
  In  In56  1  0.87986438  0.67320795  0.19105122  1
  In  In57  1  0.48178466  0.49222958  0.31643817  1
  In  In58  1  0.65503787  0.00630369  -0.01058382  1
  In  In59  1  -0.01851371  0.16734582  0.51464545  1
  In  In60  1  0.49634551  0.85753101  0.34616034  1
  In  In61  1  0.19204323  0.35847844  0.85789794  1
  In  In62  1  0.15624343  0.18593970  0.00573484  1
  In  In63  1  0.84070676  0.82702121  -0.01634167  1
  In  In64  1  0.49235286  0.49830699  0.66155939  1
  In  In65  1  0.68679170  0.02277457  0.67521672  1
  In  In66  1  0.32392037  -0.01818377  0.00676671  1
  In  In67  1  0.16538387  0.67831944  0.17016306  1
  In  In68  1  0.65871814  0.67392357  -0.00358098  1
  In  In69  1  0.50889820  0.00965860  0.51221270  1
  In  In70  1  0.66529944  0.82489810  0.51504269  1
  In  In71  1  0.84407610  0.31103033  0.84117045  1
  Te  Te72  1  0.08444208  0.09217866  0.10113012  1
  Te  Te73  1  0.08635616  0.08569248  0.42469372  1
  Te  Te74  1  0.07779256  0.07077646  0.71440939  1
  Te  Te75  1  0.11088321  0.40026694  0.09385157  1
  Te  Te76  1  0.05005945  0.45231239  0.44060173  1
  Te  Te77  1  0.09016355  0.42011180  0.75565132  1
  Te  Te78  1  0.06923035  0.77782855  0.10751866  1
  Te  Te79  1  0.07970989  0.73690122  0.39941845  1
  Te  Te80  1  0.07167400  0.75136913  0.75250184  1
  Te  Te81  1  0.42400969  0.08139708  0.07176782  1
  Te  Te82  1  0.41088571  0.05459716  0.41227309  1
  Te  Te83  1  0.43069373  0.08818735  0.72936338  1
  Te  Te84  1  0.37911564  0.41277727  0.07673642  1
  Te  Te85  1  0.41434085  0.40413468  0.42270568  1
  Te  Te86  1  0.40005441  0.41876234  0.75277467  1
  Te  Te87  1  0.42399506  0.73704800  0.08666811  1
  Te  Te88  1  0.42934864  0.73669402  0.41109279  1
  Te  Te89  1  0.41106996  0.74840562  0.73425906  1
  Te  Te90  1  0.75098204  0.08563411  0.07594115  1
  Te  Te91  1  0.74626939  0.13855119  0.42982489  1
  Te  Te92  1  0.74636632  0.12835175  0.75983541  1
  Te  Te93  1  0.75563504  0.41741233  0.07851377  1
  Te  Te94  1  0.73448418  0.38995240  0.40233306  1
  Te  Te95  1  0.75804630  0.39670891  0.73719657  1
  Te  Te96  1  0.76489768  0.73685133  0.08981197  1
  Te  Te97  1  0.76703932  0.75829778  0.41057219  1
  Te  Te98  1  0.75921557  0.76571986  0.74776370  1
  Te  Te99  1  0.08505270  0.27870938  0.27355871  1
  Te  Te100  1  0.08925112  0.24863570  0.59171387  1
  Te  Te101  1  0.07064595  0.25953843  0.90191133  1
  Te  Te102  1  0.10478194  0.57185551  0.25597265  1
  Te  Te103  1  0.04938917  0.53802165  0.56998159  1
  Te  Te104  1  0.10491342  0.56711234  0.93663216  1
  Te  Te105  1  0.08270251  0.89672172  0.21064099  1
  Te  Te106  1  0.07657748  0.92132124  0.60341629  1
  Te  Te107  1  0.07177842  0.91597315  0.90676740  1
  Te  Te108  1  0.41818767  0.24235731  0.25592651  1
  Te  Te109  1  0.43650823  0.24536404  0.59888221  1
  Te  Te110  1  0.40814380  0.25404727  0.92217040  1
  Te  Te111  1  0.37287831  0.56067581  0.23446034  1
  Te  Te112  1  0.39902302  0.57368529  0.56817810  1
  Te  Te113  1  0.42025970  0.59546376  0.88982733  1
  Te  Te114  1  0.41628598  0.91405517  0.23144142  1
  Te  Te115  1  0.41448021  0.90033613  0.57050369  1
  Te  Te116  1  0.41084589  0.93163092  0.89228999  1
  Te  Te117  1  0.76583752  0.23240292  0.26526449  1
  Te  Te118  1  0.78676344  0.25072403  0.53776412  1
  Te  Te119  1  0.74428160  0.21028688  0.89534592  1
  Te  Te120  1  0.75104608  0.58069398  0.24218968  1
  Te  Te121  1  0.73025462  0.60080970  0.59516688  1
  Te  Te122  1  0.73784664  0.57041228  0.91817976  1
  Te  Te123  1  0.75513038  0.96270919  0.27322515  1
  Te  Te124  1  0.76755120  0.91202976  0.58881293  1
  Te  Te125  1  0.75577504  0.92615210  0.90579063  1
  Te  Te126  1  0.22891656  0.27252772  0.10261276  1
  Te  Te127  1  0.26055206  0.25359153  0.42767420  1
  Te  Te128  1  0.23633236  0.25140483  0.75674974  1
  Te  Te129  1  0.23899343  0.58770265  0.07843112  1
  Te  Te130  1  0.19934003  0.63288912  0.44900545  1
  Te  Te131  1  0.23673762  0.57290068  0.75532131  1
  Te  Te132  1  0.21847457  0.93184300  0.09851076  1
  Te  Te133  1  0.23790453  0.91808615  0.40163854  1
  Te  Te134  1  0.23996323  0.90820646  0.74102417  1
  Te  Te135  1  0.58312025  0.25933560  0.09205690  1
  Te  Te136  1  0.59811904  0.19288472  0.43643293  1
  Te  Te137  1  0.60372450  0.24108497  0.75967960  1
  Te  Te138  1  0.57520131  0.58242883  0.09390572  1
  Te  Te139  1  0.57743668  0.56911288  0.41421588  1
  Te  Te140  1  0.58098744  0.58013990  0.74503387  1
  Te  Te141  1  0.59969808  0.88930282  0.07261840  1
  Te  Te142  1  0.60704374  0.92782118  0.41974458  1
  Te  Te143  1  0.57887485  0.93748267  0.73130624  1
  Te  Te144  1  0.91263125  0.23006804  0.06534724  1
  Te  Te145  1  0.91293008  0.27988863  0.44878602  1
  Te  Te146  1  0.90837380  0.23995918  0.72403344  1
  Te  Te147  1  0.91572102  0.58019029  0.07676898  1
  Te  Te148  1  0.92059621  0.58649018  0.39603747  1
  Te  Te149  1  0.90857218  0.58150669  0.74130505  1
  Te  Te150  1  0.91004948  0.91337607  0.09042551  1
  Te  Te151  1  0.92517799  0.92842364  0.42173342  1
  Te  Te152  1  0.93363318  0.93993599  0.80609472  1
  Te  Te153  1  0.25090641  0.07656205  0.24592514  1
  Te  Te154  1  0.25165774  0.09595616  0.59097112  1
  Te  Te155  1  0.24615443  0.09095484  0.92544704  1
  Te  Te156  1  0.21897319  0.45436527  0.31145996  1
  Te  Te157  1  0.23763905  0.42499841  0.57627694  1
  Te  Te158  1  0.29849799  0.41520614  0.94036000  1
  Te  Te159  1  0.25152088  0.76364592  0.26635654  1
  Te  Te160  1  0.21886646  0.74307860  0.57876549  1
  Te  Te161  1  0.22988758  0.77034990  0.93755216  1
  Te  Te162  1  0.56839509  0.08541831  0.26370113  1
  Te  Te163  1  0.60666825  0.10518194  0.57423786  1
  Te  Te164  1  0.56724913  0.06796828  0.88966061  1
  Te  Te165  1  0.58724435  0.38822885  0.27371136  1
  Te  Te166  1  0.59218719  0.40182623  0.58915916  1
  Te  Te167  1  0.57612913  0.41082840  0.93492917  1
  Te  Te168  1  0.59251022  0.76315838  0.25109305  1
  Te  Te169  1  0.57317005  0.76442932  0.61264215  1
  Te  Te170  1  0.56886863  0.74644694  0.89856445  1
  Te  Te171  1  0.93369161  0.10008546  0.27949644  1
  Te  Te172  1  0.91697439  0.06756723  0.60263815  1
  Te  Te173  1  0.91481609  0.06593320  0.89787140  1
  Te  Te174  1  0.92408122  0.40837171  0.23781149  1
  Te  Te175  1  0.91924721  0.41734085  0.54410861  1
  Te  Te176  1  0.90771793  0.42341270  0.91995097  1
  Te  Te177  1  0.96576868  0.74855222  0.29055343  1
  Te  Te178  1  0.91954758  0.75257528  0.58919877  1
  Te  Te179  1  0.93822895  0.73826161  0.90903188  1
