# generated using pymatgen
data_In2Te3
_symmetry_space_group_name_H-M   'P 1'
_cell_length_a   18.92173443
_cell_length_b   18.93117322
_cell_length_c   18.92429504
_cell_angle_alpha   89.87991648
_cell_angle_beta   90.02958264
_cell_angle_gamma   89.90279445
_symmetry_Int_Tables_number   1
_chemical_formula_structural   In2Te3
_chemical_formula_sum   'In72 Te108'
_cell_volume   6778.85813025
_cell_formula_units_Z   36
loop_
 _symmetry_equiv_pos_site_id
 _symmetry_equiv_pos_as_xyz
  1  'x, y, z'
loop_
 _atom_site_type_symbol
 _atom_site_label
 _atom_site_symmetry_multiplicity
 _atom_site_fract_x
 _atom_site_fract_y
 _atom_site_fract_z
 _atom_site_occupancy
  In  In0  1  -0.01689232  0.34443041  0.33751101  1
  In  In1  1  0.86425958  0.65731420  0.15265733  1
  In  In2  1  -0.01362523  -0.02697388  -0.01975126  1
  In  In3  1  0.67795253  0.82221884  0.16511597  1
  In  In4  1  0.50474191  0.66247370  0.83130750  1
  In  In5  1  0.53275892  0.03340767  0.83983955  1
  In  In6  1  0.66725800  0.14133150  0.16300246  1
  In  In7  1  0.84833944  0.52731478  0.34142171  1
  In  In8  1  0.34103667  0.00343754  0.32979153  1
  In  In9  1  0.00127018  0.00798151  0.35563539  1
  In  In10  1  0.00717535  0.68923589  0.64809703  1
  In  In11  1  0.53605099  0.83675103  0.65950281  1
  In  In12  1  0.69596674  0.00599795  -0.02593436  1
  In  In13  1  0.66456304  0.67970148  0.35530244  1
  In  In14  1  0.68671370  0.65713946  -0.02495120  1
  In  In15  1  0.32398820  0.18982544  0.85065975  1
  In  In16  1  0.14530756  0.12818038  0.69252176  1
  In  In17  1  0.83792828  0.66377365  0.50265156  1
  In  In18  1  0.15256227  0.53337867  0.26019008  1
  In  In19  1  0.17531932  0.49576531  0.68738626  1
  In  In20  1  0.16458952  0.33643219  0.15976987  1
  In  In21  1  0.15111050  0.85024513  0.66003358  1
  In  In22  1  0.66132890  0.16952655  0.51997218  1
  In  In23  1  0.33235808  -0.00438009  0.00293752  1
  In  In24  1  0.16424595  0.68675194  0.47081318  1
  In  In25  1  0.00467317  0.82615573  0.13225903  1
  In  In26  1  0.14163561  0.32976612  0.52024186  1
  In  In27  1  0.82862358  0.33594293  0.17674090  1
  In  In28  1  0.84214406  -0.00479519  0.81995887  1
  In  In29  1  -0.01084952  0.49807112  0.84581739  1
  In  In30  1  0.65554180  0.50239682  0.16583177  1
  In  In31  1  0.51847978  0.48912759  0.69754421  1
  In  In32  1  -0.00311240  0.18641228  0.16262160  1
  In  In33  1  0.68372658  -0.00086616  0.65852194  1
  In  In34  1  0.16033117  0.15903249  -0.01647513  1
  In  In35  1  0.34604973  0.50778530  0.85546770  1
  In  In36  1  0.34657640  0.34477220  0.00183758  1
  In  In37  1  0.47463726  -0.02913605  0.16139488  1
  In  In38  1  0.32385125  0.82744013  0.50703077  1
  In  In39  1  0.17554124  0.68525674  0.82186148  1
  In  In40  1  0.84567668  0.02255399  0.52624547  1
  In  In41  1  0.50890481  0.18033413  0.34624803  1
  In  In42  1  0.34314096  0.51336552  0.50108544  1
  In  In43  1  0.16690187  0.51964703  0.03274015  1
  In  In44  1  0.82956596  0.46654045  0.69298460  1
  In  In45  1  0.34315603  0.81768728  0.83544797  1
  In  In46  1  0.52337369  0.32355814  0.83076864  1
  In  In47  1  0.82140838  0.67680784  0.81802888  1
  In  In48  1  0.51692702  0.01043242  0.47971339  1
  In  In49  1  0.49295479  0.34668731  0.15362526  1
  In  In50  1  0.49843495  0.49318649  0.34009519  1
  In  In51  1  0.66221433  0.34360036  -0.01259998  1
  In  In52  1  -0.02900057  0.68851002  -0.03092646  1
  In  In53  1  0.81460462  0.31595176  0.50206852  1
  In  In54  1  -0.07161070  0.24927341  0.68983291  1
  In  In55  1  0.15576955  0.32876552  0.82475435  1
  In  In56  1  0.52116983  0.67454244  0.15879836  1
  In  In57  1  0.66376873  -0.03168076  0.32048275  1
  In  In58  1  0.14847476  0.81668104  0.34157392  1
  In  In59  1  0.37354422  0.30295322  0.63896113  1
  In  In60  1  0.67422910  0.45946507  0.51961014  1
  In  In61  1  0.51415857  0.67985665  0.52670584  1
  In  In62  1  0.35435445  0.00930132  0.68088726  1
  In  In63  1  0.18443925  -0.00914702  0.16417087  1
  In  In64  1  -0.00645947  0.31672580  -0.02171367  1
  In  In65  1  0.30462766  0.34190152  0.35423062  1
  In  In66  1  0.82984987  0.15207259  0.33999354  1
  In  In67  1  0.14148558  0.00385955  0.51750397  1
  In  In68  1  0.50097901  0.82769702  0.00524713  1
  In  In69  1  -0.01003635  0.50135259  0.50039337  1
  In  In70  1  0.32339303  0.67859300  0.31449226  1
  In  In71  1  0.34919341  0.14473685  0.16800111  1
  Te  Te72  1  0.08257301  0.08256089  0.08854576  1
  Te  Te73  1  0.07935098  0.10512493  0.43199286  1
  Te  Te74  1  0.06217972  0.03273884  0.77306870  1
  Te  Te75  1  0.06605791  0.41390265  0.07500813  1
  Te  Te76  1  0.08856830  0.42582847  0.41072914  1
  Te  Te77  1  0.06157602  0.41135081  0.74047551  1
  Te  Te78  1  0.08531306  0.75125801  0.03565754  1
  Te  Te79  1  0.05610886  0.78421175  0.45167965  1
  Te  Te80  1  0.06671240  0.77156777  0.76146607  1
  Te  Te81  1  0.43994843  0.08447136  0.06343551  1
  Te  Te82  1  0.40336372  0.10250223  0.42855778  1
  Te  Te83  1  0.42646103  0.11278890  0.76496177  1
  Te  Te84  1  0.40738115  0.44571156  0.08716940  1
  Te  Te85  1  0.42060425  0.40131252  0.43261169  1
  Te  Te86  1  0.39989584  0.40117645  0.76017478  1
  Te  Te87  1  0.41348358  0.75239557  0.09449324  1
  Te  Te88  1  0.41350679  0.73569968  0.42663801  1
  Te  Te89  1  0.43164373  0.75179801  0.73011629  1
  Te  Te90  1  0.76857505  0.07225200  0.08429928  1
  Te  Te91  1  0.72932160  0.07197657  0.42181692  1
  Te  Te92  1  0.74287050  0.09347138  0.75854039  1
  Te  Te93  1  0.75393108  0.42635745  0.07997737  1
  Te  Te94  1  0.76110323  0.41754430  0.40002958  1
  Te  Te95  1  0.71717655  0.38252945  0.74510719  1
  Te  Te96  1  0.76678323  0.74297901  0.07201691  1
  Te  Te97  1  0.78118020  0.75406398  0.40157062  1
  Te  Te98  1  0.70525655  0.71763894  0.73583348  1
  Te  Te99  1  0.08610442  0.25755671  0.26247994  1
  Te  Te100  1  0.06628314  0.23268735  0.61345033  1
  Te  Te101  1  0.06562095  0.22158397  0.88265336  1
  Te  Te102  1  0.04174632  0.63085894  0.25914936  1
  Te  Te103  1  0.09669627  0.57718656  0.58190182  1
  Te  Te104  1  0.10464540  0.57609064  0.90516585  1
  Te  Te105  1  0.07903655  0.91996678  0.24826508  1
  Te  Te106  1  0.03861803  0.92669642  0.59518152  1
  Te  Te107  1  0.10354407  0.95016482  0.89758656  1
  Te  Te108  1  0.40579519  0.25737665  0.25278570  1
  Te  Te109  1  0.44342532  0.19854779  0.56755003  1
  Te  Te110  1  0.43748328  0.24605841  0.93339054  1
  Te  Te111  1  0.42744128  0.58792876  0.24781283  1
  Te  Te112  1  0.43140811  0.57962293  0.60407540  1
  Te  Te113  1  0.40521917  0.61715175  0.93159118  1
  Te  Te114  1  0.39608178  0.89091647  0.25521371  1
  Te  Te115  1  0.42436217  0.91821509  0.57655928  1
  Te  Te116  1  0.43327660  0.92728597  0.90193166  1
  Te  Te117  1  0.74013794  0.24038686  0.25488322  1
  Te  Te118  1  0.74474064  0.24929296  0.61632255  1
  Te  Te119  1  0.75415470  0.29894778  0.87596754  1
  Te  Te120  1  0.74365327  0.59746368  0.24541698  1
  Te  Te121  1  0.76526932  0.55751511  0.58770516  1
  Te  Te122  1  0.77260551  0.56479460  0.90006946  1
  Te  Te123  1  0.76909756  0.91376929  0.23553494  1
  Te  Te124  1  0.77787993  0.90737453  0.59226671  1
  Te  Te125  1  0.76525090  0.89603703  0.90221664  1
  Te  Te126  1  0.25444723  0.23761441  0.07913026  1
  Te  Te127  1  0.23624189  0.24821696  0.44245637  1
  Te  Te128  1  0.24635929  0.24846020  0.73287757  1
  Te  Te129  1  0.22175909  0.60097375  0.14190170  1
  Te  Te130  1  0.24549453  0.57492326  0.39954413  1
  Te  Te131  1  0.27309712  0.59181124  0.75016451  1
  Te  Te132  1  0.25877322  0.89670227  0.08109406  1
  Te  Te133  1  0.24045858  0.92138645  0.42114482  1
  Te  Te134  1  0.25945175  0.91174657  0.74789328  1
  Te  Te135  1  0.59041989  0.25110973  0.08678977  1
  Te  Te136  1  0.59800271  0.26370882  0.42575456  1
  Te  Te137  1  0.60366377  0.27964428  0.71340080  1
  Te  Te138  1  0.58305132  0.58021470  0.05818852  1
  Te  Te139  1  0.59006611  0.57114850  0.43594675  1
  Te  Te140  1  0.61355793  0.59220678  0.75066883  1
  Te  Te141  1  0.59580311  0.92536591  0.07891881  1
  Te  Te142  1  0.58904590  0.89621895  0.42500174  1
  Te  Te143  1  0.60415558  0.92126186  0.76383272  1
  Te  Te144  1  0.89247339  0.24685000  0.07059376  1
  Te  Te145  1  0.92078765  0.23799745  0.42579096  1
  Te  Te146  1  0.86006690  0.19917318  0.81507014  1
  Te  Te147  1  0.92007285  0.57485219  0.04589235  1
  Te  Te148  1  0.96114861  0.61189060  0.39962260  1
  Te  Te149  1  0.92904136  0.58337563  0.73442838  1
  Te  Te150  1  0.90019777  0.91950821  0.08646743  1
  Te  Te151  1  0.89853325  0.92991439  0.42414186  1
  Te  Te152  1  0.94292889  0.94595629  0.72162989  1
  Te  Te153  1  0.24035799  0.09466131  0.26106744  1
  Te  Te154  1  0.25044599  0.07964282  0.59432086  1
  Te  Te155  1  0.24651043  0.06723519  0.89787312  1
  Te  Te156  1  0.26100206  0.42454334  0.23531190  1
  Te  Te157  1  0.25695669  0.41667766  0.58490981  1
  Te  Te158  1  0.23367901  0.41348368  0.92307428  1
  Te  Te159  1  0.21852466  0.74527705  0.23202368  1
  Te  Te160  1  0.23897399  0.73898572  0.59340341  1
  Te  Te161  1  0.24809576  0.75575187  0.92915131  1
  Te  Te162  1  0.55854668  0.06978573  0.25377301  1
  Te  Te163  1  0.56328788  0.08571241  0.60403348  1
  Te  Te164  1  0.63863959  0.11972889  0.89584899  1
  Te  Te165  1  0.58902343  0.40292389  0.25845615  1
  Te  Te166  1  0.56258724  0.39325631  0.59185609  1
  Te  Te167  1  0.56555116  0.43189994  0.91927614  1
  Te  Te168  1  0.57751473  0.76627032  0.26530013  1
  Te  Te169  1  0.63165934  0.74802693  0.58649381  1
  Te  Te170  1  0.59420017  0.75940438  0.90857356  1
  Te  Te171  1  0.92068151  0.08298018  0.24273596  1
  Te  Te172  1  0.92025359  0.12629381  0.60960770  1
  Te  Te173  1  0.90669000  0.08603493  0.92249432  1
  Te  Te174  1  0.92150514  0.44029980  0.23766856  1
  Te  Te175  1  0.91713324  0.39804083  0.58352132  1
  Te  Te176  1  0.89532522  0.39623256  0.89883909  1
  Te  Te177  1  0.93783335  0.74934880  0.24469591  1
  Te  Te178  1  0.88296105  0.75760240  0.60802726  1
  Te  Te179  1  0.89203738  0.78653951  0.89062573  1
