# generated using pymatgen
data_In2Te3
_symmetry_space_group_name_H-M   'P 1'
_cell_length_a   18.73895555
_cell_length_b   18.73181898
_cell_length_c   18.74482055
_cell_angle_alpha   90.00478616
_cell_angle_beta   90.00375324
_cell_angle_gamma   89.99076794
_symmetry_Int_Tables_number   1
_chemical_formula_structural   In2Te3
_chemical_formula_sum   'In72 Te108'
_cell_volume   6579.70787607
_cell_formula_units_Z   36
loop_
 _symmetry_equiv_pos_site_id
 _symmetry_equiv_pos_as_xyz
  1  'x, y, z'
loop_
 _atom_site_type_symbol
 _atom_site_label
 _atom_site_symmetry_multiplicity
 _atom_site_fract_x
 _atom_site_fract_y
 _atom_site_fract_z
 _atom_site_occupancy
  In  In0  1  0.82053320  0.48712942  -0.00940936  1
  In  In1  1  0.18568637  0.67914373  0.50470953  1
  In  In2  1  0.18586692  0.52127005  0.33732610  1
  In  In3  1  0.51354915  0.16215072  -0.02751441  1
  In  In4  1  0.51463652  0.00180197  0.16403946  1
  In  In5  1  0.81638794  0.67308550  0.50287414  1
  In  In6  1  0.34011893  0.49333299  0.82615717  1
  In  In7  1  0.51319664  0.16371902  0.67994433  1
  In  In8  1  0.52186018  0.84297152  0.34655077  1
  In  In9  1  -0.02955127  0.83461427  0.14122127  1
  In  In10  1  0.83243327  0.17151248  0.66910555  1
  In  In11  1  -0.00878349  0.47319011  0.14547242  1
  In  In12  1  0.03140222  0.64290341  -0.03820486  1
  In  In13  1  0.83977886  0.84860357  0.70434052  1
  In  In14  1  0.66127880  0.33542502  0.32692852  1
  In  In15  1  0.32916179  0.65455180  0.34237958  1
  In  In16  1  0.81184360  0.18391248  0.35210255  1
  In  In17  1  0.83946043  0.32584807  0.16893424  1
  In  In18  1  0.17885812  0.33419488  0.14419681  1
  In  In19  1  -0.00200691  0.66614077  0.68863946  1
  In  In20  1  0.34086121  0.48134843  0.14046745  1
  In  In21  1  0.15074792  0.15917206  0.70812765  1
  In  In22  1  -0.01226176  0.01496041  0.34684785  1
  In  In23  1  0.00613052  0.86072769  0.51200435  1
  In  In24  1  -0.02578062  0.14687079  0.15355869  1
  In  In25  1  0.13050302  0.01092765  0.14769479  1
  In  In26  1  0.66596135  0.31036315  0.67550448  1
  In  In27  1  -0.02242587  0.00826535  -0.00003240  1
  In  In28  1  0.18294154  0.84784057  0.33149149  1
  In  In29  1  0.18111089  0.48864660  0.68808004  1
  In  In30  1  0.48579362  0.48371284  -0.01466074  1
  In  In31  1  0.48975104  0.32958547  0.50812048  1
  In  In32  1  0.49340728  0.64502675  0.53653630  1
  In  In33  1  0.63316337  0.51929063  0.81032917  1
  In  In34  1  0.34543953  0.00634954  0.66744854  1
  In  In35  1  0.83027801  0.01940381  0.50469650  1
  In  In36  1  0.80544410  0.51887970  0.34679673  1
  In  In37  1  0.65538776  0.83130360  0.48560150  1
  In  In38  1  0.16407756  0.82998634  0.65756042  1
  In  In39  1  0.67107706  0.83407832  0.83281534  1
  In  In40  1  0.85253199  0.50383883  0.67250114  1
  In  In41  1  0.83006400  0.85923682  -0.03287129  1
  In  In42  1  -0.00884053  0.30565326  0.34817140  1
  In  In43  1  0.31603779  0.01398193  -0.02266085  1
  In  In44  1  0.51280846  0.48820811  0.34608887  1
  In  In45  1  0.83058007  0.31478380  0.83784493  1
  In  In46  1  -0.00249911  0.84328786  0.82554514  1
  In  In47  1  0.65941892  0.48965832  0.50082027  1
  In  In48  1  0.50237372  0.67641650  0.14580220  1
  In  In49  1  -0.01881934  0.68192693  0.31342863  1
  In  In50  1  0.35367912  0.82363018  0.14905289  1
  In  In51  1  0.66996921  0.01147943  0.67019343  1
  In  In52  1  0.48908268  0.83002739  0.67083512  1
  In  In53  1  0.67195143  0.85859978  0.17538680  1
  In  In54  1  0.66608199  0.32231348  0.00471786  1
  In  In55  1  0.02232555  0.31618847  -0.00894310  1
  In  In56  1  0.33827136  0.17353455  0.50741733  1
  In  In57  1  0.65678850  0.66306536  -0.00554403  1
  In  In58  1  0.18146135  0.32788003  0.51782630  1
  In  In59  1  0.18148615  0.63083860  0.13461511  1
  In  In60  1  0.32597665  0.84340049  0.51179677  1
  In  In61  1  0.33735345  0.82363613  0.83375072  1
  In  In62  1  0.33914794  0.19515855  0.16453602  1
  In  In63  1  0.15757315  0.83813110  -0.02087163  1
  In  In64  1  0.15648832  0.16913578  0.34438896  1
  In  In65  1  0.33852796  0.19422053  0.82139782  1
  In  In66  1  0.00154301  0.47540088  0.52049739  1
  In  In67  1  0.51310350  0.15954384  0.31217778  1
  In  In68  1  0.51425872  0.83823739  0.01638605  1
  In  In69  1  0.32138204  0.01004932  0.34964573  1
  In  In70  1  0.81928824  0.65734754  0.16733176  1
  In  In71  1  0.00856995  0.33406874  0.68027895  1
  Te  Te72  1  0.08937211  0.11893342  0.04774799  1
  Te  Te73  1  0.08068711  0.08480428  0.43787710  1
  Te  Te74  1  0.07088739  0.05258090  0.77665177  1
  Te  Te75  1  0.10739398  0.43582888  0.05371950  1
  Te  Te76  1  0.09170653  0.41433169  0.41118000  1
  Te  Te77  1  0.08307573  0.41885201  0.77880349  1
  Te  Te78  1  0.08277513  0.74577610  0.08474827  1
  Te  Te79  1  0.08413215  0.75127138  0.41508018  1
  Te  Te80  1  0.10133316  0.74480584  0.76840167  1
  Te  Te81  1  0.41087702  0.07963981  0.08242174  1
  Te  Te82  1  0.42994187  0.08470341  0.42258533  1
  Te  Te83  1  0.42774685  0.07647687  0.77382126  1
  Te  Te84  1  0.41337513  0.37566948  0.06202689  1
  Te  Te85  1  0.40776837  0.42254086  0.42541687  1
  Te  Te86  1  0.43502223  0.43060016  0.72875859  1
  Te  Te87  1  0.40322600  0.72927474  0.04227730  1
  Te  Te88  1  0.41726785  0.75200654  0.42295586  1
  Te  Te89  1  0.42646532  0.72724279  0.75996998  1
  Te  Te90  1  0.81182875  0.08595891  0.04695945  1
  Te  Te91  1  0.72590768  0.07866376  0.41690601  1
  Te  Te92  1  0.74673416  0.09510797  0.76733430  1
  Te  Te93  1  0.74253929  0.42404228  0.10210124  1
  Te  Te94  1  0.75954663  0.39850492  0.42866762  1
  Te  Te95  1  0.74961868  0.42107862  0.75614697  1
  Te  Te96  1  0.74783063  0.76210424  0.06753342  1
  Te  Te97  1  0.74202183  0.74625253  0.39924214  1
  Te  Te98  1  0.75841478  0.73883734  0.75868861  1
  Te  Te99  1  0.07317268  0.24995526  0.23101524  1
  Te  Te100  1  0.08148710  0.23822539  0.58667845  1
  Te  Te101  1  0.10555140  0.21497770  0.92018213  1
  Te  Te102  1  0.07535772  0.57898343  0.24469430  1
  Te  Te103  1  0.08788883  0.58455630  0.58508506  1
  Te  Te104  1  0.12204926  0.54659455  0.88864642  1
  Te  Te105  1  0.06465315  0.90875499  0.24996095  1
  Te  Te106  1  0.07330186  0.94128104  0.61652174  1
  Te  Te107  1  0.08993800  0.95064405  0.90166337  1
  Te  Te108  1  0.42799261  0.26751379  0.25613976  1
  Te  Te109  1  0.40763352  0.25535728  0.61556092  1
  Te  Te110  1  0.41541694  0.26855067  0.92777219  1
  Te  Te111  1  0.41593010  0.58485626  0.23779999  1
  Te  Te112  1  0.42382729  0.55165068  0.63319288  1
  Te  Te113  1  0.43734131  0.58858539  0.89315417  1
  Te  Te114  1  0.41055302  0.91655680  0.25828002  1
  Te  Te115  1  0.43638338  0.93199773  0.56805452  1
  Te  Te116  1  0.42133575  0.91929089  0.92148838  1
  Te  Te117  1  0.73314496  0.23730472  0.23010040  1
  Te  Te118  1  0.73674858  0.23253433  0.57206555  1
  Te  Te119  1  0.72299796  0.22988413  0.89861897  1
  Te  Te120  1  0.71964275  0.57990874  0.24393243  1
  Te  Te121  1  0.74241853  0.57903238  0.59643406  1
  Te  Te122  1  0.74575666  0.58366173  0.89870273  1
  Te  Te123  1  0.76720641  0.94785075  0.24176620  1
  Te  Te124  1  0.75475243  0.90301060  0.58871710  1
  Te  Te125  1  0.74656165  0.95542643  0.88517843  1
  Te  Te126  1  0.25746689  0.24845536  0.05282986  1
  Te  Te127  1  0.26300528  0.25989312  0.40486300  1
  Te  Te128  1  0.23755072  0.27394664  0.74564726  1
  Te  Te129  1  0.27507071  0.56893426  0.03649065  1
  Te  Te130  1  0.27555373  0.56448388  0.45461357  1
  Te  Te131  1  0.24886278  0.59762092  0.76244392  1
  Te  Te132  1  0.24735050  0.91659870  0.08776400  1
  Te  Te133  1  0.22564121  0.93906836  0.44719750  1
  Te  Te134  1  0.25197684  0.91905708  0.75012773  1
  Te  Te135  1  0.58642823  0.22654774  0.08449358  1
  Te  Te136  1  0.58414157  0.24497635  0.42268288  1
  Te  Te137  1  0.58727474  0.24316474  0.78367139  1
  Te  Te138  1  0.58116027  0.56341555  0.08045459  1
  Te  Te139  1  0.58606423  0.59905978  0.42192468  1
  Te  Te140  1  0.54943670  0.60104016  0.71817289  1
  Te  Te141  1  0.61796267  0.94992877  0.05306282  1
  Te  Te142  1  0.60246813  0.94989958  0.41075017  1
  Te  Te143  1  0.57341850  0.92507693  0.75491574  1
  Te  Te144  1  0.89715841  0.24200434  0.05652595  1
  Te  Te145  1  0.91972009  0.22421707  0.44650213  1
  Te  Te146  1  0.93929119  0.23233345  0.77056510  1
  Te  Te147  1  0.91944474  0.58930300  0.07167205  1
  Te  Te148  1  0.92533182  0.57982470  0.42741123  1
  Te  Te149  1  0.92990372  0.57146428  0.77862580  1
  Te  Te150  1  0.86672141  0.94559485  0.09955988  1
  Te  Te151  1  0.89984117  0.90992412  0.41610317  1
  Te  Te152  1  0.92731045  0.95905313  0.75725930  1
  Te  Te153  1  0.24022196  0.08272561  0.24161719  1
  Te  Te154  1  0.24387579  0.09458298  0.59693795  1
  Te  Te155  1  0.23496465  0.10784229  0.89421340  1
  Te  Te156  1  0.25585476  0.41538420  0.25036792  1
  Te  Te157  1  0.27173855  0.41162804  0.59887048  1
  Te  Te158  1  0.23593562  0.44499966  0.92601594  1
  Te  Te159  1  0.24685885  0.74043074  0.23946321  1
  Te  Te160  1  0.27958901  0.73659337  0.60991821  1
  Te  Te161  1  0.24207486  0.73830770  0.91239534  1
  Te  Te162  1  0.61620340  0.07331473  0.24422449  1
  Te  Te163  1  0.59155539  0.09386062  0.57526253  1
  Te  Te164  1  0.60365049  0.04897146  0.93624745  1
  Te  Te165  1  0.57084186  0.40944070  0.23611125  1
  Te  Te166  1  0.57605059  0.41405244  0.60441210  1
  Te  Te167  1  0.58575566  0.40519867  0.89925229  1
  Te  Te168  1  0.59215112  0.74951787  0.24686909  1
  Te  Te169  1  0.59436844  0.74546819  0.59656047  1
  Te  Te170  1  0.56720580  0.74587280  0.90421541  1
  Te  Te171  1  0.88095756  0.07823983  0.25685531  1
  Te  Te172  1  0.92581891  0.07398827  0.60268648  1
  Te  Te173  1  0.88846084  0.09808647  0.92061145  1
  Te  Te174  1  0.91028626  0.42112943  0.26832654  1
  Te  Te175  1  0.89742593  0.38599648  0.58571311  1
  Te  Te176  1  0.92603914  0.40970235  0.91392362  1
  Te  Te177  1  0.87809132  0.77260805  0.25058925  1
  Te  Te178  1  0.92188594  0.75241405  0.58604555  1
  Te  Te179  1  0.92142200  0.74679900  0.91620637  1
