# generated using pymatgen
data_In2Te3
_symmetry_space_group_name_H-M   'P 1'
_cell_length_a   18.96238095
_cell_length_b   18.96967750
_cell_length_c   18.95638296
_cell_angle_alpha   90.03128000
_cell_angle_beta   89.83456043
_cell_angle_gamma   89.90959479
_symmetry_Int_Tables_number   1
_chemical_formula_structural   In2Te3
_chemical_formula_sum   'In72 Te108'
_cell_volume   6818.76732991
_cell_formula_units_Z   36
loop_
 _symmetry_equiv_pos_site_id
 _symmetry_equiv_pos_as_xyz
  1  'x, y, z'
loop_
 _atom_site_type_symbol
 _atom_site_label
 _atom_site_symmetry_multiplicity
 _atom_site_fract_x
 _atom_site_fract_y
 _atom_site_fract_z
 _atom_site_occupancy
  In  In0  1  0.33322795  0.83730079  0.16072066  1
  In  In1  1  0.50878801  0.30864825  0.50969911  1
  In  In2  1  0.68834223  0.52430946  0.87682034  1
  In  In3  1  0.17276099  -0.00032768  0.81049273  1
  In  In4  1  0.49278553  0.49754396  0.04332214  1
  In  In5  1  0.15955277  0.26857146  0.02070448  1
  In  In6  1  -0.00173592  0.63718040  0.65996458  1
  In  In7  1  0.16380471  0.02295300  0.48327829  1
  In  In8  1  0.00884272  0.04100261  0.00341160  1
  In  In9  1  0.81997771  -0.00006134  0.16373068  1
  In  In10  1  0.87493446  0.83215040  0.31495099  1
  In  In11  1  0.16238328  0.48745045  0.32656755  1
  In  In12  1  0.81791235  0.50923738  0.67298720  1
  In  In13  1  0.01025684  0.82322937  0.81453718  1
  In  In14  1  0.67970630  0.84198896  0.81599641  1
  In  In15  1  0.01654216  0.67251493  0.30833084  1
  In  In16  1  -0.01281712  0.49470966  0.48408691  1
  In  In17  1  0.33721770  0.35294766  0.32646405  1
  In  In18  1  0.18622126  0.83856167  -0.01234254  1
  In  In19  1  0.02138252  0.01198291  0.66008931  1
  In  In20  1  0.85012329  0.33266420  0.47860461  1
  In  In21  1  0.31922771  0.17105637  0.81528879  1
  In  In22  1  0.34881495  0.01051961  0.01880748  1
  In  In23  1  0.83583602  0.65886539  0.51912160  1
  In  In24  1  0.50073960  0.18281535  0.34372687  1
  In  In25  1  0.48891745  0.50050541  0.67676933  1
  In  In26  1  0.32262183  0.50457034  0.49875531  1
  In  In27  1  0.15372507  0.08171344  0.20855759  1
  In  In28  1  0.82861291  -0.01963164  0.51312805  1
  In  In29  1  0.64768526  -0.02830263  -0.01613102  1
  In  In30  1  0.34088858  0.48931675  0.15589072  1
  In  In31  1  0.82167675  0.14949297  0.67785196  1
  In  In32  1  0.50426687  0.66634604  0.82835493  1
  In  In33  1  0.68747884  0.82232826  0.52462090  1
  In  In34  1  0.49880746  0.03187755  0.51783770  1
  In  In35  1  0.90362530  0.23426674  0.28622405  1
  In  In36  1  0.49348245  0.83693499  0.65392456  1
  In  In37  1  0.17819604  0.33893776  0.49833157  1
  In  In38  1  0.68679554  0.14264681  0.51200861  1
  In  In39  1  0.14864288  0.83696679  0.34425709  1
  In  In40  1  -0.02174622  0.50533662  0.83240413  1
  In  In41  1  0.32426155  0.85374040  0.80523089  1
  In  In42  1  0.49275370  0.00850111  0.14857477  1
  In  In43  1  0.01036451  0.83170955  0.16181551  1
  In  In44  1  0.49074577  0.15689701  0.01375548  1
  In  In45  1  0.68354545  0.17720542  0.17240571  1
  In  In46  1  0.66926906  -0.02342951  0.33273082  1
  In  In47  1  0.15937645  0.48538898  0.67687452  1
  In  In48  1  -0.01260778  0.64201122  0.01024298  1
  In  In49  1  0.84992896  0.32059773  0.85017229  1
  In  In50  1  0.31185651  0.47574312  0.83416549  1
  In  In51  1  0.49045936  0.83663874  0.34971542  1
  In  In52  1  0.49282816  0.68213735  0.50697520  1
  In  In53  1  0.65420833  0.32896865  0.68465044  1
  In  In54  1  0.45776772  0.01041373  0.83026991  1
  In  In55  1  0.66278756  0.67127391  0.33758913  1
  In  In56  1  0.13955952  0.48137921  0.00013559  1
  In  In57  1  0.81784161  0.80905668  0.01665623  1
  In  In58  1  0.34035191  0.67809774  -0.02203192  1
  In  In59  1  0.51136137  0.81107787  0.01035290  1
  In  In60  1  0.30616848  0.82538505  0.50896747  1
  In  In61  1  0.02787039  0.32113104  0.65949040  1
  In  In62  1  0.83593266  0.47907416  0.31082387  1
  In  In63  1  0.69329858  0.32771060  0.00215770  1
  In  In64  1  -0.01183236  0.01760922  0.33666300  1
  In  In65  1  0.51156948  0.51364147  0.30044705  1
  In  In66  1  0.67233589  0.49510540  0.14612292  1
  In  In67  1  0.32892283  0.18573956  0.48620221  1
  In  In68  1  0.84926351  0.18440783  0.00995137  1
  In  In69  1  0.51244495  0.31946938  0.84587518  1
  In  In70  1  0.17059068  0.64054933  0.17672586  1
  In  In71  1  0.84296746  0.83679593  0.67018488  1
  Te  Te72  1  0.11885472  0.12063003  0.06737745  1
  Te  Te73  1  0.07176516  0.11472696  0.40819963  1
  Te  Te74  1  0.08600993  0.10640124  0.75649044  1
  Te  Te75  1  0.06048833  0.37953025  0.07729990  1
  Te  Te76  1  0.07129844  0.39546228  0.40673024  1
  Te  Te77  1  0.07950067  0.40433163  0.77729620  1
  Te  Te78  1  0.09994951  0.74437148  0.07410119  1
  Te  Te79  1  0.08662746  0.73060482  0.42211475  1
  Te  Te80  1  0.08965493  0.73317042  0.72850156  1
  Te  Te81  1  0.38841800  0.11620193  0.11992075  1
  Te  Te82  1  0.40992567  0.08009569  0.40593673  1
  Te  Te83  1  0.37994480  0.07179267  0.72451898  1
  Te  Te84  1  0.40529666  0.38240349  0.07527029  1
  Te  Te85  1  0.42650260  0.41675954  0.43160514  1
  Te  Te86  1  0.41453425  0.39484181  0.75569400  1
  Te  Te87  1  0.41839408  0.72867540  0.09780440  1
  Te  Te88  1  0.39079143  0.74149897  0.41266856  1
  Te  Te89  1  0.40935030  0.74437860  0.74028411  1
  Te  Te90  1  0.73247642  0.07628738  0.06624026  1
  Te  Te91  1  0.76677336  0.06744379  0.40332924  1
  Te  Te92  1  0.74126666  0.04274837  0.73358309  1
  Te  Te93  1  0.78071706  0.40999383  0.08709531  1
  Te  Te94  1  0.75574524  0.42694443  0.42164636  1
  Te  Te95  1  0.74964332  0.41759812  0.77641421  1
  Te  Te96  1  0.72657294  0.70582376  0.06572380  1
  Te  Te97  1  0.76890291  0.76301262  0.41219787  1
  Te  Te98  1  0.76122690  0.74158359  0.74578478  1
  Te  Te99  1  0.03380461  0.26656644  0.21345341  1
  Te  Te100  1  0.11631809  0.23132450  0.58121023  1
  Te  Te101  1  0.09286030  0.24849353  0.89014798  1
  Te  Te102  1  0.06009354  0.55266210  0.22658657  1
  Te  Te103  1  0.09390190  0.56596256  0.56478716  1
  Te  Te104  1  0.08407465  0.58752160  0.90672421  1
  Te  Te105  1  0.08690408  0.93680647  0.24068772  1
  Te  Te106  1  0.09280142  0.92291389  0.56703543  1
  Te  Te107  1  0.08217687  0.92386966  0.91706406  1
  Te  Te108  1  0.45038728  0.28843265  0.25557777  1
  Te  Te109  1  0.40554355  0.24916806  0.59344837  1
  Te  Te110  1  0.40645114  0.24045885  0.92022524  1
  Te  Te111  1  0.39223174  0.58276349  0.25572492  1
  Te  Te112  1  0.40328124  0.59391443  0.59272211  1
  Te  Te113  1  0.42530074  0.56822446  0.91494531  1
  Te  Te114  1  0.41447004  0.92713746  0.25100048  1
  Te  Te115  1  0.40397232  0.92667209  0.57369797  1
  Te  Te116  1  0.41117621  0.89459771  0.93237029  1
  Te  Te117  1  0.76159330  0.26513736  0.25621828  1
  Te  Te118  1  0.75567544  0.26483290  0.58897006  1
  Te  Te119  1  0.74239057  0.22727687  0.90107164  1
  Te  Te120  1  0.74825525  0.58535855  0.24652266  1
  Te  Te121  1  0.73243174  0.57185985  0.57248425  1
  Te  Te122  1  0.78111151  0.59829400  0.96719909  1
  Te  Te123  1  0.75313088  0.88863728  0.24066459  1
  Te  Te124  1  0.72443387  0.94101207  0.62034941  1
  Te  Te125  1  0.76940686  0.91307717  0.91634729  1
  Te  Te126  1  0.26745785  0.28600077  0.12043586  1
  Te  Te127  1  0.23333805  0.25123430  0.37627752  1
  Te  Te128  1  0.19506497  0.24546624  0.78199192  1
  Te  Te129  1  0.25055641  0.58302780  0.06000594  1
  Te  Te130  1  0.23732605  0.58274262  0.40796221  1
  Te  Te131  1  0.24565221  0.57595876  0.75275439  1
  Te  Te132  1  0.23871178  0.93420572  0.09279790  1
  Te  Te133  1  0.25373091  0.92463226  0.40573103  1
  Te  Te134  1  0.22223207  0.90203925  0.70532808  1
  Te  Te135  1  0.58739005  0.25141413  0.08206994  1
  Te  Te136  1  0.61508188  0.24324660  0.42204508  1
  Te  Te137  1  0.57229997  0.22530506  0.74856055  1
  Te  Te138  1  0.58822274  0.60243182  0.08482216  1
  Te  Te139  1  0.57285334  0.58470674  0.42267109  1
  Te  Te140  1  0.59760999  0.56894852  0.75958178  1
  Te  Te141  1  0.59076633  0.89979785  0.10366532  1
  Te  Te142  1  0.58738133  0.91691745  0.44690401  1
  Te  Te143  1  0.55989613  0.91877051  0.76145298  1
  Te  Te144  1  0.95143832  0.26385479  0.08059597  1
  Te  Te145  1  0.94144303  0.22851057  0.43203861  1
  Te  Te146  1  0.92263544  0.24510283  0.74168460  1
  Te  Te147  1  0.89371813  0.53908390  0.05943953  1
  Te  Te148  1  0.91139455  0.59574326  0.40044681  1
  Te  Te149  1  0.88951666  0.60793609  0.76394823  1
  Te  Te150  1  0.92308958  0.92345515  0.07770086  1
  Te  Te151  1  0.93614368  0.90919130  0.42876089  1
  Te  Te152  1  0.92586448  0.93175378  0.75210443  1
  Te  Te153  1  0.26395604  0.12615336  0.28916293  1
  Te  Te154  1  0.23639219  0.11276406  0.57819493  1
  Te  Te155  1  0.25820488  0.07063703  0.91560781  1
  Te  Te156  1  0.22658778  0.39863022  0.21615051  1
  Te  Te157  1  0.26565977  0.40628943  0.60027679  1
  Te  Te158  1  0.24666885  0.39575800  0.94036950  1
  Te  Te159  1  0.23826237  0.75541975  0.24708391  1
  Te  Te160  1  0.22365492  0.77228956  0.61801973  1
  Te  Te161  1  0.24512938  0.74701993  0.88245039  1
  Te  Te162  1  0.58642869  0.07788799  0.25408199  1
  Te  Te163  1  0.58379779  0.10592708  0.61184667  1
  Te  Te164  1  0.56834927  0.07709325  0.91018001  1
  Te  Te165  1  0.58804355  0.40892769  0.23511005  1
  Te  Te166  1  0.58184979  0.41950032  0.58786701  1
  Te  Te167  1  0.58741071  0.42323648  0.93263114  1
  Te  Te168  1  0.57314581  0.75645887  0.25975453  1
  Te  Te169  1  0.59638336  0.73467508  0.60612684  1
  Te  Te170  1  0.60323553  0.74520130  0.91039343  1
  Te  Te171  1  0.92400109  0.08898633  0.22062623  1
  Te  Te172  1  0.91632914  0.08550641  0.57696899  1
  Te  Te173  1  0.91225219  0.09704856  0.91054273  1
  Te  Te174  1  0.93870111  0.38529881  0.25849088  1
  Te  Te175  1  0.92287120  0.42291513  0.60327559  1
  Te  Te176  1  0.91596820  0.42003404  0.93747501  1
  Te  Te177  1  0.91177302  0.72742305  0.21012481  1
  Te  Te178  1  0.93320290  0.75446305  0.58130284  1
  Te  Te179  1  0.92808301  0.75420539  0.92700070  1
