# generated using pymatgen
data_In2Te3
_symmetry_space_group_name_H-M   'P 1'
_cell_length_a   18.83252480
_cell_length_b   18.83216920
_cell_length_c   18.82001542
_cell_angle_alpha   90.02533380
_cell_angle_beta   89.97388581
_cell_angle_gamma   90.11874190
_symmetry_Int_Tables_number   1
_chemical_formula_structural   In2Te3
_chemical_formula_sum   'In72 Te108'
_cell_volume   6674.64005475
_cell_formula_units_Z   36
loop_
 _symmetry_equiv_pos_site_id
 _symmetry_equiv_pos_as_xyz
  1  'x, y, z'
loop_
 _atom_site_type_symbol
 _atom_site_label
 _atom_site_symmetry_multiplicity
 _atom_site_fract_x
 _atom_site_fract_y
 _atom_site_fract_z
 _atom_site_occupancy
  In  In0  1  0.51399571  0.81840747  -0.00768843  1
  In  In1  1  0.68505322  0.14857714  0.83420487  1
  In  In2  1  0.00701774  0.82925085  0.82587089  1
  In  In3  1  0.64844666  0.84723609  0.50399264  1
  In  In4  1  0.49477420  -0.00760614  0.48605459  1
  In  In5  1  0.85979077  0.33109050  0.52114906  1
  In  In6  1  0.01934833  0.49009969  0.17358956  1
  In  In7  1  0.49828374  0.17775457  -0.01685214  1
  In  In8  1  0.33531078  0.65317214  0.66854038  1
  In  In9  1  0.80013864  0.67474192  0.15172730  1
  In  In10  1  0.48382783  0.13986391  0.32996107  1
  In  In11  1  0.51461164  0.66935576  0.82887149  1
  In  In12  1  0.68027668  0.81598563  0.15837738  1
  In  In13  1  0.00574167  0.49381160  0.51073156  1
  In  In14  1  0.15251775  0.65843216  0.49227694  1
  In  In15  1  0.50930680  0.49105512  0.33605541  1
  In  In16  1  0.65365341  0.49852383  0.84720432  1
  In  In17  1  0.17192720  0.64495715  0.82239352  1
  In  In18  1  0.15707442  -0.00064887  0.17361600  1
  In  In19  1  0.16134826  0.65834283  0.13805928  1
  In  In20  1  0.47600437  0.17340616  0.66657002  1
  In  In21  1  0.36137078  0.47325868  0.85020755  1
  In  In22  1  0.65019263  0.67036472  0.32159498  1
  In  In23  1  0.17559269  0.19211173  -0.01489117  1
  In  In24  1  0.50790812  -0.01147110  0.17665902  1
  In  In25  1  0.49379914  0.50670660  0.67378367  1
  In  In26  1  0.16728482  0.49570354  0.00054581  1
  In  In27  1  -0.01570602  0.66601331  -0.00599666  1
  In  In28  1  -0.09644683  -0.03142607  -0.01344027  1
  In  In29  1  0.48955315  0.31492097  0.51271484  1
  In  In30  1  0.52185228  0.83577951  0.66664111  1
  In  In31  1  0.50739526  0.64834228  0.16152204  1
  In  In32  1  0.65050134  0.34164556  0.69032250  1
  In  In33  1  0.31074276  0.01302799  -0.02004110  1
  In  In34  1  0.82685724  0.68442833  0.80573527  1
  In  In35  1  0.30122537  0.84848373  0.83261402  1
  In  In36  1  0.84231859  0.31452239  0.83626850  1
  In  In37  1  0.66376640  0.50199965  0.14752484  1
  In  In38  1  0.00602896  0.00720859  0.33962041  1
  In  In39  1  0.84201834  0.48603388  -0.01729274  1
  In  In40  1  0.17614465  0.47261101  0.39446829  1
  In  In41  1  0.85896271  0.47911795  0.33636842  1
  In  In42  1  0.33352005  0.82468938  0.50100670  1
  In  In43  1  0.00494657  0.66312704  0.66084382  1
  In  In44  1  0.17353366  0.15790626  0.36738737  1
  In  In45  1  0.35217308  0.69624307  0.33600986  1
  In  In46  1  0.67389419  0.17161797  0.48395916  1
  In  In47  1  0.83601934  0.01085131  0.51943750  1
  In  In48  1  0.82169335  0.84844806  0.32133972  1
  In  In49  1  0.17460200  0.32272172  0.16138521  1
  In  In50  1  0.69421497  0.51829656  0.49976126  1
  In  In51  1  0.82620201  0.16447172  0.33912908  1
  In  In52  1  0.33509885  0.83388142  0.17518515  1
  In  In53  1  0.31744502  0.16578260  0.15827445  1
  In  In54  1  0.18325945  0.86209221  0.36611432  1
  In  In55  1  0.31149244  0.31956552  0.34467992  1
  In  In56  1  0.15765834  0.16374006  0.64643242  1
  In  In57  1  -0.00503415  0.17171648  0.14698358  1
  In  In58  1  0.13905281  0.34106002  0.79775350  1
  In  In59  1  0.67953820  0.15029135  0.12346836  1
  In  In60  1  0.83557088  0.16377276  0.69177679  1
  In  In61  1  0.01561332  -0.00564937  0.66358961  1
  In  In62  1  0.82768580  0.68650970  0.53588998  1
  In  In63  1  0.17285761  0.01850811  0.83199256  1
  In  In64  1  0.50213322  0.48720249  0.00300985  1
  In  In65  1  0.67806197  0.01260764  0.67556633  1
  In  In66  1  0.84381885  0.35349517  0.15507481  1
  In  In67  1  0.00811293  0.68003138  0.33637698  1
  In  In68  1  0.32478611  -0.01309336  0.39055552  1
  In  In69  1  0.65655613  0.35459740  0.30011818  1
  In  In70  1  0.50313640  0.01633428  0.81714395  1
  In  In71  1  0.14815927  0.81569731  -0.02409165  1
  Te  Te72  1  0.09527768  0.08720673  0.06670058  1
  Te  Te73  1  0.06124560  0.09832049  0.44286856  1
  Te  Te74  1  0.06940403  0.10144875  0.76085192  1
  Te  Te75  1  0.07548996  0.39484044  0.07056515  1
  Te  Te76  1  0.06565055  0.37405073  0.43783191  1
  Te  Te77  1  0.06638576  0.43388507  0.70538927  1
  Te  Te78  1  0.06017264  0.76137959  0.08799540  1
  Te  Te79  1  0.07118300  0.77522987  0.43704864  1
  Te  Te80  1  0.10542310  0.75286082  0.73932852  1
  Te  Te81  1  0.41103448  0.06793118  0.08507378  1
  Te  Te82  1  0.39988971  0.10858004  0.45227129  1
  Te  Te83  1  0.39656504  0.06345936  0.72668583  1
  Te  Te84  1  0.42411602  0.42507353  0.10952689  1
  Te  Te85  1  0.41184087  0.40923278  0.42064238  1
  Te  Te86  1  0.43183688  0.39371127  0.74590631  1
  Te  Te87  1  0.41303595  0.74399466  0.08125632  1
  Te  Te88  1  0.44529561  0.76775249  0.42467255  1
  Te  Te89  1  0.41198083  0.76103727  0.75670477  1
  Te  Te90  1  0.79479000  0.08467873  0.04423080  1
  Te  Te91  1  0.74059438  0.05785783  0.40849825  1
  Te  Te92  1  0.79404424  0.04234912  0.77490965  1
  Te  Te93  1  0.73559040  0.40394617  0.05814200  1
  Te  Te94  1  0.75610947  0.39603454  0.41780634  1
  Te  Te95  1  0.75517049  0.42246641  0.76034308  1
  Te  Te96  1  0.76559611  0.77031989  0.04456178  1
  Te  Te97  1  0.74930526  0.74443111  0.41200423  1
  Te  Te98  1  0.72138559  0.78085824  0.77501021  1
  Te  Te99  1  0.09906102  0.22463520  0.24900913  1
  Te  Te100  1  0.12023377  0.28589953  0.55985421  1
  Te  Te101  1  0.07344014  0.25135965  0.89795523  1
  Te  Te102  1  0.09946455  0.58204828  0.26458844  1
  Te  Te103  1  0.12288472  0.54895273  0.60396507  1
  Te  Te104  1  0.06960984  0.57223953  0.91007228  1
  Te  Te105  1  0.07767429  0.90114818  0.25568158  1
  Te  Te106  1  0.07903001  0.90471775  0.56561874  1
  Te  Te107  1  0.07635833  0.93571687  0.91919304  1
  Te  Te108  1  0.40846080  0.24617725  0.25134111  1
  Te  Te109  1  0.38532965  0.28209455  0.61541383  1
  Te  Te110  1  0.39609595  0.23257264  0.89703537  1
  Te  Te111  1  0.41105719  0.57936299  0.25664119  1
  Te  Te112  1  0.41236415  0.57391655  0.57199082  1
  Te  Te113  1  0.42282859  0.59199275  0.92226445  1
  Te  Te114  1  0.40699479  0.92489797  0.27251284  1
  Te  Te115  1  0.41587989  0.91642140  0.59209028  1
  Te  Te116  1  0.41653322  0.91870803  0.91644761  1
  Te  Te117  1  0.75161541  0.25167546  0.23396185  1
  Te  Te118  1  0.74244451  0.24931089  0.59626553  1
  Te  Te119  1  0.74470217  0.24668276  0.92575771  1
  Te  Te120  1  0.74611720  0.56286166  0.26315009  1
  Te  Te121  1  0.77518957  0.57137872  0.61009604  1
  Te  Te122  1  0.75880978  0.58884627  0.91224489  1
  Te  Te123  1  0.75837820  0.93476813  0.21562908  1
  Te  Te124  1  0.75431548  0.90678928  0.59557671  1
  Te  Te125  1  0.76231180  0.97838787  0.92987732  1
  Te  Te126  1  0.28099622  0.27631857  0.06210484  1
  Te  Te127  1  0.24472655  0.25201899  0.46178898  1
  Te  Te128  1  0.24164868  0.26563346  0.71947514  1
  Te  Te129  1  0.26347669  0.56855380  0.08523875  1
  Te  Te130  1  0.26988995  0.59700726  0.41898126  1
  Te  Te131  1  0.26574400  0.54758847  0.75356582  1
  Te  Te132  1  0.24305265  0.90739233  0.07544267  1
  Te  Te133  1  0.20255542  0.96416542  0.49104503  1
  Te  Te134  1  0.23309020  0.92927214  0.73125013  1
  Te  Te135  1  0.57083143  0.24368250  0.09317434  1
  Te  Te136  1  0.57971099  0.25398381  0.39534086  1
  Te  Te137  1  0.57570245  0.23344027  0.76522974  1
  Te  Te138  1  0.60214449  0.60202148  0.05426880  1
  Te  Te139  1  0.57859382  0.58991402  0.42992462  1
  Te  Te140  1  0.60416649  0.59103941  0.73422520  1
  Te  Te141  1  0.59541956  0.91765817  0.07498551  1
  Te  Te142  1  0.58981344  0.92618531  0.39486806  1
  Te  Te143  1  0.60673319  0.91220785  0.77023248  1
  Te  Te144  1  0.91487507  0.26260048  0.06330010  1
  Te  Te145  1  0.92236033  0.23797411  0.42464361  1
  Te  Te146  1  0.93848543  0.25880356  0.73632743  1
  Te  Te147  1  0.91298259  0.57297933  0.10246537  1
  Te  Te148  1  0.91720680  0.59069658  0.42542900  1
  Te  Te149  1  0.93339038  0.59047966  0.76687760  1
  Te  Te150  1  0.87870645  0.90871747  0.11890647  1
  Te  Te151  1  0.91172977  0.91784442  0.42260650  1
  Te  Te152  1  0.91758191  0.91730940  0.74708055  1
  Te  Te153  1  0.25848262  0.06647317  0.26656063  1
  Te  Te154  1  0.25829224  0.07309427  0.58637589  1
  Te  Te155  1  0.28262650  0.12946870  0.88349761  1
  Te  Te156  1  0.23781121  0.42069419  0.25837075  1
  Te  Te157  1  0.21267783  0.43886431  0.53582863  1
  Te  Te158  1  0.23903613  0.40233239  0.90479777  1
  Te  Te159  1  0.23248123  0.75236549  0.25453554  1
  Te  Te160  1  0.24120173  0.74320639  0.58764403  1
  Te  Te161  1  0.25724403  0.72865086  0.91947396  1
  Te  Te162  1  0.59950359  0.09018883  0.24382446  1
  Te  Te163  1  0.58455099  0.08877647  0.58107072  1
  Te  Te164  1  0.59099118  0.06996455  0.92963136  1
  Te  Te165  1  0.54508378  0.41143971  0.20457289  1
  Te  Te166  1  0.59257678  0.41461249  0.56860999  1
  Te  Te167  1  0.56917870  0.39551691  0.90966693  1
  Te  Te168  1  0.56295874  0.76530921  0.24394603  1
  Te  Te169  1  0.59168097  0.73707460  0.58341086  1
  Te  Te170  1  0.61536535  0.75856893  0.89773045  1
  Te  Te171  1  0.91447299  0.08373145  0.24322585  1
  Te  Te172  1  0.93115775  0.10520944  0.58699118  1
  Te  Te173  1  0.89448469  0.10534037  0.92791902  1
  Te  Te174  1  0.95066470  0.38512715  0.26222642  1
  Te  Te175  1  0.93198179  0.41846051  0.62056894  1
  Te  Te176  1  0.93807189  0.40425883  0.90922747  1
  Te  Te177  1  0.90292040  0.74178972  0.24641042  1
  Te  Te178  1  0.92139856  0.77334217  0.60798642  1
  Te  Te179  1  0.90294189  0.76910832  0.92026671  1
