# generated using pymatgen
data_In2Te3
_symmetry_space_group_name_H-M   'P 1'
_cell_length_a   18.94858751
_cell_length_b   18.92828100
_cell_length_c   18.92791355
_cell_angle_alpha   90.01433184
_cell_angle_beta   90.00736343
_cell_angle_gamma   89.87949110
_symmetry_Int_Tables_number   1
_chemical_formula_structural   In2Te3
_chemical_formula_sum   'In72 Te108'
_cell_volume   6788.74947722
_cell_formula_units_Z   36
loop_
 _symmetry_equiv_pos_site_id
 _symmetry_equiv_pos_as_xyz
  1  'x, y, z'
loop_
 _atom_site_type_symbol
 _atom_site_label
 _atom_site_symmetry_multiplicity
 _atom_site_fract_x
 _atom_site_fract_y
 _atom_site_fract_z
 _atom_site_occupancy
  In  In0  1  0.66990896  0.66086462  0.67543660  1
  In  In1  1  0.68039033  0.35571265  0.01331600  1
  In  In2  1  -0.01059059  0.32454817  0.33763956  1
  In  In3  1  0.69060287  0.67986738  -0.00234101  1
  In  In4  1  0.32362875  0.85330607  0.17223407  1
  In  In5  1  0.16187873  0.67605524  0.84221485  1
  In  In6  1  0.51413187  0.66427704  0.15298744  1
  In  In7  1  0.68767163  0.64281273  0.33178628  1
  In  In8  1  0.82869089  0.34606700  0.83072228  1
  In  In9  1  0.84036860  0.15272290  -0.00534406  1
  In  In10  1  0.49207644  0.34317068  0.16842672  1
  In  In11  1  0.84399711  0.83824187  0.31005866  1
  In  In12  1  0.15937566  0.47194060  0.00162998  1
  In  In13  1  0.14806735  0.33340193  0.18075136  1
  In  In14  1  0.48427786  0.33040999  0.49063474  1
  In  In15  1  0.32157611  0.34084992  0.65982464  1
  In  In16  1  0.50830769  0.00235874  0.82805913  1
  In  In17  1  0.34942845  0.83693702  0.80562669  1
  In  In18  1  0.15728533  0.17215222  0.62733664  1
  In  In19  1  0.49209337  0.81876703  0.33237079  1
  In  In20  1  0.70462035  0.03169360  0.35350139  1
  In  In21  1  -0.00360789  0.82566760  0.50364419  1
  In  In22  1  0.13122521  0.64628163  0.20585837  1
  In  In23  1  0.84295027  0.50182268  0.01548694  1
  In  In24  1  0.32247169  0.50919870  0.86755968  1
  In  In25  1  0.31375574  0.48775738  0.19243959  1
  In  In26  1  0.31856936  0.66798721  0.64787911  1
  In  In27  1  0.33806197  0.16588025  0.80826903  1
  In  In28  1  0.69116890  0.00606390  0.66504135  1
  In  In29  1  0.85576695  0.66762437  0.48933973  1
  In  In30  1  0.48850039  0.16750884  0.34236407  1
  In  In31  1  0.84934883  0.49247522  0.32588821  1
  In  In32  1  0.18963239  0.85363270  0.01086874  1
  In  In33  1  0.33927299  0.66215049  0.02615778  1
  In  In34  1  0.49821516  0.52005234  0.66965549  1
  In  In35  1  0.49035446  0.47532337  0.32906958  1
  In  In36  1  0.00031732  0.83522615  0.16666207  1
  In  In37  1  0.33067620  0.01116263  -0.00073391  1
  In  In38  1  0.00826906  0.34980044  0.64658968  1
  In  In39  1  0.17107874  0.19769574  0.37201155  1
  In  In40  1  0.47448930  0.65988484  0.50836699  1
  In  In41  1  0.50425101  0.14325100  -0.01087178  1
  In  In42  1  0.67269579  0.86286650  0.50403973  1
  In  In43  1  0.30020668  0.17302972  0.19028530  1
  In  In44  1  -0.02955973  0.01174136  0.67019741  1
  In  In45  1  0.84187529  0.32664331  0.50451754  1
  In  In46  1  -0.00859408  0.02538013  0.07415508  1
  In  In47  1  0.00108383  0.66395208  -0.00241700  1
  In  In48  1  -0.01718755  0.83229133  0.80797078  1
  In  In49  1  0.66648135  0.31441395  0.31048194  1
  In  In50  1  0.52258378  -0.01301218  0.16945396  1
  In  In51  1  0.51985219  0.15870347  0.66618350  1
  In  In52  1  0.49007003  -0.00044644  0.50387765  1
  In  In53  1  0.16288847  -0.00081830  0.49087753  1
  In  In54  1  0.69223924  0.84322816  0.13401362  1
  In  In55  1  0.15175885  0.83931984  0.33659651  1
  In  In56  1  0.28379124  0.63191512  0.35393639  1
  In  In57  1  -0.02845671  0.02559055  0.32162782  1
  In  In58  1  0.14811469  0.50069274  0.59642526  1
  In  In59  1  0.16822960  0.82467550  0.68359350  1
  In  In60  1  0.49646438  0.84150930  0.65235067  1
  In  In61  1  0.50486868  0.50127317  0.00411311  1
  In  In62  1  0.69567389  0.84535224  0.86990779  1
  In  In63  1  0.84209982  0.48311740  0.66600990  1
  In  In64  1  0.68889555  0.16089214  0.14414923  1
  In  In65  1  0.82257353  0.17115816  0.66009951  1
  In  In66  1  0.64979056  0.47721500  0.51361987  1
  In  In67  1  -0.01393145  0.32832577  0.01058558  1
  In  In68  1  0.49915559  0.31317929  0.81760589  1
  In  In69  1  0.83612427  0.65155848  0.82569374  1
  In  In70  1  -0.00111933  0.17840739  0.85623318  1
  In  In71  1  0.15875380  0.00939831  0.84626121  1
  Te  Te72  1  0.12800944  0.07417095  0.06712886  1
  Te  Te73  1  0.06647690  0.09199022  0.42096289  1
  Te  Te74  1  0.07956476  0.09499251  0.74609022  1
  Te  Te75  1  0.05729772  0.42805831  0.10311090  1
  Te  Te76  1  0.09223447  0.42135612  0.38414616  1
  Te  Te77  1  0.09529404  0.44121910  0.72038275  1
  Te  Te78  1  0.10480709  0.74894087  0.08155115  1
  Te  Te79  1  0.09040579  0.73682487  0.42694198  1
  Te  Te80  1  0.06572537  0.72596359  0.73616666  1
  Te  Te81  1  0.41613301  0.08620459  0.10076332  1
  Te  Te82  1  0.40082929  0.09521389  0.43507379  1
  Te  Te83  1  0.41582553  0.06442124  0.72605665  1
  Te  Te84  1  0.39888808  0.42397834  0.08012758  1
  Te  Te85  1  0.38643336  0.40990256  0.41136478  1
  Te  Te86  1  0.40664189  0.42370600  0.76034990  1
  Te  Te87  1  0.42253789  0.77162236  0.09007248  1
  Te  Te88  1  0.39099047  0.73386978  0.40673367  1
  Te  Te89  1  0.43133882  0.73183774  0.73410097  1
  Te  Te90  1  0.74124294  0.05420492  0.05354995  1
  Te  Te91  1  0.79468608  0.10746206  0.44008789  1
  Te  Te92  1  0.77248093  0.07891057  0.76486153  1
  Te  Te93  1  0.78728727  0.39615618  0.10574900  1
  Te  Te94  1  0.74064516  0.41292980  0.41035203  1
  Te  Te95  1  0.73603918  0.40991174  0.73542679  1
  Te  Te96  1  0.77884940  0.72914397  0.10540992  1
  Te  Te97  1  0.74899621  0.75858975  0.41054817  1
  Te  Te98  1  0.75299831  0.75782625  0.75392802  1
  Te  Te99  1  0.07459297  0.22555642  0.25552190  1
  Te  Te100  1  0.06278255  0.25306832  0.54937882  1
  Te  Te101  1  0.09032137  0.27068116  0.92282374  1
  Te  Te102  1  0.06821487  0.54391196  0.29077933  1
  Te  Te103  1  0.09338251  0.62948130  0.54770509  1
  Te  Te104  1  0.08122627  0.56870424  0.91084775  1
  Te  Te105  1  0.07629563  0.93630725  0.24984474  1
  Te  Te106  1  0.07560108  0.92213443  0.60246392  1
  Te  Te107  1  0.08624936  0.89244785  0.90738831  1
  Te  Te108  1  0.40435359  0.26484672  0.26141693  1
  Te  Te109  1  0.41462917  0.24097058  0.59195617  1
  Te  Te110  1  0.41170523  0.24168017  0.91893064  1
  Te  Te111  1  0.41817943  0.58675972  0.24562417  1
  Te  Te112  1  0.38922443  0.55231569  0.56982000  1
  Te  Te113  1  0.43069382  0.60409215  0.92014928  1
  Te  Te114  1  0.41594698  0.93206073  0.26382018  1
  Te  Te115  1  0.39895542  0.89660527  0.55892980  1
  Te  Te116  1  0.41709857  0.91818964  0.91637227  1
  Te  Te117  1  0.76662555  0.22657425  0.25012346  1
  Te  Te118  1  0.74156034  0.27987164  0.60121877  1
  Te  Te119  1  0.75164283  0.25585985  0.92425844  1
  Te  Te120  1  0.77710946  0.58465821  0.23318592  1
  Te  Te121  1  0.74619252  0.58138419  0.56846810  1
  Te  Te122  1  0.74901460  0.56551722  0.91415931  1
  Te  Te123  1  0.75097674  0.93851400  0.24392840  1
  Te  Te124  1  0.77936166  0.91828111  0.58472861  1
  Te  Te125  1  0.76611040  0.91704747  0.97876328  1
  Te  Te126  1  0.25126543  0.27142737  0.09532440  1
  Te  Te127  1  0.27381045  0.28504661  0.43600776  1
  Te  Te128  1  0.23149609  0.24990994  0.74135301  1
  Te  Te129  1  0.23336517  0.57728374  0.09225991  1
  Te  Te130  1  0.21226590  0.56698469  0.46833509  1
  Te  Te131  1  0.24969722  0.58574866  0.75659119  1
  Te  Te132  1  0.22685091  0.96372592  0.11231419  1
  Te  Te133  1  0.25192498  0.92454540  0.39888947  1
  Te  Te134  1  0.25126047  0.93651567  0.74777996  1
  Te  Te135  1  0.57784171  0.25293255  0.08118561  1
  Te  Te136  1  0.59188795  0.24570103  0.42304078  1
  Te  Te137  1  0.60130986  0.21784678  0.77264755  1
  Te  Te138  1  0.61026637  0.57313868  0.08397754  1
  Te  Te139  1  0.57086240  0.57581057  0.41551108  1
  Te  Te140  1  0.59387832  0.57490935  0.76517011  1
  Te  Te141  1  0.58195621  0.90765312  0.06217034  1
  Te  Te142  1  0.58562270  0.92678650  0.39710237  1
  Te  Te143  1  0.59600065  0.90624625  0.74492204  1
  Te  Te144  1  0.92615531  0.21950360  0.09586393  1
  Te  Te145  1  0.88408799  0.22877773  0.39820973  1
  Te  Te146  1  0.92611647  0.25948336  0.74797581  1
  Te  Te147  1  0.92549673  0.59116989  0.09958825  1
  Te  Te148  1  0.94005885  0.59117471  0.39365548  1
  Te  Te149  1  0.92686477  0.57790128  0.73701545  1
  Te  Te150  1  0.90891766  0.89989908  0.06866601  1
  Te  Te151  1  0.91373366  0.92006415  0.41659605  1
  Te  Te152  1  0.88671507  0.93667096  0.76656499  1
  Te  Te153  1  0.24584493  0.09143076  0.29805558  1
  Te  Te154  1  0.25777576  0.08832028  0.56146947  1
  Te  Te155  1  0.24534250  0.10880595  0.92066205  1
  Te  Te156  1  0.21690176  0.42024141  0.28395951  1
  Te  Te157  1  0.22224214  0.37189463  0.54943149  1
  Te  Te158  1  0.24517567  0.39346186  0.91180773  1
  Te  Te159  1  0.24878616  0.74202777  0.24438710  1
  Te  Te160  1  0.25395584  0.77688527  0.57403719  1
  Te  Te161  1  0.27004513  0.75538817  0.91636606  1
  Te  Te162  1  0.59101062  0.09628864  0.25137309  1
  Te  Te163  1  0.60300863  0.08106117  0.56573873  1
  Te  Te164  1  0.60603861  0.08347767  0.90257851  1
  Te  Te165  1  0.59940568  0.42866329  0.23467344  1
  Te  Te166  1  0.56278005  0.39732249  0.60546251  1
  Te  Te167  1  0.57948794  0.40710354  0.91213908  1
  Te  Te168  1  0.59806084  0.74697485  0.24987252  1
  Te  Te169  1  0.58799150  0.74526659  0.56419788  1
  Te  Te170  1  0.59229590  0.75512367  0.91847946  1
  Te  Te171  1  0.91881894  0.08242728  0.19450843  1
  Te  Te172  1  0.90805041  0.09530663  0.56411391  1
  Te  Te173  1  0.94059249  0.06167806  0.92814692  1
  Te  Te174  1  0.90510916  0.39000421  0.23393347  1
  Te  Te175  1  0.92984741  0.44006832  0.54970385  1
  Te  Te176  1  0.92679387  0.42811223  0.90954744  1
  Te  Te177  1  0.94349978  0.74096940  0.26373051  1
  Te  Te178  1  0.90125094  0.75901325  0.59364795  1
  Te  Te179  1  0.90949315  0.75140348  0.91474728  1
