# generated using pymatgen
data_In2Te3
_symmetry_space_group_name_H-M   'P 1'
_cell_length_a   19.06491543
_cell_length_b   19.07708781
_cell_length_c   19.04520683
_cell_angle_alpha   89.96132925
_cell_angle_beta   90.08081877
_cell_angle_gamma   90.01579981
_symmetry_Int_Tables_number   1
_chemical_formula_structural   In2Te3
_chemical_formula_sum   'In72 Te108'
_cell_volume   6926.79138173
_cell_formula_units_Z   36
loop_
 _symmetry_equiv_pos_site_id
 _symmetry_equiv_pos_as_xyz
  1  'x, y, z'
loop_
 _atom_site_type_symbol
 _atom_site_label
 _atom_site_symmetry_multiplicity
 _atom_site_fract_x
 _atom_site_fract_y
 _atom_site_fract_z
 _atom_site_occupancy
  In  In0  1  0.18841201  0.50032722  0.33318270  1
  In  In1  1  0.37147532  0.49937199  0.16496703  1
  In  In2  1  0.50324418  0.50784961  0.67574929  1
  In  In3  1  0.83665086  0.66416265  0.82073846  1
  In  In4  1  0.64035705  0.33796557  0.32807073  1
  In  In5  1  -0.00603359  0.48972070  0.83710250  1
  In  In6  1  0.35883202  0.66048526  0.02236106  1
  In  In7  1  0.01634235  0.83200444  0.48624956  1
  In  In8  1  0.82858801  0.36056474  0.50990647  1
  In  In9  1  0.66699101  0.37383663  0.68651987  1
  In  In10  1  0.67784191  0.64172850  0.34061216  1
  In  In11  1  -0.03367408  0.01926511  0.67944945  1
  In  In12  1  0.49677125  0.83237162  0.65064843  1
  In  In13  1  0.01796991  -0.01143073  0.32381925  1
  In  In14  1  0.83987904  0.16848803  0.04083427  1
  In  In15  1  0.11208279  0.72763948  0.23205406  1
  In  In16  1  0.84588185  0.48243832  0.31475272  1
  In  In17  1  0.34469785  0.00639929  -0.00736503  1
  In  In18  1  0.86058373  0.67081402  0.19692724  1
  In  In19  1  0.64299981  0.49016750  0.86971055  1
  In  In20  1  0.48274522  0.18921154  -0.02620520  1
  In  In21  1  0.03729605  -0.02555632  0.07027929  1
  In  In22  1  0.31391165  0.70479933  0.63003777  1
  In  In23  1  0.33750624  0.52242839  0.81815406  1
  In  In24  1  0.79594776  -0.00187308  0.84256945  1
  In  In25  1  0.02088814  0.18365453  0.47472628  1
  In  In26  1  0.19560067  0.32744101  0.48976929  1
  In  In27  1  -0.00304137  0.30860082  -0.00782571  1
  In  In28  1  0.21627517  0.49592869  -0.00027438  1
  In  In29  1  0.67568884  0.82808114  0.15993363  1
  In  In30  1  0.84395728  0.82994933  0.67076369  1
  In  In31  1  0.64468738  -0.01858475  0.65087449  1
  In  In32  1  -0.01473011  0.65246414  -0.00671255  1
  In  In33  1  0.86067303  -0.02239515  0.18766187  1
  In  In34  1  0.50219127  0.67422541  0.86216142  1
  In  In35  1  0.32871556  0.84317609  0.83007402  1
  In  In36  1  0.31901732  0.14601453  0.17117879  1
  In  In37  1  0.33781514  0.33248697  0.33492009  1
  In  In38  1  0.68524970  0.82302687  0.51382523  1
  In  In39  1  0.30917026  0.83040039  0.17462914  1
  In  In40  1  0.48875761  0.15659043  0.35630996  1
  In  In41  1  0.17582596  0.13940467  0.01192578  1
  In  In42  1  0.01495989  0.48700816  0.15884285  1
  In  In43  1  0.48288040  0.00128282  0.50394590  1
  In  In44  1  0.01802298  0.48646863  0.47740681  1
  In  In45  1  0.81099571  0.61654245  0.51670808  1
  In  In46  1  0.32790127  0.04857746  0.68049799  1
  In  In47  1  0.15177825  0.68159798  0.82789346  1
  In  In48  1  0.00298419  0.31950263  0.68091464  1
  In  In49  1  0.16206294  0.29914805  0.16314296  1
  In  In50  1  0.13569748  0.50223844  0.66157573  1
  In  In51  1  0.67390827  -0.00878898  0.34063058  1
  In  In52  1  0.50373270  0.66499578  0.17466217  1
  In  In53  1  0.35167438  0.49035713  0.49222978  1
  In  In54  1  0.67781164  -0.00013591  0.01881468  1
  In  In55  1  0.81998225  0.19602012  0.32834442  1
  In  In56  1  0.67509324  0.65823458  0.01520186  1
  In  In57  1  0.81828002  0.20393596  0.68085820  1
  In  In58  1  0.33732186  0.16522024  0.50584625  1
  In  In59  1  0.03011615  0.68317664  0.64678581  1
  In  In60  1  0.47837953  0.84752222  0.31540981  1
  In  In61  1  0.33003161  0.30401049  0.66679038  1
  In  In62  1  0.80107418  0.35097865  0.85247101  1
  In  In63  1  0.86304376  0.02616560  0.47946754  1
  In  In64  1  0.50535240  0.33801712  0.14812683  1
  In  In65  1  0.03496003  0.09141903  0.88286806  1
  In  In66  1  0.47739086  0.01042681  0.81768585  1
  In  In67  1  0.14655474  0.82607895  -0.01933865  1
  In  In68  1  0.64715769  0.16915166  0.20504345  1
  In  In69  1  0.17211990  0.85666893  0.64789764  1
  In  In70  1  0.50532715  0.69168780  0.48315836  1
  In  In71  1  0.67755393  0.17884872  0.85253572  1
  Te  Te72  1  0.05305836  0.11951196  0.09887411  1
  Te  Te73  1  0.09692629  0.06655289  0.42870012  1
  Te  Te74  1  0.07196667  0.09575120  0.74223848  1
  Te  Te75  1  0.10322649  0.40485151  0.06189566  1
  Te  Te76  1  0.09947989  0.39228703  0.39277728  1
  Te  Te77  1  0.09697136  0.40216201  0.76776314  1
  Te  Te78  1  0.08190194  0.73279164  0.07636069  1
  Te  Te79  1  0.05936261  0.74369523  0.37603790  1
  Te  Te80  1  0.07964065  0.78444152  0.74746060  1
  Te  Te81  1  0.42962623  0.09342721  0.07999361  1
  Te  Te82  1  0.38554276  0.05680788  0.40434457  1
  Te  Te83  1  0.46024011  0.10874666  0.71013350  1
  Te  Te84  1  0.40358057  0.40058232  0.06339918  1
  Te  Te85  1  0.43763196  0.39876843  0.41833328  1
  Te  Te86  1  0.41081794  0.41144888  0.74349864  1
  Te  Te87  1  0.43081424  0.76842792  0.09436220  1
  Te  Te88  1  0.40895790  0.78445873  0.42655210  1
  Te  Te89  1  0.41048639  0.74365673  0.75028346  1
  Te  Te90  1  0.75203181  0.08065577  0.13016627  1
  Te  Te91  1  0.74510014  0.09912783  0.41928310  1
  Te  Te92  1  0.73315649  0.08889099  0.73301090  1
  Te  Te93  1  0.63158438  0.43588766  0.01005635  1
  Te  Te94  1  0.74179012  0.42595725  0.40734764  1
  Te  Te95  1  0.78948336  0.44397068  0.73468040  1
  Te  Te96  1  0.77799764  0.74287378  0.09076418  1
  Te  Te97  1  0.76558113  0.73111249  0.42551001  1
  Te  Te98  1  0.74709707  0.74974846  0.74212722  1
  Te  Te99  1  0.11146251  0.17672471  0.23268019  1
  Te  Te100  1  0.10004949  0.25480522  0.58329392  1
  Te  Te101  1  0.09650838  0.22935020  0.91453617  1
  Te  Te102  1  0.08314828  0.57597043  0.25699399  1
  Te  Te103  1  0.10080721  0.59376860  0.54630364  1
  Te  Te104  1  0.10122563  0.57127236  0.91787691  1
  Te  Te105  1  0.09874478  0.92528197  0.20490797  1
  Te  Te106  1  0.05644276  0.93441228  0.58757455  1
  Te  Te107  1  0.08185158  0.94960241  0.92449193  1
  Te  Te108  1  0.42186645  0.23929765  0.24470510  1
  Te  Te109  1  0.42099576  0.27404317  0.55703011  1
  Te  Te110  1  0.37651739  0.20483178  0.87151282  1
  Te  Te111  1  0.41493267  0.59390628  0.26626047  1
  Te  Te112  1  0.41387166  0.59973722  0.58742025  1
  Te  Te113  1  0.42966199  0.56260981  0.93238994  1
  Te  Te114  1  0.38646430  0.93444257  0.24414924  1
  Te  Te115  1  0.39520745  0.92838156  0.60161349  1
  Te  Te116  1  0.43179627  0.90620265  0.91959344  1
  Te  Te117  1  0.74366380  0.28260237  0.23080081  1
  Te  Te118  1  0.73017676  0.27344158  0.58359222  1
  Te  Te119  1  0.74668883  0.25872521  0.96000411  1
  Te  Te120  1  0.75152434  0.56837766  0.23250068  1
  Te  Te121  1  0.74260240  0.53623405  0.61712572  1
  Te  Te122  1  0.75876591  0.57751426  0.91813912  1
  Te  Te123  1  0.76177653  0.89422396  0.26661672  1
  Te  Te124  1  0.77383952  0.93639931  0.57462178  1
  Te  Te125  1  0.72710897  0.89983966  0.92425097  1
  Te  Te126  1  0.26745270  0.24556437  0.06896741  1
  Te  Te127  1  0.24861361  0.22730738  0.39240996  1
  Te  Te128  1  0.27100764  0.20428629  0.75623201  1
  Te  Te129  1  0.25780325  0.59014460  0.10806880  1
  Te  Te130  1  0.27749823  0.58576085  0.41008980  1
  Te  Te131  1  0.23452931  0.60482077  0.72717578  1
  Te  Te132  1  0.25030710  0.90720801  0.05547149  1
  Te  Te133  1  0.16108032  0.93448887  0.34141060  1
  Te  Te134  1  0.24307578  0.93680490  0.75440259  1
  Te  Te135  1  0.58621877  0.23000395  0.08142021  1
  Te  Te136  1  0.58945913  0.23817788  0.42179519  1
  Te  Te137  1  0.59420946  0.27490776  0.77363278  1
  Te  Te138  1  0.57647414  0.57105578  0.08502185  1
  Te  Te139  1  0.58283759  0.58075720  0.43191092  1
  Te  Te140  1  0.58760623  0.59011555  0.76997050  1
  Te  Te141  1  0.58584412  0.92848928  0.10604400  1
  Te  Te142  1  0.58762809  0.90830781  0.43554403  1
  Te  Te143  1  0.57559419  0.90464379  0.75729096  1
  Te  Te144  1  0.92481736  0.26496786  0.11281912  1
  Te  Te145  1  0.91385196  0.27434255  0.41738551  1
  Te  Te146  1  0.90826749  0.26235424  0.78410836  1
  Te  Te147  1  0.90830031  0.57012293  0.09200016  1
  Te  Te148  1  0.91373132  0.57502878  0.41356842  1
  Te  Te149  1  0.94751504  0.59318041  0.73913496  1
  Te  Te150  1  0.90554266  0.91342544  0.06551968  1
  Te  Te151  1  0.91229771  0.90753122  0.40604028  1
  Te  Te152  1  0.90628219  0.91996383  0.77497644  1
  Te  Te153  1  0.20915275  0.05940976  0.22266860  1
  Te  Te154  1  0.23627554  0.08526482  0.57341448  1
  Te  Te155  1  0.26826905  0.09310237  0.89800442  1
  Te  Te156  1  0.25307892  0.40297267  0.22935618  1
  Te  Te157  1  0.24767644  0.42705682  0.59335737  1
  Te  Te158  1  0.26394797  0.41654195  0.88818588  1
  Te  Te159  1  0.25521730  0.73432460  0.26880072  1
  Te  Te160  1  0.22952245  0.77862637  0.53821105  1
  Te  Te161  1  0.26407631  0.73095033  0.91897792  1
  Te  Te162  1  0.56334489  0.05968427  0.26437647  1
  Te  Te163  1  0.57236848  0.08921805  0.58226059  1
  Te  Te164  1  0.58047146  0.08054459  0.91358827  1
  Te  Te165  1  0.56374469  0.42995010  0.24465608  1
  Te  Te166  1  0.59603310  0.44701111  0.57901018  1
  Te  Te167  1  0.56008270  0.36737638  0.89747462  1
  Te  Te168  1  0.59367882  0.75094766  0.27071726  1
  Te  Te169  1  0.59921054  0.73404551  0.59804048  1
  Te  Te170  1  0.59468065  0.75470759  0.93901643  1
  Te  Te171  1  0.91295870  0.09173615  0.27173226  1
  Te  Te172  1  0.91129763  0.13077628  0.57958581  1
  Te  Te173  1  0.88755419  0.09118603  0.92106071  1
  Te  Te174  1  0.93915652  0.39418151  0.24353171  1
  Te  Te175  1  0.93987060  0.42341278  0.59089694  1
  Te  Te176  1  0.90830743  0.41935229  0.93866643  1
  Te  Te177  1  0.96317295  0.76218243  0.25100519  1
  Te  Te178  1  0.91299690  0.73976484  0.57031011  1
  Te  Te179  1  0.92939311  0.74664715  0.89892253  1
