# generated using pymatgen
data_In2Te3
_symmetry_space_group_name_H-M   'P 1'
_cell_length_a   18.76380258
_cell_length_b   18.77436756
_cell_length_c   18.77143250
_cell_angle_alpha   89.94541424
_cell_angle_beta   89.97681247
_cell_angle_gamma   89.94359270
_symmetry_Int_Tables_number   1
_chemical_formula_structural   In2Te3
_chemical_formula_sum   'In72 Te108'
_cell_volume   6612.76583274
_cell_formula_units_Z   36
loop_
 _symmetry_equiv_pos_site_id
 _symmetry_equiv_pos_as_xyz
  1  'x, y, z'
loop_
 _atom_site_type_symbol
 _atom_site_label
 _atom_site_symmetry_multiplicity
 _atom_site_fract_x
 _atom_site_fract_y
 _atom_site_fract_z
 _atom_site_occupancy
  In  In0  1  0.00888232  0.47197241  0.49411963  1
  In  In1  1  0.46827727  0.64404698  0.85762348  1
  In  In2  1  -0.01984040  0.34822131  0.67630351  1
  In  In3  1  0.67764036  0.16495297  0.15344228  1
  In  In4  1  0.83217732  0.33931942  0.15409018  1
  In  In5  1  0.31370134  0.82178413  0.17589497  1
  In  In6  1  0.17936296  0.18794664  0.32294580  1
  In  In7  1  0.65662490  0.01693602  -0.02539580  1
  In  In8  1  0.17481313  0.66518646  0.50057850  1
  In  In9  1  0.82940049  0.15686021  -0.00314536  1
  In  In10  1  0.66339962  0.67040685  0.03733898  1
  In  In11  1  0.50341435  0.34843683  0.17656551  1
  In  In12  1  0.65866427  0.65304468  0.33387282  1
  In  In13  1  -0.02054453  0.18183917  0.82991434  1
  In  In14  1  0.84009290  0.15181144  0.34111529  1
  In  In15  1  0.81658279  0.50183328  0.32069348  1
  In  In16  1  0.34149992  0.17168817  0.15676412  1
  In  In17  1  0.01024399  0.32050899  0.02242993  1
  In  In18  1  0.33429835  0.66108519  0.68472323  1
  In  In19  1  0.32273218  0.83443639  0.82297756  1
  In  In20  1  0.48914087  0.33868954  0.50339589  1
  In  In21  1  0.00655994  0.66700389  0.00760043  1
  In  In22  1  -0.00590503  -0.00945126  0.33301202  1
  In  In23  1  0.50157800  0.01056754  0.81419204  1
  In  In24  1  0.48733063  -0.01331996  0.52234592  1
  In  In25  1  0.66328734  0.01676437  0.65876401  1
  In  In26  1  0.16295457  0.82669736  0.00413485  1
  In  In27  1  0.16867970  0.82953840  0.66923194  1
  In  In28  1  0.84482391  0.68334659  0.85405218  1
  In  In29  1  -0.00375446  0.83777129  0.16414219  1
  In  In30  1  0.67030884  0.84814552  0.82636061  1
  In  In31  1  -0.00652209  -0.00758793  0.66759557  1
  In  In32  1  0.83212472  0.49869011  0.01756015  1
  In  In33  1  0.68792424  0.83081405  0.17695527  1
  In  In34  1  0.83246200  -0.00794293  0.82049837  1
  In  In35  1  0.00647880  0.67399941  0.31598004  1
  In  In36  1  -0.01460107  0.16312456  0.49502556  1
  In  In37  1  0.18971208  -0.00927988  0.49582595  1
  In  In38  1  0.16375829  0.32608252  0.47758882  1
  In  In39  1  0.49002459  0.65110256  0.16220778  1
  In  In40  1  0.14156592  0.15284266  0.03082409  1
  In  In41  1  0.50424186  0.18035597  0.33177270  1
  In  In42  1  0.51090474  0.81598074  0.01311299  1
  In  In43  1  0.01035042  0.51446777  0.17199082  1
  In  In44  1  0.20720073  0.36258071  0.86886129  1
  In  In45  1  0.49843354  0.47424854  0.67646380  1
  In  In46  1  0.66036831  0.34181198  -0.00099013  1
  In  In47  1  0.66375650  0.67654141  0.65717536  1
  In  In48  1  0.64474576  0.28186632  0.67376719  1
  In  In49  1  0.64875751  0.47947200  0.84493592  1
  In  In50  1  0.16996320  -0.02637426  0.83663510  1
  In  In51  1  0.83676585  0.34215070  0.81810505  1
  In  In52  1  0.35265196  0.17704000  0.83673393  1
  In  In53  1  0.48421519  0.68444941  0.45894846  1
  In  In54  1  0.34143077  0.50153469  0.48571919  1
  In  In55  1  0.83161431  -0.01477599  0.48046655  1
  In  In56  1  0.46624989  0.00131556  0.16132388  1
  In  In57  1  0.83419060  0.51163150  0.63520284  1
  In  In58  1  0.64317132  0.35779270  0.33121086  1
  In  In59  1  0.32918956  -0.00321885  0.31881803  1
  In  In60  1  0.18526960  0.51336531  0.67806467  1
  In  In61  1  0.83838279  0.67544295  0.50189338  1
  In  In62  1  0.01810138  0.52279002  0.84884785  1
  In  In63  1  0.17964303  0.33812494  0.16217740  1
  In  In64  1  0.17039544  0.80881510  0.33162567  1
  In  In65  1  0.32459546  0.50365942  0.16867664  1
  In  In66  1  0.00203909  0.69484947  0.67388656  1
  In  In67  1  0.18033022  0.15164621  0.64863308  1
  In  In68  1  0.67841535  -0.01051312  0.33511847  1
  In  In69  1  0.66690799  0.83273854  0.50107726  1
  In  In70  1  0.33149924  0.00045683  -0.00068344  1
  In  In71  1  0.35270079  0.32444604  0.67084635  1
  Te  Te72  1  0.05158532  0.05543916  0.09589469  1
  Te  Te73  1  0.09388032  0.08486008  0.41769044  1
  Te  Te74  1  0.08311401  0.08659777  0.75231966  1
  Te  Te75  1  0.09389077  0.43518421  0.07173570  1
  Te  Te76  1  0.09947662  0.42408767  0.38739975  1
  Te  Te77  1  0.08785156  0.41589250  0.76363509  1
  Te  Te78  1  0.09825691  0.73653119  0.10859068  1
  Te  Te79  1  0.07046070  0.75332490  0.43302517  1
  Te  Te80  1  0.10625398  0.73852348  0.76731180  1
  Te  Te81  1  0.43145960  0.10332011  0.05199708  1
  Te  Te82  1  0.42271771  0.07681942  0.40809271  1
  Te  Te83  1  0.41539231  0.09707932  0.72950512  1
  Te  Te84  1  0.39952175  0.40169381  0.08236340  1
  Te  Te85  1  0.42501701  0.41809032  0.39676654  1
  Te  Te86  1  0.40445639  0.41704500  0.77795502  1
  Te  Te87  1  0.39608918  0.73994442  0.07425692  1
  Te  Te88  1  0.38814787  0.77596949  0.39914139  1
  Te  Te89  1  0.43373191  0.75365323  0.75495244  1
  Te  Te90  1  0.75832588  0.05574515  0.08708515  1
  Te  Te91  1  0.73280347  0.09281435  0.43291421  1
  Te  Te92  1  0.73108253  0.08682683  0.77071376  1
  Te  Te93  1  0.72364270  0.43420325  0.10333623  1
  Te  Te94  1  0.74799231  0.41531707  0.41836487  1
  Te  Te95  1  0.74447080  0.43124063  0.73537184  1
  Te  Te96  1  0.76775247  0.76794797  0.06815353  1
  Te  Te97  1  0.75195949  0.75451395  0.40285279  1
  Te  Te98  1  0.76174950  0.75436426  0.74492253  1
  Te  Te99  1  0.08118819  0.25323754  0.23487232  1
  Te  Te100  1  0.07562971  0.25284824  0.59174827  1
  Te  Te101  1  0.08946310  0.25326370  0.90969932  1
  Te  Te102  1  0.11107138  0.58952558  0.25193176  1
  Te  Te103  1  0.07336276  0.57501769  0.59101627  1
  Te  Te104  1  0.11497218  0.58910361  0.93822200  1
  Te  Te105  1  0.10107046  0.91629631  0.25184236  1
  Te  Te106  1  0.08324119  0.91197788  0.57262374  1
  Te  Te107  1  0.06765424  0.90448794  0.91729531  1
  Te  Te108  1  0.40111472  0.26576551  0.25950687  1
  Te  Te109  1  0.43967218  0.23118889  0.59522003  1
  Te  Te110  1  0.43165840  0.29231064  0.88707359  1
  Te  Te111  1  0.40637368  0.58493080  0.26429315  1
  Te  Te112  1  0.42477217  0.57848515  0.59011968  1
  Te  Te113  1  0.39241473  0.56840172  0.96095617  1
  Te  Te114  1  0.42613694  0.88920192  0.25575623  1
  Te  Te115  1  0.37848289  0.93076695  0.60416741  1
  Te  Te116  1  0.42839972  0.91426031  0.91777571  1
  Te  Te117  1  0.74523191  0.25723767  0.25336485  1
  Te  Te118  1  0.76897495  0.24966073  0.60518431  1
  Te  Te119  1  0.74977957  0.25472968  0.91012889  1
  Te  Te120  1  0.74827068  0.59572865  0.22981346  1
  Te  Te121  1  0.72623374  0.58310531  0.55366783  1
  Te  Te122  1  0.74983516  0.57781558  0.91417616  1
  Te  Te123  1  0.77788690  0.92366281  0.24886734  1
  Te  Te124  1  0.75606958  0.91289154  0.59379658  1
  Te  Te125  1  0.75792326  0.90874705  0.93375461  1
  Te  Te126  1  0.25485323  0.24946434  0.05792549  1
  Te  Te127  1  0.27001559  0.23665302  0.42903684  1
  Te  Te128  1  0.23892696  0.25401971  0.74992365  1
  Te  Te129  1  0.25365579  0.57597784  0.05546455  1
  Te  Te130  1  0.24933296  0.58392103  0.40316485  1
  Te  Te131  1  0.25816363  0.58320153  0.78448546  1
  Te  Te132  1  0.23860486  0.92833004  0.09308334  1
  Te  Te133  1  0.27863941  0.88882825  0.42050313  1
  Te  Te134  1  0.27187106  0.94184647  0.72165379  1
  Te  Te135  1  0.57218670  0.24640042  0.08122603  1
  Te  Te136  1  0.59623139  0.24932381  0.42857118  1
  Te  Te137  1  0.56574250  0.23698803  0.78994786  1
  Te  Te138  1  0.56226108  0.56743509  0.06106677  1
  Te  Te139  1  0.56871909  0.57077802  0.41908977  1
  Te  Te140  1  0.58061103  0.58743543  0.75295884  1
  Te  Te141  1  0.58360004  0.92912927  0.08537818  1
  Te  Te142  1  0.57286025  0.91295260  0.41215774  1
  Te  Te143  1  0.57395064  0.90892175  0.72573440  1
  Te  Te144  1  0.92053886  0.22640229  0.09961717  1
  Te  Te145  1  0.92701505  0.25711558  0.39814575  1
  Te  Te146  1  0.88007456  0.23012619  0.71919614  1
  Te  Te147  1  0.90449247  0.60119454  0.10194199  1
  Te  Te148  1  0.92432123  0.57814299  0.41721750  1
  Te  Te149  1  0.91272632  0.57828733  0.75083976  1
  Te  Te150  1  0.94800581  0.94548329  0.07532232  1
  Te  Te151  1  0.92026288  0.88970028  0.41196310  1
  Te  Te152  1  0.92614454  0.89647487  0.75702451  1
  Te  Te153  1  0.24100918  0.08201968  0.22843310  1
  Te  Te154  1  0.28281275  0.08588232  0.56314974  1
  Te  Te155  1  0.24087212  0.08862172  0.91092068  1
  Te  Te156  1  0.25053440  0.41617091  0.26575428  1
  Te  Te157  1  0.25102882  0.41234778  0.58379621  1
  Te  Te158  1  0.28673759  0.44854905  0.96675480  1
  Te  Te159  1  0.25095880  0.70981434  0.25294621  1
  Te  Te160  1  0.26936875  0.75289878  0.58189487  1
  Te  Te161  1  0.26306731  0.74878270  0.92620090  1
  Te  Te162  1  0.57992961  0.07779263  0.24208482  1
  Te  Te163  1  0.56857707  0.09919883  0.57805953  1
  Te  Te164  1  0.57685541  0.11744218  0.89443176  1
  Te  Te165  1  0.57225710  0.45799414  0.24884408  1
  Te  Te166  1  0.59871819  0.40478804  0.58819396  1
  Te  Te167  1  0.54521646  0.40677221  0.92389829  1
  Te  Te168  1  0.57933595  0.75015788  0.24413630  1
  Te  Te169  1  0.55979811  0.75388538  0.57608057  1
  Te  Te170  1  0.59248921  0.74025564  0.90772989  1
  Te  Te171  1  0.92101658  0.08017370  0.23945013  1
  Te  Te172  1  0.89757988  0.07706851  0.58513027  1
  Te  Te173  1  0.92848267  0.07091680  0.91916038  1
  Te  Te174  1  0.92374590  0.41476677  0.24919072  1
  Te  Te175  1  0.89266163  0.39344366  0.55705633  1
  Te  Te176  1  0.92322194  0.41478980  0.92523275  1
  Te  Te177  1  0.90447445  0.75836224  0.25085371  1
  Te  Te178  1  0.91085614  0.77140267  0.58824083  1
  Te  Te179  1  0.94078087  0.77154678  0.92261487  1
