# generated using pymatgen
data_In2Te3
_symmetry_space_group_name_H-M   'P 1'
_cell_length_a   19.02507495
_cell_length_b   19.02697578
_cell_length_c   19.04519750
_cell_angle_alpha   90.13359379
_cell_angle_beta   89.77485142
_cell_angle_gamma   90.00414881
_symmetry_Int_Tables_number   1
_chemical_formula_structural   In2Te3
_chemical_formula_sum   'In72 Te108'
_cell_volume   6894.09221225
_cell_formula_units_Z   36
loop_
 _symmetry_equiv_pos_site_id
 _symmetry_equiv_pos_as_xyz
  1  'x, y, z'
loop_
 _atom_site_type_symbol
 _atom_site_label
 _atom_site_symmetry_multiplicity
 _atom_site_fract_x
 _atom_site_fract_y
 _atom_site_fract_z
 _atom_site_occupancy
  In  In0  1  0.02554609  0.67037097  0.68480372  1
  In  In1  1  0.02109469  0.69156237  0.31005550  1
  In  In2  1  0.53445363  0.32223140  0.17265374  1
  In  In3  1  0.31180227  0.47628116  0.51697946  1
  In  In4  1  0.33886517  0.01712754  0.66497223  1
  In  In5  1  -0.00864347  0.01132108  0.68307249  1
  In  In6  1  0.63556315  -0.00017327  -0.01896494  1
  In  In7  1  0.17055544  0.84330276  0.66057103  1
  In  In8  1  0.16469932  0.02068784  0.15627617  1
  In  In9  1  0.69785189  0.31530151  0.33855653  1
  In  In10  1  0.30967919  0.66647120  -0.11495338  1
  In  In11  1  0.68266398  0.48832773  0.16336226  1
  In  In12  1  0.48863173  0.00073891  0.50829252  1
  In  In13  1  0.49869286  0.66998731  0.15192932  1
  In  In14  1  0.81862803  0.65906596  0.49811952  1
  In  In15  1  0.81948054  0.16953695  0.65798697  1
  In  In16  1  -0.01008948  0.14062590  0.82924408  1
  In  In17  1  0.34477037  0.17382422  0.51011762  1
  In  In18  1  0.48040672  0.16806635  -0.00312176  1
  In  In19  1  0.02064662  0.32937940  0.00939475  1
  In  In20  1  0.68718691  0.84677822  0.15679819  1
  In  In21  1  0.83117634  0.28719342  0.88384028  1
  In  In22  1  0.82534585  0.86604984  -0.00099035  1
  In  In23  1  0.66034861  0.66247995  0.63302936  1
  In  In24  1  0.63840421  -0.00441378  0.68538998  1
  In  In25  1  0.33313212  0.84346474  0.14875016  1
  In  In26  1  0.18105780  0.17008231  -0.00222824  1
  In  In27  1  0.49263506  0.64327703  0.83422419  1
  In  In28  1  0.33009930  0.00783836  0.33370030  1
  In  In29  1  0.87009599  0.17497130  0.33826789  1
  In  In30  1  0.15148221  0.67795382  0.48821310  1
  In  In31  1  0.82825322  0.01761620  0.16768446  1
  In  In32  1  0.82842321  0.50877815  0.33262959  1
  In  In33  1  0.35311507  -0.02244643  -0.02036463  1
  In  In34  1  0.51781487  0.82464352  -0.01315733  1
  In  In35  1  0.86575490  0.69734180  0.14356254  1
  In  In36  1  0.34163878  0.17910174  0.82425787  1
  In  In37  1  0.49516183  0.49748922  0.00705129  1
  In  In38  1  0.32128635  0.49904422  0.16480821  1
  In  In39  1  0.01219052  0.66308980  -0.01522495  1
  In  In40  1  0.66218126  0.47575520  0.50697598  1
  In  In41  1  0.33375878  0.83889245  0.47906361  1
  In  In42  1  0.84498093  0.49588153  -0.00954976  1
  In  In43  1  0.01294628  0.33537354  0.33887734  1
  In  In44  1  0.82257559  0.67425668  0.81168408  1
  In  In45  1  0.34711461  0.69489120  0.30658115  1
  In  In46  1  0.15857171  0.49087031  -0.00935647  1
  In  In47  1  0.83417212  0.83265012  0.63926576  1
  In  In48  1  0.66653133  0.65015536  0.35006093  1
  In  In49  1  0.17155160  0.34722904  0.81497648  1
  In  In50  1  0.32941061  0.55736143  0.72028901  1
  In  In51  1  0.14771488  -0.00929727  0.82170171  1
  In  In52  1  0.67425945  0.17273066  0.49916285  1
  In  In53  1  0.15407387  0.65100269  0.13430854  1
  In  In54  1  0.12597632  0.15346787  0.35048815  1
  In  In55  1  0.13592800  0.32114040  0.54364019  1
  In  In56  1  0.33332959  0.30866107  0.34739347  1
  In  In57  1  0.33752601  0.18254820  0.14654990  1
  In  In58  1  0.67058202  0.85598503  0.50623515  1
  In  In59  1  0.52386391  0.83895770  0.34886499  1
  In  In60  1  0.18398918  0.50479368  0.33465185  1
  In  In61  1  -0.00715486  0.51048726  0.52486188  1
  In  In62  1  0.83899534  0.46708234  0.70767637  1
  In  In63  1  0.01099421  0.83153329  0.82139839  1
  In  In64  1  0.49432114  0.34757993  0.51342919  1
  In  In65  1  0.57088332  0.08603115  0.13363120  1
  In  In66  1  -0.03917072  0.96626087  0.48230343  1
  In  In67  1  0.49807940  0.33834702  0.83873445  1
  In  In68  1  0.80420238  0.02024831  0.83906623  1
  In  In69  1  0.86000886  0.30962753  0.15776232  1
  In  In70  1  0.16874359  0.87352029  0.31390529  1
  In  In71  1  0.65674430  0.48988765  0.82843853  1
  Te  Te72  1  0.07514645  0.10264481  0.07349544  1
  Te  Te73  1  0.04935951  0.08257410  0.45444071  1
  Te  Te74  1  0.10954565  0.10450297  0.72563694  1
  Te  Te75  1  0.08181149  0.42753901  0.09760454  1
  Te  Te76  1  0.09843975  0.43324609  0.43644181  1
  Te  Te77  1  0.09759546  0.42874135  0.71730250  1
  Te  Te78  1  0.07501759  0.75830470  0.07654913  1
  Te  Te79  1  0.08258667  0.78620259  0.40949453  1
  Te  Te80  1  0.13056921  0.74403169  0.77981442  1
  Te  Te81  1  0.41023088  0.05969846  0.09569318  1
  Te  Te82  1  0.42724287  0.09490384  0.40725235  1
  Te  Te83  1  0.43502633  0.08894105  0.75177787  1
  Te  Te84  1  0.42540711  0.40606108  0.10383380  1
  Te  Te85  1  0.40588539  0.42329844  0.41119335  1
  Te  Te86  1  0.41438711  0.43774876  0.76933393  1
  Te  Te87  1  0.40768293  0.74653975  0.05979982  1
  Te  Te88  1  0.43630300  0.73936962  0.42033855  1
  Te  Te89  1  0.37880299  0.70312203  0.75724472  1
  Te  Te90  1  0.74617866  0.07677099  0.05059936  1
  Te  Te91  1  0.77458729  0.09094750  0.42042427  1
  Te  Te92  1  0.71918152  0.10875022  0.75511394  1
  Te  Te93  1  0.76567661  0.39877071  0.07559806  1
  Te  Te94  1  0.77470172  0.40890262  0.43079795  1
  Te  Te95  1  0.74823117  0.37678172  0.78719016  1
  Te  Te96  1  0.75035199  0.74788788  0.06154616  1
  Te  Te97  1  0.74934136  0.75995573  0.41222938  1
  Te  Te98  1  0.73375947  0.76010664  0.72623423  1
  Te  Te99  1  0.07989712  0.24340849  0.24723917  1
  Te  Te100  1  0.07849296  0.22970956  0.64010072  1
  Te  Te101  1  0.08963790  0.23638051  0.89292142  1
  Te  Te102  1  0.08344643  0.57139098  0.24440064  1
  Te  Te103  1  0.11061958  0.58056449  0.59614022  1
  Te  Te104  1  0.08279943  0.57135404  0.89168123  1
  Te  Te105  1  0.06740869  0.95624311  0.24884625  1
  Te  Te106  1  0.05645610  0.90739112  0.59076056  1
  Te  Te107  1  0.05544681  0.93233315  0.91981942  1
  Te  Te108  1  0.43017378  0.24209132  0.24957445  1
  Te  Te109  1  0.42994871  0.24944638  0.60088242  1
  Te  Te110  1  0.39467411  0.27185395  0.93178663  1
  Te  Te111  1  0.42332329  0.57895757  0.24601842  1
  Te  Te112  1  0.40311826  0.55867350  0.59343353  1
  Te  Te113  1  0.39611691  0.53558455  0.90147903  1
  Te  Te114  1  0.41243147  0.90206665  0.26335744  1
  Te  Te115  1  0.41440043  0.90056780  0.59071518  1
  Te  Te116  1  0.43589101  0.89738356  0.88374267  1
  Te  Te117  1  0.75055833  0.22427041  0.22806840  1
  Te  Te118  1  0.73326326  0.27018679  0.59303739  1
  Te  Te119  1  0.74064808  0.20353117  0.96195347  1
  Te  Te120  1  0.76115766  0.60037796  0.23320348  1
  Te  Te121  1  0.77148933  0.56118309  0.60254102  1
  Te  Te122  1  0.75121244  0.57969124  0.90696740  1
  Te  Te123  1  0.74012053  0.93806106  0.25946515  1
  Te  Te124  1  0.75295383  0.94917541  0.59098742  1
  Te  Te125  1  0.72131271  0.90626281  0.89755703  1
  Te  Te126  1  0.24312086  0.27391557  0.08277835  1
  Te  Te127  1  0.22432304  0.24653695  0.43248550  1
  Te  Te128  1  0.26727907  0.26564745  0.73084856  1
  Te  Te129  1  0.26588768  0.58757052  0.05727732  1
  Te  Te130  1  0.26367047  0.61075747  0.40528965  1
  Te  Te131  1  0.19509668  0.51777423  0.78492433  1
  Te  Te132  1  0.23765418  0.92094606  0.06414587  1
  Te  Te133  1  0.23484817  0.94331233  0.43134590  1
  Te  Te134  1  0.26143462  0.91803291  0.75302468  1
  Te  Te135  1  0.59730547  0.22990416  0.07105086  1
  Te  Te136  1  0.58251451  0.26195556  0.41887519  1
  Te  Te137  1  0.58357998  0.22052991  0.82785212  1
  Te  Te138  1  0.59778996  0.58224800  0.07852112  1
  Te  Te139  1  0.58037302  0.57332568  0.43689652  1
  Te  Te140  1  0.58151153  0.57510726  0.72959584  1
  Te  Te141  1  0.56872236  0.92178325  0.09965039  1
  Te  Te142  1  0.59705430  0.95233156  0.41251216  1
  Te  Te143  1  0.54107839  0.93087361  0.77264384  1
  Te  Te144  1  0.93929074  0.22258114  0.06954282  1
  Te  Te145  1  0.92612672  0.26826925  0.43462652  1
  Te  Te146  1  0.90837138  0.24269948  0.75724876  1
  Te  Te147  1  0.93239027  0.57606049  0.08366749  1
  Te  Te148  1  0.92964584  0.59372416  0.40926665  1
  Te  Te149  1  0.92972322  0.58113288  0.76043894  1
  Te  Te150  1  0.90972577  0.90796527  0.10849578  1
  Te  Te151  1  0.85159109  0.96212840  0.38472782  1
  Te  Te152  1  0.89569055  0.91439028  0.75400599  1
  Te  Te153  1  0.24898561  0.10683539  0.25462327  1
  Te  Te154  1  0.24905728  0.08234052  0.57209850  1
  Te  Te155  1  0.25832364  0.07232469  0.90547541  1
  Te  Te156  1  0.25145285  0.39773277  0.25378723  1
  Te  Te157  1  0.26210217  0.37067934  0.60728131  1
  Te  Te158  1  0.24295901  0.37903408  0.94216957  1
  Te  Te159  1  0.23051187  0.75461718  0.23144670  1
  Te  Te160  1  0.25268686  0.75023050  0.57457490  1
  Te  Te161  1  0.20428835  0.76051673  0.91368067  1
  Te  Te162  1  0.62564443  0.13942642  0.25668972  1
  Te  Te163  1  0.57657923  0.09362754  0.58770185  1
  Te  Te164  1  0.54724121  0.08497048  0.88965362  1
  Te  Te165  1  0.60353508  0.41730600  0.26856350  1
  Te  Te166  1  0.60190364  0.38820141  0.60781731  1
  Te  Te167  1  0.59486290  0.40773338  0.93907279  1
  Te  Te168  1  0.59194688  0.74778429  0.24324518  1
  Te  Te169  1  0.57747753  0.76696286  0.57533282  1
  Te  Te170  1  0.58883471  0.72822247  0.90387725  1
  Te  Te171  1  0.93769665  0.08097105  0.24737612  1
  Te  Te172  1  0.92171359  0.09309349  0.57788497  1
  Te  Te173  1  0.92280086  0.04752731  0.92135345  1
  Te  Te174  1  0.91499130  0.41663986  0.25112966  1
  Te  Te175  1  0.92962856  0.40868831  0.60722849  1
  Te  Te176  1  0.93158456  0.40189989  0.91094664  1
  Te  Te177  1  0.91049553  0.77062413  0.26032613  1
  Te  Te178  1  0.92696011  0.72808221  0.58275400  1
  Te  Te179  1  0.90896615  0.75298896  0.90918008  1
