# generated using pymatgen
data_In2Te3
_symmetry_space_group_name_H-M   'P 1'
_cell_length_a   19.06995383
_cell_length_b   19.05903386
_cell_length_c   19.04646466
_cell_angle_alpha   90.01987836
_cell_angle_beta   89.91373839
_cell_angle_gamma   90.00191469
_symmetry_Int_Tables_number   1
_chemical_formula_structural   In2Te3
_chemical_formula_sum   'In72 Te108'
_cell_volume   6922.52256353
_cell_formula_units_Z   36
loop_
 _symmetry_equiv_pos_site_id
 _symmetry_equiv_pos_as_xyz
  1  'x, y, z'
loop_
 _atom_site_type_symbol
 _atom_site_label
 _atom_site_symmetry_multiplicity
 _atom_site_fract_x
 _atom_site_fract_y
 _atom_site_fract_z
 _atom_site_occupancy
  In  In0  1  0.16977436  0.46646463  0.01541598  1
  In  In1  1  0.66686784  0.65711061  0.00920729  1
  In  In2  1  0.64624908  0.49456458  0.37459637  1
  In  In3  1  0.02023818  0.67696399  0.63781714  1
  In  In4  1  0.18472204  0.84053911  -0.00202733  1
  In  In5  1  0.13943599  0.30132988  0.44503305  1
  In  In6  1  0.17667612  0.67289591  0.47871697  1
  In  In7  1  0.84077461  0.85665758  0.35079539  1
  In  In8  1  0.31546586  0.85461649  0.49284176  1
  In  In9  1  0.35000448  0.51546952  0.18379307  1
  In  In10  1  0.34319338  0.50917098  0.49636058  1
  In  In11  1  0.63290872  0.00782015  0.03120117  1
  In  In12  1  -0.02605672  0.84465578  0.82267697  1
  In  In13  1  0.67196196  0.32684589  -0.00416125  1
  In  In14  1  0.82135220  0.02042636  0.80860101  1
  In  In15  1  0.02359725  0.16148923  0.82505396  1
  In  In16  1  0.35390608  0.71492080  0.28246465  1
  In  In17  1  0.18492315  0.30883878  0.83031080  1
  In  In18  1  0.84911421  0.63946375  0.86016541  1
  In  In19  1  0.65933611  0.49640293  0.18049497  1
  In  In20  1  0.00768975  0.32846016  0.64222354  1
  In  In21  1  0.65978641  0.82499012  0.86826018  1
  In  In22  1  0.81874241  0.50312995  0.03501233  1
  In  In23  1  0.82326462  0.82890796  0.01791933  1
  In  In24  1  0.66501594  0.17334784  0.50090111  1
  In  In25  1  0.84834097  0.32918091  0.85048473  1
  In  In26  1  0.01922021  0.83000903  0.17205939  1
  In  In27  1  0.51059667  0.31477679  0.16650269  1
  In  In28  1  0.65227128  0.43752107  0.81175037  1
  In  In29  1  0.18288324  0.49473834  0.64832069  1
  In  In30  1  0.84797342  0.68547537  0.48602251  1
  In  In31  1  0.68597284  0.67852558  0.66982104  1
  In  In32  1  0.15926415  0.27909200  0.20331131  1
  In  In33  1  0.66899848  -0.00748669  0.33831919  1
  In  In34  1  0.85732890  0.50993554  0.64091700  1
  In  In35  1  0.15854332  0.84012680  0.34687139  1
  In  In36  1  0.83142386  0.86639157  0.69029849  1
  In  In37  1  0.83969708  0.17157536  0.33359470  1
  In  In38  1  0.63175378  0.30073041  0.66578188  1
  In  In39  1  0.51433229  0.65647924  0.84683667  1
  In  In40  1  0.47914324  0.85794233  0.32807525  1
  In  In41  1  -0.00403955  0.47732019  0.84316027  1
  In  In42  1  0.50414203  0.67723057  0.17600106  1
  In  In43  1  0.32558195  0.53223214  0.81759576  1
  In  In44  1  0.34675786  -0.01605468  0.00435816  1
  In  In45  1  0.35167444  0.32918441  0.32671109  1
  In  In46  1  0.01859464  0.66856395  0.33491702  1
  In  In47  1  0.50039967  0.49817371  0.65241895  1
  In  In48  1  0.47884127  0.15295659  0.35367259  1
  In  In49  1  0.36120373  0.31261460  -0.00283641  1
  In  In50  1  0.15104359  0.48912483  0.33270509  1
  In  In51  1  0.33686528  0.67553786  0.01390555  1
  In  In52  1  0.47558326  -0.00622581  0.17065237  1
  In  In53  1  0.52403311  0.32782860  0.50992715  1
  In  In54  1  0.49978180  -0.01205026  0.85452148  1
  In  In55  1  0.68946093  0.16318981  0.17838712  1
  In  In56  1  0.50184293  0.82241882  0.68502659  1
  In  In57  1  -0.03651896  0.29641851  0.14714405  1
  In  In58  1  0.36178677  0.33833412  0.63924816  1
  In  In59  1  0.16849089  0.16966920  -0.00794265  1
  In  In60  1  0.15520529  0.85913808  0.64606323  1
  In  In61  1  0.16737953  -0.00630939  0.81961299  1
  In  In62  1  -0.00877333  0.93799368  0.51793235  1
  In  In63  1  -0.03339905  0.00451880  -0.00090864  1
  In  In64  1  0.15940008  0.04218465  0.18111223  1
  In  In65  1  0.32751010  0.00937016  0.64372961  1
  In  In66  1  0.35488725  0.16717054  0.81473530  1
  In  In67  1  0.82956644  0.49325680  0.32259954  1
  In  In68  1  0.00583638  0.63241454  0.02387355  1
  In  In69  1  -0.00501863  0.15814082  0.48424364  1
  In  In70  1  0.65379101  0.01405395  0.64333940  1
  In  In71  1  0.65067251  0.83069026  0.51017700  1
  Te  Te72  1  0.06723298  0.09362801  0.07324027  1
  Te  Te73  1  0.08593102  0.11970396  0.37150866  1
  Te  Te74  1  0.11670549  0.09819712  0.73265170  1
  Te  Te75  1  0.08885023  0.37972761  0.10730259  1
  Te  Te76  1  0.04945857  0.39151133  0.37387660  1
  Te  Te77  1  0.09534646  0.40934859  0.75001115  1
  Te  Te78  1  0.09465075  0.74362251  0.07496280  1
  Te  Te79  1  0.06587413  0.76833469  0.44132530  1
  Te  Te80  1  0.07832096  0.76888769  0.74455306  1
  Te  Te81  1  0.42024741  0.08739429  0.07306401  1
  Te  Te82  1  0.39322005  0.04510976  0.40716205  1
  Te  Te83  1  0.43324583  0.06238034  0.74205682  1
  Te  Te84  1  0.41994474  0.41281074  0.09379611  1
  Te  Te85  1  0.43228120  0.41236117  0.42288290  1
  Te  Te86  1  0.41228695  0.42676592  0.75236771  1
  Te  Te87  1  0.38260785  0.75507801  0.13348280  1
  Te  Te88  1  0.40483679  0.75779340  0.41731035  1
  Te  Te89  1  0.42119489  0.73017353  0.76329405  1
  Te  Te90  1  0.75630991  0.07373354  0.07924062  1
  Te  Te91  1  0.75495840  0.08032531  0.42414194  1
  Te  Te92  1  0.74454707  0.10490173  0.71645736  1
  Te  Te93  1  0.74623804  0.39541160  0.10946502  1
  Te  Te94  1  0.75219523  0.39872781  0.40408167  1
  Te  Te95  1  0.78694726  0.42510336  0.74850823  1
  Te  Te96  1  0.75712602  0.72777286  0.09828820  1
  Te  Te97  1  0.73839751  0.75711642  0.41288045  1
  Te  Te98  1  0.76473829  0.74527550  0.78097214  1
  Te  Te99  1  0.03218864  0.21328741  0.26430382  1
  Te  Te100  1  0.10087761  0.23391894  0.57340904  1
  Te  Te101  1  0.07434399  0.26529826  0.92344115  1
  Te  Te102  1  0.08947373  0.58330548  0.24098185  1
  Te  Te103  1  0.09005326  0.57171864  0.55621369  1
  Te  Te104  1  0.09209217  0.56269623  0.92196247  1
  Te  Te105  1  0.07888976  0.93951094  0.25704440  1
  Te  Te106  1  0.12844683  0.97629312  0.55893785  1
  Te  Te107  1  0.07334837  0.92463126  0.91854426  1
  Te  Te108  1  0.41204912  0.22362425  0.23659206  1
  Te  Te109  1  0.43632582  0.22402417  0.57490698  1
  Te  Te110  1  0.45081616  0.24976450  0.89481383  1
  Te  Te111  1  0.44936524  0.57782915  0.28490829  1
  Te  Te112  1  0.40103058  0.59102966  0.60162844  1
  Te  Te113  1  0.41569443  0.57596652  0.92974019  1
  Te  Te114  1  0.37664219  0.95145868  0.27324969  1
  Te  Te115  1  0.42380839  0.90716573  0.58584488  1
  Te  Te116  1  0.41545270  0.88953272  0.91831690  1
  Te  Te117  1  0.74944473  0.26462223  0.26395864  1
  Te  Te118  1  0.74939795  0.24193640  0.60179561  1
  Te  Te119  1  0.73654168  0.24678243  0.89129085  1
  Te  Te120  1  0.72453807  0.59069798  0.27610741  1
  Te  Te121  1  0.75614721  0.59333736  0.56657556  1
  Te  Te122  1  0.73761826  0.55751859  0.91780425  1
  Te  Te123  1  0.75420723  0.91601817  0.24918834  1
  Te  Te124  1  0.75287301  0.92163161  0.57387695  1
  Te  Te125  1  0.76629295  0.92161150  0.91403842  1
  Te  Te126  1  0.25478149  0.25047147  0.08383626  1
  Te  Te127  1  0.26912177  0.23854529  0.41169788  1
  Te  Te128  1  0.26842775  0.24719282  0.72179339  1
  Te  Te129  1  0.24904302  0.57391825  0.08797722  1
  Te  Te130  1  0.25855041  0.57999492  0.39332717  1
  Te  Te131  1  0.21802713  0.59685228  0.74526759  1
  Te  Te132  1  0.23835328  0.93859713  0.09771697  1
  Te  Te133  1  0.22303967  0.94841194  0.42516170  1
  Te  Te134  1  0.26351093  0.90984710  0.74095277  1
  Te  Te135  1  0.59174217  0.22674928  0.07765838  1
  Te  Te136  1  0.58616961  0.24964856  0.39693932  1
  Te  Te137  1  0.53694264  0.25845682  0.76417439  1
  Te  Te138  1  0.56905495  0.57290145  0.08781058  1
  Te  Te139  1  0.53261793  0.57574345  0.41128048  1
  Te  Te140  1  0.60559109  0.57525002  0.74933617  1
  Te  Te141  1  0.57210077  0.90133015  0.10826647  1
  Te  Te142  1  0.56887597  0.92755614  0.43044284  1
  Te  Te143  1  0.61071497  0.90465668  0.74964128  1
  Te  Te144  1  0.86483639  0.19879320  0.09338456  1
  Te  Te145  1  0.89786079  0.25768842  0.43845892  1
  Te  Te146  1  0.93064679  0.25152963  0.74599817  1
  Te  Te147  1  0.90194758  0.59110196  0.11566816  1
  Te  Te148  1  0.92245512  0.58032856  0.41133058  1
  Te  Te149  1  0.94251468  0.59256395  0.74754218  1
  Te  Te150  1  0.91077756  0.91505408  0.10571687  1
  Te  Te151  1  0.93688204  0.96263754  0.38544739  1
  Te  Te152  1  0.94112467  0.96107764  0.73465344  1
  Te  Te153  1  0.21212657  0.14471266  0.27788631  1
  Te  Te154  1  0.33009469  0.10975732  0.53312114  1
  Te  Te155  1  0.25959141  0.08556649  0.90618432  1
  Te  Te156  1  0.25505965  0.40870899  0.24209104  1
  Te  Te157  1  0.25032185  0.40004927  0.55246466  1
  Te  Te158  1  0.26717282  0.40638068  0.91190522  1
  Te  Te159  1  0.21974574  0.75516146  0.24474709  1
  Te  Te160  1  0.24635153  0.75374222  0.58441642  1
  Te  Te161  1  0.25614506  0.74670286  0.91474406  1
  Te  Te162  1  0.57843540  0.08179541  0.25432187  1
  Te  Te163  1  0.55845106  0.09664155  0.56886493  1
  Te  Te164  1  0.60175141  0.07521306  0.90709969  1
  Te  Te165  1  0.57508579  0.40603355  0.26518659  1
  Te  Te166  1  0.61303717  0.42499040  0.58371730  1
  Te  Te167  1  0.57772632  0.42114051  0.93324918  1
  Te  Te168  1  0.57703394  0.77654937  0.25421320  1
  Te  Te169  1  0.57144457  0.72760672  0.58534141  1
  Te  Te170  1  0.56253196  0.75301985  0.95586365  1
  Te  Te171  1  0.91542186  0.12053847  0.21153740  1
  Te  Te172  1  0.92454797  0.05883275  0.56697916  1
  Te  Te173  1  0.90675597  0.10301755  0.90329166  1
  Te  Te174  1  0.91418796  0.39500777  0.24128354  1
  Te  Te175  1  0.92053451  0.40923918  0.55738313  1
  Te  Te176  1  0.91715373  0.41637859  0.95447414  1
  Te  Te177  1  0.92257860  0.75894016  0.26270434  1
  Te  Te178  1  0.90652740  0.76796941  0.59759480  1
  Te  Te179  1  0.93021540  0.74674287  0.93076682  1
