# generated using pymatgen
data_In2Te3
_symmetry_space_group_name_H-M   'P 1'
_cell_length_a   18.91230599
_cell_length_b   18.92678052
_cell_length_c   18.91502001
_cell_angle_alpha   89.91453334
_cell_angle_beta   90.21616112
_cell_angle_gamma   90.11089759
_symmetry_Int_Tables_number   1
_chemical_formula_structural   In2Te3
_chemical_formula_sum   'In72 Te108'
_cell_volume   6770.54539551
_cell_formula_units_Z   36
loop_
 _symmetry_equiv_pos_site_id
 _symmetry_equiv_pos_as_xyz
  1  'x, y, z'
loop_
 _atom_site_type_symbol
 _atom_site_label
 _atom_site_symmetry_multiplicity
 _atom_site_fract_x
 _atom_site_fract_y
 _atom_site_fract_z
 _atom_site_occupancy
  In  In0  1  0.34553779  0.70818726  -0.00068956  1
  In  In1  1  0.82967640  0.66326429  0.84991173  1
  In  In2  1  0.16461568  0.16623162  0.66354831  1
  In  In3  1  0.18752984  -0.00470771  0.51560616  1
  In  In4  1  0.49975213  0.32180631  0.16566876  1
  In  In5  1  0.16692305  0.01017190  0.82341002  1
  In  In6  1  0.80379616  0.31384085  0.53401729  1
  In  In7  1  -0.00806296  0.49401578  0.15659866  1
  In  In8  1  0.00323101  0.01052287  0.65019393  1
  In  In9  1  0.32536371  0.50092476  0.82569611  1
  In  In10  1  0.32950128  0.15438126  0.80933642  1
  In  In11  1  0.66130988  0.25395378  0.39626753  1
  In  In12  1  -0.00344381  0.49124434  0.81792321  1
  In  In13  1  0.84270811  0.48173028  0.35823401  1
  In  In14  1  0.51717276  0.52776912  0.00407573  1
  In  In15  1  0.65887790  0.81124918  0.52769029  1
  In  In16  1  0.35018111  0.84398886  0.16001396  1
  In  In17  1  0.80710497  0.16493353  -0.00472882  1
  In  In18  1  0.80711720  0.03109318  0.81844254  1
  In  In19  1  0.16962128  0.15860146  0.35251207  1
  In  In20  1  0.19610710  0.67062566  0.50533409  1
  In  In21  1  -0.02409917  0.63970147  -0.02566819  1
  In  In22  1  0.34450563  0.35979923  0.32816740  1
  In  In23  1  0.16085961  0.64788907  0.16013884  1
  In  In24  1  -0.01574344  0.83588877  0.16703603  1
  In  In25  1  0.50258026  0.52446968  0.34050491  1
  In  In26  1  -0.00685950  0.81270936  0.83297757  1
  In  In27  1  -0.02297465  0.13428257  0.49009509  1
  In  In28  1  0.38086260  -0.00646619  -0.05045105  1
  In  In29  1  0.15565357  0.00570460  0.16623710  1
  In  In30  1  -0.00090009  0.68021410  0.66025080  1
  In  In31  1  0.19639324  0.83685450  0.34858071  1
  In  In32  1  0.31492588  0.15409696  0.15615109  1
  In  In33  1  0.67148567  0.85159531  0.17886910  1
  In  In34  1  0.66767744  0.15963784  0.17187622  1
  In  In35  1  0.00687198  0.31820291  0.33071836  1
  In  In36  1  0.51881408  0.32049671  0.79040851  1
  In  In37  1  0.49270570  0.82462132  0.34735252  1
  In  In38  1  0.33059657  0.35362152  -0.01061717  1
  In  In39  1  0.37243399  -0.02457583  0.69384982  1
  In  In40  1  0.00149021  0.49150838  0.51086494  1
  In  In41  1  0.35520959  0.52626898  0.51693299  1
  In  In42  1  0.00632294  0.66335696  0.33070251  1
  In  In43  1  0.48642230  0.14958760  -0.02193399  1
  In  In44  1  0.21157076  0.68092026  0.82504324  1
  In  In45  1  0.49171867  0.68613565  0.80263840  1
  In  In46  1  0.17923356  0.80567727  -0.00621546  1
  In  In47  1  0.62087022  0.87301689  0.82079175  1
  In  In48  1  0.17269960  0.33021097  0.50944974  1
  In  In49  1  0.83459465  0.47486376  -0.03614935  1
  In  In50  1  0.66176872  0.01770194  0.32846871  1
  In  In51  1  0.34693499  0.66774928  0.34472819  1
  In  In52  1  0.66310356  0.65682905  0.66627709  1
  In  In53  1  0.14649540  0.49541787  0.00684060  1
  In  In54  1  0.14138912  0.20649423  -0.04141854  1
  In  In55  1  -0.01470193  0.32421640  0.70800289  1
  In  In56  1  -0.03151066  0.14996861  0.15920592  1
  In  In57  1  0.80157978  -0.00324440  0.50607431  1
  In  In58  1  0.82876205  0.15287071  0.32038019  1
  In  In59  1  0.34031498  0.31857520  0.65398386  1
  In  In60  1  0.68129601  0.46876573  0.79735897  1
  In  In61  1  0.39347477  0.16845534  0.50125989  1
  In  In62  1  0.67403227  0.33517442  -0.02572811  1
  In  In63  1  0.66140524  0.49637526  0.15912011  1
  In  In64  1  -0.01473719  -0.00676523  0.00510195  1
  In  In65  1  0.81474226  0.68828492  0.17673316  1
  In  In66  1  0.84067422  0.83609005  0.67140937  1
  In  In67  1  0.32234710  0.50655827  0.19377472  1
  In  In68  1  0.53327769  0.01482523  0.52374553  1
  In  In69  1  0.65367698  -0.00251615  -0.00116206  1
  In  In70  1  0.65728480  0.48757633  0.53701807  1
  In  In71  1  0.68830074  0.68580518  0.35503479  1
  Te  Te72  1  0.08589962  0.09623005  0.06226091  1
  Te  Te73  1  0.08187959  0.05335491  0.41855811  1
  Te  Te74  1  0.06525598  0.10163458  0.75751905  1
  Te  Te75  1  0.07803986  0.39576585  0.08880071  1
  Te  Te76  1  0.08986699  0.41480679  0.41383826  1
  Te  Te77  1  0.08716238  0.42738725  0.72329217  1
  Te  Te78  1  0.06691049  0.73363664  0.07769039  1
  Te  Te79  1  0.09418459  0.74972829  0.42074722  1
  Te  Te80  1  0.10101825  0.75636694  0.74590657  1
  Te  Te81  1  0.41462633  0.06527401  0.08155864  1
  Te  Te82  1  0.44997310  0.06702374  0.40985778  1
  Te  Te83  1  0.44269735  0.10049153  0.73427186  1
  Te  Te84  1  0.42204770  0.42852508  0.08766004  1
  Te  Te85  1  0.43354051  0.42572169  0.43401326  1
  Te  Te86  1  0.41863662  0.42266982  0.73649938  1
  Te  Te87  1  0.45019646  0.78212253  0.07099982  1
  Te  Te88  1  0.43067232  0.73192217  0.45062704  1
  Te  Te89  1  0.40100692  0.75586699  0.70949906  1
  Te  Te90  1  0.75355113  0.06251933  0.09605857  1
  Te  Te91  1  0.72400181  0.11935880  0.43484046  1
  Te  Te92  1  0.69169556  0.08584689  0.74069350  1
  Te  Te93  1  0.75521018  0.40776910  0.07951961  1
  Te  Te94  1  0.72995389  0.39984224  0.42386081  1
  Te  Te95  1  0.79943994  0.38746367  0.76234932  1
  Te  Te96  1  0.73261461  0.75978237  0.07971980  1
  Te  Te97  1  0.77270410  0.75774342  0.45155532  1
  Te  Te98  1  0.74820423  0.74996324  0.75587896  1
  Te  Te99  1  0.08156280  0.22011547  0.24505885  1
  Te  Te100  1  0.06869078  0.23512518  0.56656445  1
  Te  Te101  1  0.04452288  0.27622670  0.87458885  1
  Te  Te102  1  0.08801203  0.55904040  0.25766578  1
  Te  Te103  1  0.09265918  0.58672046  0.58569399  1
  Te  Te104  1  0.09772851  0.59834331  0.89570791  1
  Te  Te105  1  0.09004722  0.90098702  0.25407169  1
  Te  Te106  1  0.09027854  0.91039963  0.58970199  1
  Te  Te107  1  0.08663106  0.90934589  0.91971559  1
  Te  Te108  1  0.40302732  0.24104030  0.24683760  1
  Te  Te109  1  0.46511230  0.26275709  0.59456006  1
  Te  Te110  1  0.41351158  0.26121454  0.90129088  1
  Te  Te111  1  0.43041530  0.60467404  0.23209898  1
  Te  Te112  1  0.45372133  0.62579428  0.56352978  1
  Te  Te113  1  0.41236148  0.59385251  0.91306439  1
  Te  Te114  1  0.40676997  0.91741288  0.27272380  1
  Te  Te115  1  0.41310024  0.93137405  0.55690298  1
  Te  Te116  1  0.48211710  0.90648543  0.88551769  1
  Te  Te117  1  0.73841013  0.25921799  0.26007203  1
  Te  Te118  1  0.68689998  0.25923570  0.60939241  1
  Te  Te119  1  0.77408456  0.26691339  0.88318142  1
  Te  Te120  1  0.75586781  0.57133087  0.26565843  1
  Te  Te121  1  0.76071985  0.57360560  0.59541280  1
  Te  Te122  1  0.72983970  0.56788967  0.91159297  1
  Te  Te123  1  0.76206499  0.91783007  0.28054999  1
  Te  Te124  1  0.72723252  0.91875933  0.61288083  1
  Te  Te125  1  0.74292059  0.92155631  0.90122493  1
  Te  Te126  1  0.24379210  0.25413546  0.06544551  1
  Te  Te127  1  0.26874784  0.25354525  0.42046296  1
  Te  Te128  1  0.23969201  0.26227095  0.75445418  1
  Te  Te129  1  0.26194617  0.58686076  0.06499317  1
  Te  Te130  1  0.25393201  0.56763284  0.40866015  1
  Te  Te131  1  0.27400660  0.59498086  0.72076065  1
  Te  Te132  1  0.24302233  0.91605529  0.07844848  1
  Te  Te133  1  0.28318764  0.90070203  0.45003673  1
  Te  Te134  1  0.23199405  0.93196928  0.71868000  1
  Te  Te135  1  0.58469374  0.24528716  0.06401841  1
  Te  Te136  1  0.52055420  0.22903421  0.43118350  1
  Te  Te137  1  0.63046949  0.22308024  0.79062895  1
  Te  Te138  1  0.60357800  0.61099799  0.08729197  1
  Te  Te139  1  0.60115721  0.59031747  0.43497865  1
  Te  Te140  1  0.57555444  0.56540464  0.74957440  1
  Te  Te141  1  0.57023352  0.91841331  0.09196050  1
  Te  Te142  1  0.60139885  0.90648201  0.42130760  1
  Te  Te143  1  0.52075703  0.94210295  0.73200084  1
  Te  Te144  1  0.89435265  0.24790917  0.08116497  1
  Te  Te145  1  0.90222099  0.25490921  0.42262944  1
  Te  Te146  1  0.86589660  0.24764409  0.74538705  1
  Te  Te147  1  0.88832536  0.58114399  0.08349235  1
  Te  Te148  1  0.91693804  0.59088584  0.43158694  1
  Te  Te149  1  0.90828810  0.58931886  0.74368305  1
  Te  Te150  1  0.89253280  0.92164580  0.09195662  1
  Te  Te151  1  0.87701631  0.95275004  0.38887962  1
  Te  Te152  1  0.92290000  0.92983336  0.76485309  1
  Te  Te153  1  0.25438851  0.06562779  0.26614488  1
  Te  Te154  1  0.26957400  0.10774627  0.57529315  1
  Te  Te155  1  0.25623369  0.08570199  0.92344705  1
  Te  Te156  1  0.23538411  0.39886166  0.23742159  1
  Te  Te157  1  0.25764347  0.42718900  0.58702347  1
  Te  Te158  1  0.22403911  0.41657276  0.90111002  1
  Te  Te159  1  0.25245650  0.73942175  0.23838554  1
  Te  Te160  1  0.28129421  0.72632151  0.61363380  1
  Te  Te161  1  0.28846429  0.79647063  0.88875149  1
  Te  Te162  1  0.56359189  0.08930153  0.24623758  1
  Te  Te163  1  0.62347068  0.10811999  0.59758756  1
  Te  Te164  1  0.60257318  0.09938980  0.89868135  1
  Te  Te165  1  0.57613783  0.41620035  0.25679746  1
  Te  Te166  1  0.59164263  0.38053122  0.61552998  1
  Te  Te167  1  0.56470400  0.41847021  0.90764418  1
  Te  Te168  1  0.58937561  0.74787787  0.25974854  1
  Te  Te169  1  0.55412090  0.75111268  0.61739766  1
  Te  Te170  1  0.57972788  0.75342787  0.89991322  1
  Te  Te171  1  0.92624643  0.05554575  0.26728114  1
  Te  Te172  1  0.88099031  0.08957321  0.59888261  1
  Te  Te173  1  0.91290381  0.08995456  0.91314213  1
  Te  Te174  1  0.90981562  0.40230201  0.24849105  1
  Te  Te175  1  0.90854660  0.40584688  0.59389338  1
  Te  Te176  1  0.95668008  0.39636931  0.92874169  1
  Te  Te177  1  0.90520075  0.76149082  0.27443606  1
  Te  Te178  1  0.92386772  0.77097406  0.57057167  1
  Te  Te179  1  0.89731781  0.76555873  0.94141313  1
