# generated using pymatgen
data_In2Te3
_symmetry_space_group_name_H-M   'P 1'
_cell_length_a   19.01181820
_cell_length_b   19.02548933
_cell_length_c   19.00425598
_cell_angle_alpha   90.21008727
_cell_angle_beta   90.05474700
_cell_angle_gamma   89.98542074
_symmetry_Int_Tables_number   1
_chemical_formula_structural   In2Te3
_chemical_formula_sum   'In72 Te108'
_cell_volume   6873.96360373
_cell_formula_units_Z   36
loop_
 _symmetry_equiv_pos_site_id
 _symmetry_equiv_pos_as_xyz
  1  'x, y, z'
loop_
 _atom_site_type_symbol
 _atom_site_label
 _atom_site_symmetry_multiplicity
 _atom_site_fract_x
 _atom_site_fract_y
 _atom_site_fract_z
 _atom_site_occupancy
  In  In0  1  0.16784536  -0.00383199  0.83142710  1
  In  In1  1  0.82586456  -0.02687238  0.83426358  1
  In  In2  1  0.82686289  0.32113672  0.13817059  1
  In  In3  1  0.48587244  0.32527174  0.83542009  1
  In  In4  1  0.18682964  0.18489762  0.34235489  1
  In  In5  1  0.18204819  0.31766971  0.83154415  1
  In  In6  1  0.22511320  0.72165248  0.01436993  1
  In  In7  1  0.67686421  0.47063471  0.17262028  1
  In  In8  1  0.82395604  0.84886988  0.65807730  1
  In  In9  1  0.33159685  0.67445361  0.68577304  1
  In  In10  1  0.00246870  0.33459302  0.66827913  1
  In  In11  1  0.32774025  0.48753471  0.81071418  1
  In  In12  1  0.33072047  0.49834099  0.49765489  1
  In  In13  1  0.00170569  0.48070187  0.50675012  1
  In  In14  1  0.32703889  0.31958829  0.66191893  1
  In  In15  1  0.00620130  0.84312736  0.49213117  1
  In  In16  1  0.52762829  0.15094511  0.72166038  1
  In  In17  1  0.12809871  0.50732309  -0.03868558  1
  In  In18  1  0.01473168  -0.02537331  0.32801236  1
  In  In19  1  0.65612906  -0.00932268  0.69749172  1
  In  In20  1  0.82575651  0.49806187  0.31717090  1
  In  In21  1  0.32044069  0.50270157  0.15273981  1
  In  In22  1  0.15308238  0.52238108  0.68239715  1
  In  In23  1  0.00224721  0.04832407  0.66545953  1
  In  In24  1  0.66655486  0.72036039  0.32507488  1
  In  In25  1  0.34607397  0.30411527  0.00684803  1
  In  In26  1  0.34720527  0.14787332  0.16793956  1
  In  In27  1  0.47988177  0.33103478  0.49078128  1
  In  In28  1  0.00595827  0.16461829  0.84839599  1
  In  In29  1  -0.00469755  0.17446073  0.51761473  1
  In  In30  1  0.53218514  0.53313665  0.65872192  1
  In  In31  1  0.63906190  0.34951620  0.66253241  1
  In  In32  1  0.15266303  0.50325196  0.33194655  1
  In  In33  1  0.46421813  0.71348883  0.84447384  1
  In  In34  1  0.35267183  -0.00185100  0.63709457  1
  In  In35  1  0.35333473  0.00677489  -0.02244202  1
  In  In36  1  0.84551543  0.69441648  0.16846102  1
  In  In37  1  0.31317315  0.84650189  0.49980636  1
  In  In38  1  0.34171309  0.32307337  0.31326757  1
  In  In39  1  0.66103520  0.15093531  0.17030284  1
  In  In40  1  0.01225311  0.13783360  0.18494749  1
  In  In41  1  0.47112686  0.49013824  0.00179998  1
  In  In42  1  0.68273387  0.32280019  0.01012109  1
  In  In43  1  0.83180533  0.14903235  0.01465780  1
  In  In44  1  0.82385093  0.17652921  0.67098711  1
  In  In45  1  0.65587424  0.83068835  0.83248701  1
  In  In46  1  0.19349688  0.01034050  0.46821405  1
  In  In47  1  0.82037312  0.82638524  -0.01678941  1
  In  In48  1  0.68183415  0.49602614  0.83408003  1
  In  In49  1  -0.01535673  0.35657856  -0.03095010  1
  In  In50  1  0.33907370  0.83617097  0.17489577  1
  In  In51  1  0.82705613  0.65839588  0.49928708  1
  In  In52  1  0.66827547  0.15060001  0.49677943  1
  In  In53  1  0.84662894  0.15396647  0.34070837  1
  In  In54  1  0.32589944  0.67386759  0.31912061  1
  In  In55  1  0.15317274  0.84665142  0.65992536  1
  In  In56  1  0.52251283  0.68879675  0.48881082  1
  In  In57  1  0.16407868  -0.02484593  0.17375424  1
  In  In58  1  0.00092462  0.30619643  0.34420823  1
  In  In59  1  0.69063081  0.64823091  -0.00219501  1
  In  In60  1  0.01307819  -0.04585366  0.00518805  1
  In  In61  1  0.01319295  0.68370286  0.33011513  1
  In  In62  1  0.68282263  0.54551360  0.49065744  1
  In  In63  1  0.36037590  0.15120145  0.48122998  1
  In  In64  1  -0.01873103  0.63972553  0.67869750  1
  In  In65  1  0.48433072  0.84159442  0.02972398  1
  In  In66  1  0.50820969  -0.00971326  0.20875831  1
  In  In67  1  0.49727451  0.66962113  0.15345581  1
  In  In68  1  -0.01571171  0.50604894  0.15319250  1
  In  In69  1  -0.00643008  0.82422730  0.84022557  1
  In  In70  1  0.66601958  0.69404526  0.67881184  1
  In  In71  1  0.66881771  0.33009010  0.35485538  1
  Te  Te72  1  0.08898914  0.06515587  0.07619213  1
  Te  Te73  1  0.07463572  0.09701022  0.40733763  1
  Te  Te74  1  0.10810466  0.11329925  0.74918845  1
  Te  Te75  1  0.07777809  0.41831992  0.07296842  1
  Te  Te76  1  0.09457354  0.39641047  0.42283777  1
  Te  Te77  1  0.08773678  0.41507667  0.76603671  1
  Te  Te78  1  0.12642787  0.77302333  0.11081590  1
  Te  Te79  1  0.10478042  0.76365809  0.41549311  1
  Te  Te80  1  0.07459316  0.74577276  0.73953128  1
  Te  Te81  1  0.44154418  0.06251690  0.08730138  1
  Te  Te82  1  0.39686470  0.02856746  0.40803188  1
  Te  Te83  1  0.40273705  0.07210916  0.75848183  1
  Te  Te84  1  0.41908315  0.39641576  0.10636732  1
  Te  Te85  1  0.41784669  0.43051924  0.39609200  1
  Te  Te86  1  0.43686884  0.42626727  0.72386340  1
  Te  Te87  1  0.38543918  0.72677429  0.06997528  1
  Te  Te88  1  0.40650037  0.75472861  0.41776311  1
  Te  Te89  1  0.43808385  0.77334052  0.71290915  1
  Te  Te90  1  0.75360873  0.06205458  0.09923799  1
  Te  Te91  1  0.74115396  0.06760084  0.39834986  1
  Te  Te92  1  0.75078429  0.08669936  0.76888745  1
  Te  Te93  1  0.77264717  0.43708083  0.06128631  1
  Te  Te94  1  0.75948944  0.42709455  0.43124487  1
  Te  Te95  1  0.74968218  0.41753733  0.73081022  1
  Te  Te96  1  0.73244373  0.75916912  0.09018085  1
  Te  Te97  1  0.76582955  0.77101637  0.42695908  1
  Te  Te98  1  0.77401839  0.75980201  0.76759227  1
  Te  Te99  1  0.09616702  0.25178214  0.24022550  1
  Te  Te100  1  0.09483461  0.25216922  0.58969427  1
  Te  Te101  1  0.09191833  0.25369013  0.93471684  1
  Te  Te102  1  0.08309679  0.59113695  0.23116119  1
  Te  Te103  1  0.07955466  0.59358993  0.57091068  1
  Te  Te104  1  0.05774348  0.62503628  0.91063516  1
  Te  Te105  1  0.06073915  0.87908515  0.22131179  1
  Te  Te106  1  0.08935883  0.95519182  0.57403251  1
  Te  Te107  1  0.12254956  0.87520561  0.91758366  1
  Te  Te108  1  0.42852401  0.21481563  0.27121155  1
  Te  Te109  1  0.43273236  0.23364418  0.59577830  1
  Te  Te110  1  0.44735346  0.22052726  0.93397945  1
  Te  Te111  1  0.41543163  0.57886280  0.24283243  1
  Te  Te112  1  0.42001350  0.59618218  0.57685134  1
  Te  Te113  1  0.40814417  0.58229353  0.90015206  1
  Te  Te114  1  0.38832361  0.93279407  0.27972637  1
  Te  Te115  1  0.43381933  0.93191134  0.53010055  1
  Te  Te116  1  0.41945896  0.89284607  0.90914539  1
  Te  Te117  1  0.76150199  0.25357456  0.25466356  1
  Te  Te118  1  0.73251844  0.25725632  0.58220957  1
  Te  Te119  1  0.77780702  0.25054347  0.92580470  1
  Te  Te120  1  0.74267701  0.59284028  0.23662418  1
  Te  Te121  1  0.75755897  0.59042062  0.61570375  1
  Te  Te122  1  0.77689832  0.59222422  0.89349995  1
  Te  Te123  1  0.71490268  0.86075862  0.29136790  1
  Te  Te124  1  0.72552296  0.92536392  0.58396578  1
  Te  Te125  1  0.71644886  0.93164839  0.92735610  1
  Te  Te126  1  0.25549463  0.23937680  0.09911677  1
  Te  Te127  1  0.27137080  0.26638004  0.43613816  1
  Te  Te128  1  0.29087020  0.23686526  0.77558495  1
  Te  Te129  1  0.23190458  0.57446222  0.05092254  1
  Te  Te130  1  0.24271439  0.59045563  0.41662148  1
  Te  Te131  1  0.23559242  0.60457340  0.77955119  1
  Te  Te132  1  0.26733120  0.92536852  0.07745744  1
  Te  Te133  1  0.21658958  0.88569394  0.39334899  1
  Te  Te134  1  0.26003796  0.92121569  0.73451505  1
  Te  Te135  1  0.58691164  0.24201625  0.08260469  1
  Te  Te136  1  0.56854938  0.23420373  0.41577420  1
  Te  Te137  1  0.61288117  0.26230948  0.78202631  1
  Te  Te138  1  0.58077072  0.56631258  0.07828269  1
  Te  Te139  1  0.58848687  0.59903393  0.38756761  1
  Te  Te140  1  0.58087249  0.60832949  0.77768349  1
  Te  Te141  1  0.58370382  0.91121062  0.10889561  1
  Te  Te142  1  0.58245553  0.88857468  0.34827667  1
  Te  Te143  1  0.55470968  0.89423760  0.74570444  1
  Te  Te144  1  0.93843975  0.23458071  0.08745433  1
  Te  Te145  1  0.89575851  0.25892767  0.44038139  1
  Te  Te146  1  0.91677219  0.25254132  0.76352248  1
  Te  Te147  1  0.91447180  0.60550972  0.07321630  1
  Te  Te148  1  0.92300601  0.57730780  0.40506280  1
  Te  Te149  1  0.96372198  0.56076915  0.80429901  1
  Te  Te150  1  0.89729854  0.90699416  0.07890611  1
  Te  Te151  1  0.91204469  0.92745530  0.42099324  1
  Te  Te152  1  0.94064185  0.92871574  0.73628859  1
  Te  Te153  1  0.24346689  0.07677016  0.25586445  1
  Te  Te154  1  0.25448684  0.09615106  0.57609433  1
  Te  Te155  1  0.24129551  0.08384754  0.92229877  1
  Te  Te156  1  0.23854908  0.41543183  0.24444720  1
  Te  Te157  1  0.24371378  0.42857323  0.59921791  1
  Te  Te158  1  0.26423081  0.41007285  0.92387245  1
  Te  Te159  1  0.23135771  0.74144089  0.22427165  1
  Te  Te160  1  0.24092330  0.74518259  0.58782935  1
  Te  Te161  1  0.24686395  0.79184742  0.89033561  1
  Te  Te162  1  0.61073220  0.07003835  0.28392097  1
  Te  Te163  1  0.58067739  0.08037451  0.59782271  1
  Te  Te164  1  0.51781550  0.09542485  0.86013307  1
  Te  Te165  1  0.58475092  0.40205881  0.25976008  1
  Te  Te166  1  0.57759376  0.43630063  0.54624915  1
  Te  Te167  1  0.57813210  0.41939190  0.92068361  1
  Te  Te168  1  0.54155286  0.77290541  0.25307583  1
  Te  Te169  1  0.61183978  0.77349769  0.56785395  1
  Te  Te170  1  0.58241930  0.74227066  0.93680711  1
  Te  Te171  1  0.90674426  0.05162586  0.24530613  1
  Te  Te172  1  0.88763518  0.08047784  0.57304078  1
  Te  Te173  1  0.92876046  0.05254050  0.91526551  1
  Te  Te174  1  0.92189838  0.40018047  0.25171305  1
  Te  Te175  1  0.90959458  0.42978009  0.60593342  1
  Te  Te176  1  0.90392678  0.45538522  0.90162081  1
  Te  Te177  1  0.91478941  0.77439154  0.27024276  1
  Te  Te178  1  0.92411570  0.75100090  0.58395648  1
  Te  Te179  1  0.93800102  0.73809730  0.94690952  1
