# generated using pymatgen
data_In2Te3
_symmetry_space_group_name_H-M   'P 1'
_cell_length_a   18.78341030
_cell_length_b   18.79540759
_cell_length_c   18.78081649
_cell_angle_alpha   90.00740556
_cell_angle_beta   89.97011537
_cell_angle_gamma   89.88516874
_symmetry_Int_Tables_number   1
_chemical_formula_structural   In2Te3
_chemical_formula_sum   'In72 Te108'
_cell_volume   6630.39997340
_cell_formula_units_Z   36
loop_
 _symmetry_equiv_pos_site_id
 _symmetry_equiv_pos_as_xyz
  1  'x, y, z'
loop_
 _atom_site_type_symbol
 _atom_site_label
 _atom_site_symmetry_multiplicity
 _atom_site_fract_x
 _atom_site_fract_y
 _atom_site_fract_z
 _atom_site_occupancy
  In  In0  1  0.00953861  0.01777012  0.33773293  1
  In  In1  1  0.65586147  0.65733028  0.67674489  1
  In  In2  1  0.47972530  0.16664455  -0.00318255  1
  In  In3  1  -0.01764415  0.34940584  0.33595361  1
  In  In4  1  0.84930854  0.33667660  0.15967682  1
  In  In5  1  0.68368493  0.49264185  0.16996325  1
  In  In6  1  0.33495372  0.80004435  0.83379743  1
  In  In7  1  0.32879655  0.18020302  0.83104949  1
  In  In8  1  0.01106000  0.51344369  0.52161584  1
  In  In9  1  0.82678527  0.01097777  0.82355725  1
  In  In10  1  0.16759945  0.49368644  0.33509564  1
  In  In11  1  0.01220968  0.47613385  0.15354084  1
  In  In12  1  0.49447079  0.51622107  -0.01266858  1
  In  In13  1  0.66838091  0.82875831  0.49593234  1
  In  In14  1  0.17392057  0.17572733  0.66476367  1
  In  In15  1  0.68156389  0.51843332  0.84883104  1
  In  In16  1  0.16542214  0.65669644  0.14975796  1
  In  In17  1  0.48822079  0.65268336  0.80853841  1
  In  In18  1  0.85704707  0.81946415  0.00711217  1
  In  In19  1  0.30466500  0.02022082  0.31854299  1
  In  In20  1  0.01046057  0.66936169  0.00931441  1
  In  In21  1  0.81752016  0.83435297  0.33479626  1
  In  In22  1  -0.00669466  -0.00515492  0.65819125  1
  In  In23  1  -0.01033660  0.67017231  0.36385255  1
  In  In24  1  0.66814163  0.82540941  0.82159721  1
  In  In25  1  0.83893094  0.50702472  0.67181225  1
  In  In26  1  0.66325244  0.33811402  0.65614893  1
  In  In27  1  0.82287202  0.00841752  0.48354493  1
  In  In28  1  0.83577940  0.18161308  0.33281387  1
  In  In29  1  0.33231603  0.83310981  0.15476425  1
  In  In30  1  0.18264493  0.50494504  -0.00227771  1
  In  In31  1  0.50298985  0.00544412  0.51451058  1
  In  In32  1  0.51414576  0.82753740  -0.00521776  1
  In  In33  1  0.82583075  0.65286119  0.16221153  1
  In  In34  1  0.50273661  0.50950810  0.34458593  1
  In  In35  1  0.65541348  0.31413166  0.36929279  1
  In  In36  1  -0.01997906  0.46426319  0.84064086  1
  In  In37  1  0.01210119  0.01791925  0.01887092  1
  In  In38  1  0.17071073  0.32799651  0.15675964  1
  In  In39  1  0.50081606  0.82866680  0.68041898  1
  In  In40  1  0.33085019  0.01665067  0.02043628  1
  In  In41  1  0.16568351  0.00278664  0.47858032  1
  In  In42  1  0.84772879  0.79808570  0.66585349  1
  In  In43  1  0.66515497  0.83833385  0.16909764  1
  In  In44  1  0.51069657  0.02259275  0.86557353  1
  In  In45  1  0.33328224  0.47772768  0.51524368  1
  In  In46  1  0.33141244  0.35820739  0.68574939  1
  In  In47  1  0.50437353  0.67824875  0.16695547  1
  In  In48  1  0.02351849  0.20659664  0.85195106  1
  In  In49  1  0.47981164  0.32453432  0.17555342  1
  In  In50  1  0.00565980  0.17443577  0.17266648  1
  In  In51  1  0.48758028  0.82647000  0.34439493  1
  In  In52  1  0.18840244  0.64229321  0.79416528  1
  In  In53  1  0.64993256  0.00190158  0.00790635  1
  In  In54  1  0.34771085  0.66423407  0.33331507  1
  In  In55  1  0.33587329  -0.03096705  0.68044559  1
  In  In56  1  0.32759862  0.32656854  0.32607626  1
  In  In57  1  0.01606429  0.34002021  0.66610302  1
  In  In58  1  0.63952818  0.14518992  0.19031158  1
  In  In59  1  0.67189419  0.33066990  -0.01537843  1
  In  In60  1  0.01409947  0.85301629  0.17741714  1
  In  In61  1  0.18415930  0.00323425  0.83314994  1
  In  In62  1  0.65177674  0.48905370  0.49627148  1
  In  In63  1  0.00729751  0.81504047  0.52257236  1
  In  In64  1  0.14580946  0.84128499  0.34386909  1
  In  In65  1  0.03388012  0.80709644  0.83292192  1
  In  In66  1  0.65657970  0.02171179  0.63268288  1
  In  In67  1  0.51204246  0.17074755  0.65781829  1
  In  In68  1  0.81163112  0.17539648  0.00057126  1
  In  In69  1  0.31146349  0.32841831  -0.00491311  1
  In  In70  1  0.33352830  0.17611319  0.49068627  1
  In  In71  1  0.83244597  0.17911626  0.65533507  1
  Te  Te72  1  0.11210732  0.09993240  0.09476401  1
  Te  Te73  1  0.08767962  0.11301063  0.41984256  1
  Te  Te74  1  0.07670562  0.08234922  0.75382482  1
  Te  Te75  1  0.07882041  0.38967829  0.04403476  1
  Te  Te76  1  0.08614940  0.41186757  0.43107494  1
  Te  Te77  1  0.09321505  0.43125723  0.75292221  1
  Te  Te78  1  0.09809122  0.77415393  0.07685907  1
  Te  Te79  1  0.10976895  0.72683297  0.43914426  1
  Te  Te80  1  0.08195657  0.72363145  0.71434400  1
  Te  Te81  1  0.42943834  0.08309398  0.10770022  1
  Te  Te82  1  0.41528590  0.07738584  0.40951832  1
  Te  Te83  1  0.41560974  0.08011593  0.75044670  1
  Te  Te84  1  0.41438399  0.41469186  0.07295356  1
  Te  Te85  1  0.42516794  0.40116633  0.41754260  1
  Te  Te86  1  0.40869826  0.46757770  0.75437981  1
  Te  Te87  1  0.41006555  0.73863320  0.06202679  1
  Te  Te88  1  0.41706153  0.73838794  0.44029238  1
  Te  Te89  1  0.38945777  0.72867285  0.70986132  1
  Te  Te90  1  0.74574710  0.07859019  0.09871355  1
  Te  Te91  1  0.73384062  0.08271406  0.38914982  1
  Te  Te92  1  0.73401664  0.09963651  0.74326420  1
  Te  Te93  1  0.76916114  0.42772189  0.05369197  1
  Te  Te94  1  0.75181101  0.41346586  0.41466212  1
  Te  Te95  1  0.75266188  0.41856613  0.75962738  1
  Te  Te96  1  0.74002139  0.74484369  0.07282026  1
  Te  Te97  1  0.76639659  0.73884946  0.43279289  1
  Te  Te98  1  0.76353802  0.71734590  0.76704786  1
  Te  Te99  1  0.08726136  0.26127505  0.26649947  1
  Te  Te100  1  0.07945318  0.24069818  0.57366281  1
  Te  Te101  1  0.11602882  0.27764847  0.93954329  1
  Te  Te102  1  0.07203758  0.58775175  0.25053922  1
  Te  Te103  1  0.11725002  0.59050757  0.60275189  1
  Te  Te104  1  0.08875540  0.58639209  0.90802155  1
  Te  Te105  1  0.11293221  0.95173155  0.24092145  1
  Te  Te106  1  0.10264557  0.91530545  0.58844280  1
  Te  Te107  1  0.08339047  0.92302563  0.91878309  1
  Te  Te108  1  0.40442178  0.22230187  0.25008400  1
  Te  Te109  1  0.40760062  0.26051577  0.59281192  1
  Te  Te110  1  0.42722546  0.27081391  0.90043824  1
  Te  Te111  1  0.41725930  0.57178445  0.23393912  1
  Te  Te112  1  0.39450318  0.58161510  0.60363889  1
  Te  Te113  1  0.39427898  0.58591061  0.90204811  1
  Te  Te114  1  0.40754014  0.91955342  0.25399250  1
  Te  Te115  1  0.41223565  0.89577592  0.57136841  1
  Te  Te116  1  0.41263677  0.91392217  0.91012429  1
  Te  Te117  1  0.74156208  0.25919023  0.23457256  1
  Te  Te118  1  0.75299488  0.26220707  0.56286272  1
  Te  Te119  1  0.76622296  0.26303130  0.89139261  1
  Te  Te120  1  0.73972560  0.59118146  0.26434653  1
  Te  Te121  1  0.74605854  0.58446203  0.57962057  1
  Te  Te122  1  0.73963222  0.63194928  0.91921414  1
  Te  Te123  1  0.75309433  0.92969939  0.24473353  1
  Te  Te124  1  0.76321430  0.91337502  0.59772805  1
  Te  Te125  1  0.74864132  0.91204092  0.92302969  1
  Te  Te126  1  0.27658243  0.23551122  0.10645237  1
  Te  Te127  1  0.23380517  0.24903832  0.41134069  1
  Te  Te128  1  0.22802616  0.27391507  0.76708743  1
  Te  Te129  1  0.27377954  0.58138566  0.08546617  1
  Te  Te130  1  0.25718584  0.57861256  0.42221582  1
  Te  Te131  1  0.29067973  0.55438037  0.71322112  1
  Te  Te132  1  0.24308738  0.90742406  0.06363701  1
  Te  Te133  1  0.26356075  0.90409861  0.41679609  1
  Te  Te134  1  0.23243517  0.88469107  0.74998981  1
  Te  Te135  1  0.58654128  0.25159204  0.08627184  1
  Te  Te136  1  0.55025097  0.23375068  0.42871317  1
  Te  Te137  1  0.57842073  0.26053805  0.75225965  1
  Te  Te138  1  0.59213602  0.58288631  0.08477911  1
  Te  Te139  1  0.57741822  0.60110627  0.43022049  1
  Te  Te140  1  0.57004191  0.54636289  0.73378077  1
  Te  Te141  1  0.55735008  0.92613150  0.10278021  1
  Te  Te142  1  0.59097832  0.92788789  0.41094718  1
  Te  Te143  1  0.58338701  0.93843699  0.74892706  1
  Te  Te144  1  0.92946059  0.25049863  0.06385556  1
  Te  Te145  1  0.90650598  0.26442140  0.43110322  1
  Te  Te146  1  0.91883214  0.25912864  0.75722532  1
  Te  Te147  1  0.91673767  0.56761776  0.07150319  1
  Te  Te148  1  0.91060165  0.56238339  0.42317768  1
  Te  Te149  1  0.93103859  0.57986689  0.76102148  1
  Te  Te150  1  0.91063157  0.93124620  0.09550323  1
  Te  Te151  1  0.93297780  0.91073264  0.41957391  1
  Te  Te152  1  0.92006958  0.90413366  0.76051822  1
  Te  Te153  1  0.21896198  0.08601191  0.21923266  1
  Te  Te154  1  0.26170930  0.07108645  0.59108515  1
  Te  Te155  1  0.24215646  0.10487785  0.93093836  1
  Te  Te156  1  0.25746010  0.42873312  0.23212818  1
  Te  Te157  1  0.22856630  0.40235504  0.58830599  1
  Te  Te158  1  0.24978866  0.41953816  0.89591413  1
  Te  Te159  1  0.24020258  0.74930017  0.25440357  1
  Te  Te160  1  0.19225012  0.71863707  0.60223734  1
  Te  Te161  1  0.22945739  0.72914629  0.90841495  1
  Te  Te162  1  0.59594017  0.06757076  0.30657204  1
  Te  Te163  1  0.60153351  0.13236854  0.53557300  1
  Te  Te164  1  0.61114979  0.11984700  0.91882745  1
  Te  Te165  1  0.58415692  0.40857999  0.25248541  1
  Te  Te166  1  0.55847651  0.41561451  0.58479927  1
  Te  Te167  1  0.57766703  0.41888268  0.90349965  1
  Te  Te168  1  0.59512267  0.74578746  0.26891284  1
  Te  Te169  1  0.57466232  0.74130653  0.57934040  1
  Te  Te170  1  0.58757460  0.72613385  0.90720606  1
  Te  Te171  1  0.90831673  0.08044453  0.24275190  1
  Te  Te172  1  0.92249405  0.09157499  0.56488239  1
  Te  Te173  1  0.92052504  0.08984596  0.91558024  1
  Te  Te174  1  0.89843252  0.44649760  0.25303222  1
  Te  Te175  1  0.91116887  0.40979468  0.57932829  1
  Te  Te176  1  0.88852148  0.43024921  0.94858628  1
  Te  Te177  1  0.92460460  0.74819731  0.24168993  1
  Te  Te178  1  0.92185076  0.70716530  0.57704876  1
  Te  Te179  1  0.91990701  0.73116826  0.90073846  1
