# generated using pymatgen
data_In2Te3
_symmetry_space_group_name_H-M   'P 1'
_cell_length_a   18.96963715
_cell_length_b   18.94296030
_cell_length_c   18.90123078
_cell_angle_alpha   90.07924505
_cell_angle_beta   89.84797662
_cell_angle_gamma   89.74432849
_symmetry_Int_Tables_number   1
_chemical_formula_structural   In2Te3
_chemical_formula_sum   'In72 Te108'
_cell_volume   6791.89060581
_cell_formula_units_Z   36
loop_
 _symmetry_equiv_pos_site_id
 _symmetry_equiv_pos_as_xyz
  1  'x, y, z'
loop_
 _atom_site_type_symbol
 _atom_site_label
 _atom_site_symmetry_multiplicity
 _atom_site_fract_x
 _atom_site_fract_y
 _atom_site_fract_z
 _atom_site_occupancy
  In  In0  1  0.17295653  0.68689847  0.80725102  1
  In  In1  1  0.50702451  0.50779558  0.67508271  1
  In  In2  1  0.50327112  -0.02071193  0.47499032  1
  In  In3  1  -0.08274433  0.25580295  0.24371446  1
  In  In4  1  0.16265624  0.04527241  0.44006905  1
  In  In5  1  0.86066066  0.66788371  0.18084675  1
  In  In6  1  0.00887982  0.31415313  0.04513287  1
  In  In7  1  0.65974968  -0.00605475  0.65838959  1
  In  In8  1  0.84944307  0.30447926  0.50291836  1
  In  In9  1  0.34473964  0.01730895  0.25169734  1
  In  In10  1  -0.03246832  0.50196744  0.84225618  1
  In  In11  1  0.80570471  0.50434877  0.69933958  1
  In  In12  1  0.35487847  0.69175953  0.04116592  1
  In  In13  1  0.84479410  0.16112654  0.66486463  1
  In  In14  1  0.68051669  0.31803533  0.69463667  1
  In  In15  1  0.67864129  0.67824338  0.65173755  1
  In  In16  1  0.16564930  0.01366598  0.82383785  1
  In  In17  1  0.84557581  0.66672066  0.51765723  1
  In  In18  1  0.65015811  0.45436770  0.46161428  1
  In  In19  1  0.32964983  0.32269837  0.02071446  1
  In  In20  1  0.88441445  0.88646970  0.26091353  1
  In  In21  1  0.48419064  0.02588483  0.85170425  1
  In  In22  1  0.67059403  0.66900624  0.02046949  1
  In  In23  1  0.33822403  0.37064297  0.68802410  1
  In  In24  1  0.14268455  0.85350642  0.63929436  1
  In  In25  1  0.33634368  0.01120779  0.02815470  1
  In  In26  1  0.57154154  0.31871434  0.92940353  1
  In  In27  1  0.84565488  0.07061490  0.37312719  1
  In  In28  1  0.16000769  0.31225245  0.89167277  1
  In  In29  1  0.49336381  0.50638336  0.31980027  1
  In  In30  1  0.51307127  0.33295583  0.16998501  1
  In  In31  1  0.83563249  0.70062705  0.83779529  1
  In  In32  1  0.65440076  0.49455744  0.87743930  1
  In  In33  1  0.47864315  0.65937943  0.48605012  1
  In  In34  1  0.49730125  0.84407098  0.66150832  1
  In  In35  1  0.70948797  0.89600987  0.42393710  1
  In  In36  1  0.54013571  0.14818814  0.30293402  1
  In  In37  1  0.16956149  0.15907238  0.65119156  1
  In  In38  1  -0.02015807  0.67396467  -0.00559591  1
  In  In39  1  0.31602160  0.70006459  0.69237197  1
  In  In40  1  0.12012791  0.14834707  0.10725011  1
  In  In41  1  0.14519543  0.30260161  0.47965561  1
  In  In42  1  0.34399611  0.35490964  0.33791657  1
  In  In43  1  0.13855332  0.46135386  0.65546380  1
  In  In44  1  0.50465062  0.15686647  0.67500613  1
  In  In45  1  0.03227027  0.67287256  0.64977601  1
  In  In46  1  0.30335326  0.86567328  0.85391356  1
  In  In47  1  0.52324056  0.15778701  0.05021478  1
  In  In48  1  0.14960105  0.49822221  0.00185039  1
  In  In49  1  0.15095216  0.86902485  -0.00899828  1
  In  In50  1  0.33298410  0.18713931  0.83659716  1
  In  In51  1  0.52073064  0.67208642  0.87241621  1
  In  In52  1  0.15811519  0.66609538  0.17880061  1
  In  In53  1  0.30178265  0.84088961  0.46767389  1
  In  In54  1  0.31324281  0.52136459  0.48255952  1
  In  In55  1  0.83889631  0.02323253  0.86539926  1
  In  In56  1  0.15389971  0.49977916  0.34402785  1
  In  In57  1  0.51226963  0.29463042  0.47008497  1
  In  In58  1  0.68498065  0.68136269  0.30766941  1
  In  In59  1  -0.01378892  0.30596462  0.69060960  1
  In  In60  1  0.33702253  0.68102577  0.28358730  1
  In  In61  1  0.85362841  0.89151716  0.03698927  1
  In  In62  1  0.13326530  0.85181154  0.30981883  1
  In  In63  1  0.68353979  0.16609837  0.87712369  1
  In  In64  1  0.84756295  0.82800167  0.66399263  1
  In  In65  1  0.34574223  0.53395592  0.83427487  1
  In  In66  1  -0.00957151  0.00736346  0.64649951  1
  In  In67  1  0.65254139  0.83605031  0.15297809  1
  In  In68  1  0.82624856  0.48371552  0.02731117  1
  In  In69  1  0.35359032  0.18578759  0.48164131  1
  In  In70  1  -0.01402165  0.46715801  0.49288141  1
  In  In71  1  0.85678781  0.48514043  0.30565266  1
  Te  Te72  1  0.05238079  0.01365958  0.07808923  1
  Te  Te73  1  0.05617387  0.12670571  0.37987388  1
  Te  Te74  1  0.06642813  0.09760081  0.74432351  1
  Te  Te75  1  0.11499121  0.39884087  0.10281474  1
  Te  Te76  1  0.05672120  0.38420072  0.38885636  1
  Te  Te77  1  0.07044142  0.40026271  0.77853657  1
  Te  Te78  1  0.09777414  0.74237069  0.05810110  1
  Te  Te79  1  0.14825470  0.75466149  0.41722130  1
  Te  Te80  1  0.06913344  0.78212200  0.75181499  1
  Te  Te81  1  0.41831991  0.08745180  0.13074371  1
  Te  Te82  1  0.42764795  0.08474844  0.39277435  1
  Te  Te83  1  0.39255075  0.08097325  0.74244518  1
  Te  Te84  1  0.40471692  0.41370604  0.10587779  1
  Te  Te85  1  0.43251571  0.42414440  0.44733942  1
  Te  Te86  1  0.44328938  0.42456012  0.78550040  1
  Te  Te87  1  0.44760056  0.78153657  0.11531080  1
  Te  Te88  1  0.40901973  0.75773665  0.39468236  1
  Te  Te89  1  0.43649548  0.74916873  0.76527992  1
  Te  Te90  1  0.76862806  0.01492918  0.06039597  1
  Te  Te91  1  0.69496319  0.08321408  0.38967824  1
  Te  Te92  1  0.73551599  0.08372658  0.75551898  1
  Te  Te93  1  0.73833098  0.38288454  0.08510526  1
  Te  Te94  1  0.77780346  0.39659285  0.40497923  1
  Te  Te95  1  0.75160928  0.40447551  0.79807929  1
  Te  Te96  1  0.77934466  0.76067555  0.09139600  1
  Te  Te97  1  0.75929686  0.74790702  0.42177309  1
  Te  Te98  1  0.73352370  0.77493135  0.75440019  1
  Te  Te99  1  0.05873585  0.19647556  0.24054842  1
  Te  Te100  1  0.05565731  0.22962513  0.57803338  1
  Te  Te101  1  0.07943395  0.20905401  0.95940624  1
  Te  Te102  1  0.06783387  0.58603080  0.26175365  1
  Te  Te103  1  0.08656084  0.56500928  0.55667238  1
  Te  Te104  1  0.07802916  0.59391043  0.89240998  1
  Te  Te105  1  0.07838283  0.95799021  0.22320180  1
  Te  Te106  1  0.08734874  0.95279078  0.54124794  1
  Te  Te107  1  0.06117827  0.95504309  0.91189976  1
  Te  Te108  1  0.42836540  0.25193484  0.26648967  1
  Te  Te109  1  0.42279446  0.26321456  0.60089347  1
  Te  Te110  1  0.43448445  0.23623611  0.93971473  1
  Te  Te111  1  0.40467595  0.56559374  0.21908980  1
  Te  Te112  1  0.40330793  0.58872879  0.59836122  1
  Te  Te113  1  0.42645064  0.58525290  0.95161741  1
  Te  Te114  1  0.43688525  0.90050574  0.22007385  1
  Te  Te115  1  0.40132690  0.91131493  0.56686500  1
  Te  Te116  1  0.41845799  0.91583685  0.93383396  1
  Te  Te117  1  0.79560533  0.16842453  0.21986925  1
  Te  Te118  1  0.73894368  0.23546280  0.58056263  1
  Te  Te119  1  0.71420070  0.28262314  0.96723177  1
  Te  Te120  1  0.75401250  0.56989530  0.23096202  1
  Te  Te121  1  0.74458511  0.56485531  0.57304295  1
  Te  Te122  1  0.77250967  0.58990242  0.91986301  1
  Te  Te123  1  0.72763421  0.90620989  0.26437292  1
  Te  Te124  1  0.74663404  0.90204859  0.57556521  1
  Te  Te125  1  0.74985501  0.92261056  0.92824001  1
  Te  Te126  1  0.25402225  0.22719520  0.10309435  1
  Te  Te127  1  0.24893813  0.24271082  0.38710597  1
  Te  Te128  1  0.23644839  0.26057040  0.74412859  1
  Te  Te129  1  0.24420017  0.58850415  0.07773494  1
  Te  Te130  1  0.24233005  0.62307013  0.39476848  1
  Te  Te131  1  0.23337268  0.56354236  0.72948723  1
  Te  Te132  1  0.25316291  0.90505377  0.08947399  1
  Te  Te133  1  0.25898570  0.94892270  0.36930098  1
  Te  Te134  1  0.24644110  0.92414128  0.72890101  1
  Te  Te135  1  0.62191109  0.23758282  0.12630795  1
  Te  Te136  1  0.62301044  0.23900410  0.38894063  1
  Te  Te137  1  0.57849336  0.23989219  0.77867051  1
  Te  Te138  1  0.58716272  0.57840284  0.09644381  1
  Te  Te139  1  0.59391959  0.59265504  0.41095982  1
  Te  Te140  1  0.60366176  0.59060502  0.75982518  1
  Te  Te141  1  0.54092296  0.92692825  0.11171044  1
  Te  Te142  1  0.56825318  0.87965908  0.38873541  1
  Te  Te143  1  0.56948993  0.93078055  0.76227954  1
  Te  Te144  1  0.89423903  0.22488981  0.08942421  1
  Te  Te145  1  0.91037281  0.21077826  0.40378252  1
  Te  Te146  1  0.89262188  0.23850476  0.78033377  1
  Te  Te147  1  0.93734342  0.56756329  0.09099720  1
  Te  Te148  1  0.91498048  0.57698501  0.41631332  1
  Te  Te149  1  0.91692423  0.60555408  0.73246232  1
  Te  Te150  1  0.97879342  0.88255184  0.12701943  1
  Te  Te151  1  0.91003279  0.93958861  0.39761600  1
  Te  Te152  1  0.90329881  0.93810363  0.75039423  1
  Te  Te153  1  0.22878233  0.10362051  0.20918038  1
  Te  Te154  1  0.26085385  0.08841569  0.55409894  1
  Te  Te155  1  0.25563750  0.08781898  0.92080708  1
  Te  Te156  1  0.24632516  0.42633719  0.25562191  1
  Te  Te157  1  0.23990391  0.39927161  0.55779893  1
  Te  Te158  1  0.25894321  0.42756110  0.90898124  1
  Te  Te159  1  0.24393414  0.78499191  0.22201327  1
  Te  Te160  1  0.23581115  0.74871957  0.57515352  1
  Te  Te161  1  0.26805402  0.73373735  0.91625009  1
  Te  Te162  1  0.63243383  0.03890176  0.25930960  1
  Te  Te163  1  0.57720565  0.08162084  0.56616162  1
  Te  Te164  1  0.59291037  0.06794063  0.94890873  1
  Te  Te165  1  0.59204634  0.41123116  0.26979396  1
  Te  Te166  1  0.59835659  0.41006241  0.60228996  1
  Te  Te167  1  0.58824838  0.45384062  1.00754397  1
  Te  Te168  1  0.57526384  0.72084629  0.21479454  1
  Te  Te169  1  0.57306966  0.74913691  0.56969551  1
  Te  Te170  1  0.59909931  0.77155826  0.94321504  1
  Te  Te171  1  0.87721361  0.04142277  0.22544402  1
  Te  Te172  1  0.88544337  0.06550607  0.55979708  1
  Te  Te173  1  0.86836548  0.10743261  0.98692204  1
  Te  Te174  1  0.93525353  0.40025645  0.21480237  1
  Te  Te175  1  0.90105374  0.41223226  0.61223310  1
  Te  Te176  1  0.92605610  0.40117758  0.94386224  1
  Te  Te177  1  0.93894109  0.74730012  0.27544290  1
  Te  Te178  1  0.94819677  0.76796223  0.56418907  1
  Te  Te179  1  0.91965883  0.78982572  0.92134040  1
