# generated using pymatgen
data_In2Te3
_symmetry_space_group_name_H-M   'P 1'
_cell_length_a   18.90412917
_cell_length_b   18.88139814
_cell_length_c   18.89218513
_cell_angle_alpha   89.99107789
_cell_angle_beta   90.07797380
_cell_angle_gamma   89.96530317
_symmetry_Int_Tables_number   1
_chemical_formula_structural   In2Te3
_chemical_formula_sum   'In72 Te108'
_cell_volume   6743.30078428
_cell_formula_units_Z   36
loop_
 _symmetry_equiv_pos_site_id
 _symmetry_equiv_pos_as_xyz
  1  'x, y, z'
loop_
 _atom_site_type_symbol
 _atom_site_label
 _atom_site_symmetry_multiplicity
 _atom_site_fract_x
 _atom_site_fract_y
 _atom_site_fract_z
 _atom_site_occupancy
  In  In0  1  0.33265773  0.83095037  0.17166158  1
  In  In1  1  0.15337647  0.33090274  0.50885526  1
  In  In2  1  -0.01099924  0.65679539  0.33563997  1
  In  In3  1  -0.00954590  0.47485311  0.17233538  1
  In  In4  1  0.49556645  0.86985317  0.02984126  1
  In  In5  1  0.49654905  0.86099057  0.35215302  1
  In  In6  1  0.50892245  0.66010828  0.17888536  1
  In  In7  1  0.31842880  0.03094999  -0.00558214  1
  In  In8  1  -0.01470995  0.15444016  0.17167978  1
  In  In9  1  0.31752782  0.67205897  0.65525400  1
  In  In10  1  0.51212188  0.66841677  0.83815846  1
  In  In11  1  0.50882299  0.00028182  0.15783415  1
  In  In12  1  0.49509014  0.47710522  0.01802070  1
  In  In13  1  0.67336403  0.66883585  0.32575970  1
  In  In14  1  0.50648463  0.16614481  0.33959388  1
  In  In15  1  0.84166329  0.49891869  -0.01603882  1
  In  In16  1  0.00106548  0.67558654  0.66480775  1
  In  In17  1  0.49454172  0.31223347  0.50222306  1
  In  In18  1  0.51631831  0.86200476  0.68288359  1
  In  In19  1  0.66932843  0.87152294  0.15852022  1
  In  In20  1  0.66109764  0.50383197  0.18250063  1
  In  In21  1  0.65029613  0.85130593  0.50038932  1
  In  In22  1  0.49886891  0.68179909  0.51152738  1
  In  In23  1  0.49268020  0.49952100  0.68840127  1
  In  In24  1  0.17701690  0.31145707  0.14788180  1
  In  In25  1  0.00065399  0.48924804  0.83635904  1
  In  In26  1  0.17628392  0.14355593  0.67926602  1
  In  In27  1  0.34364427  0.66504725  0.31581182  1
  In  In28  1  0.66905984  0.31498579  0.01444495  1
  In  In29  1  0.34748161  0.00975482  0.66930389  1
  In  In30  1  0.67692391  0.70255805  -0.00442757  1
  In  In31  1  0.83249467  0.50156459  0.65880142  1
  In  In32  1  -0.00019523  0.68099627  0.00162491  1
  In  In33  1  -0.02520785  0.49239880  0.49584803  1
  In  In34  1  0.82466530  0.85515351  0.32236255  1
  In  In35  1  0.31693347  0.32740386  0.33573207  1
  In  In36  1  0.67451668  0.00083402  0.66926927  1
  In  In37  1  0.81867573  0.02378130  0.47933260  1
  In  In38  1  0.85944089  0.01202276  0.81881743  1
  In  In39  1  0.18206661  0.48937289  0.69187214  1
  In  In40  1  0.00208360  0.84875614  0.15715949  1
  In  In41  1  0.16219484  0.01342988  0.15403949  1
  In  In42  1  0.65860931  0.15136837  0.84956805  1
  In  In43  1  0.34629756  0.29283967  -0.02398954  1
  In  In44  1  0.69093880  0.48405133  0.50612555  1
  In  In45  1  0.69308716  0.32916928  0.66611915  1
  In  In46  1  0.15231435  0.50404932  0.34442322  1
  In  In47  1  0.49504063  0.30934420  0.14864714  1
  In  In48  1  0.50867380  0.14267107  0.67759364  1
  In  In49  1  0.00402932  0.16437578  0.48986792  1
  In  In50  1  0.32667416  0.82379079  0.85468836  1
  In  In51  1  0.16704011  0.50291714  0.02358943  1
  In  In52  1  0.81760919  0.30268624  0.21946809  1
  In  In53  1  0.82792286  0.14410888  0.01181789  1
  In  In54  1  0.84489790  0.86185714  0.01326339  1
  In  In55  1  0.83165589  0.32065711  0.47590187  1
  In  In56  1  0.15206069  0.66290284  0.49431367  1
  In  In57  1  0.32443127  0.48335439  0.81795923  1
  In  In58  1  0.69131189  0.83011159  0.80355069  1
  In  In59  1  0.19795858  0.89061591  0.34829481  1
  In  In60  1  0.66720490  0.48988294  0.86612598  1
  In  In61  1  0.00149706  0.01938788  0.66977648  1
  In  In62  1  0.88005025  0.29188198  0.80345983  1
  In  In63  1  0.13374878  0.30040203  0.86742320  1
  In  In64  1  0.14604532  0.84324668  0.67262025  1
  In  In65  1  -0.00371305  0.84060694  0.51291259  1
  In  In66  1  0.00555762  0.86098138  0.85388044  1
  In  In67  1  0.50376262  0.00127887  0.49192466  1
  In  In68  1  0.31375687  0.30978702  0.65985104  1
  In  In69  1  0.51166475  0.47227676  0.33397970  1
  In  In70  1  0.31073702  0.66023277  -0.01176732  1
  In  In71  1  0.15964748  0.15418404  0.31806391  1
  Te  Te72  1  0.09112390  0.11755641  0.06876124  1
  Te  Te73  1  0.08305395  0.06878165  0.41140789  1
  Te  Te74  1  0.10162957  0.05584742  0.77989114  1
  Te  Te75  1  0.07204851  0.39468883  0.07219983  1
  Te  Te76  1  0.06151721  0.40135264  0.41018803  1
  Te  Te77  1  0.08253927  0.39331273  0.75210124  1
  Te  Te78  1  0.09361283  0.76323100  0.07881590  1
  Te  Te79  1  0.07644687  0.76192486  0.40745395  1
  Te  Te80  1  0.07990039  0.74998791  0.77020045  1
  Te  Te81  1  0.42215336  0.09388646  0.08082206  1
  Te  Te82  1  0.40461255  0.08014107  0.41174805  1
  Te  Te83  1  0.40536478  0.09758669  0.77513418  1
  Te  Te84  1  0.38754546  0.39563098  0.08402203  1
  Te  Te85  1  0.40745458  0.41187242  0.42547305  1
  Te  Te86  1  0.41684700  0.38382532  0.75047664  1
  Te  Te87  1  0.42294515  0.74011461  0.07799220  1
  Te  Te88  1  0.40542013  0.75981052  0.42016050  1
  Te  Te89  1  0.42083373  0.74736524  0.74380854  1
  Te  Te90  1  0.75019891  0.05364514  0.09824164  1
  Te  Te91  1  0.77226371  0.12019926  0.37198061  1
  Te  Te92  1  0.75887172  0.10091583  0.74635485  1
  Te  Te93  1  0.74882697  0.42593812  0.08134699  1
  Te  Te94  1  0.75583130  0.41929585  0.39235357  1
  Te  Te95  1  0.76317357  0.41551843  0.77134901  1
  Te  Te96  1  0.76167876  0.76413672  0.10238366  1
  Te  Te97  1  0.74650235  0.76388538  0.41783040  1
  Te  Te98  1  0.73508919  0.73575866  0.70463667  1
  Te  Te99  1  0.07409469  0.25699190  0.24494273  1
  Te  Te100  1  0.07887311  0.24025940  0.60587701  1
  Te  Te101  1  0.04812378  0.20690997  0.94413680  1
  Te  Te102  1  0.07834241  0.58324362  0.23768591  1
  Te  Te103  1  0.08622918  0.56333803  0.58993551  1
  Te  Te104  1  0.08590095  0.58117857  0.92106622  1
  Te  Te105  1  0.08521985  0.93416377  0.25877555  1
  Te  Te106  1  0.09236881  0.94288885  0.57182482  1
  Te  Te107  1  0.10355865  0.95428597  0.91369337  1
  Te  Te108  1  0.40434641  0.23920888  0.24901036  1
  Te  Te109  1  0.40906346  0.21888328  0.58462386  1
  Te  Te110  1  0.43533079  0.20439407  0.89893193  1
  Te  Te111  1  0.42106231  0.55458693  0.24085568  1
  Te  Te112  1  0.41323153  0.57762814  0.58411064  1
  Te  Te113  1  0.42164137  0.56851080  0.91059494  1
  Te  Te114  1  0.40818077  0.93389018  0.25291855  1
  Te  Te115  1  0.41891795  0.90772978  0.57746626  1
  Te  Te116  1  0.41251638  0.93080977  0.91880745  1
  Te  Te117  1  0.71901749  0.19539612  0.24207026  1
  Te  Te118  1  0.74807763  0.23874829  0.56590107  1
  Te  Te119  1  0.76124634  0.24933326  0.91082467  1
  Te  Te120  1  0.76186560  0.59477878  0.23668913  1
  Te  Te121  1  0.74014676  0.59544237  0.58922092  1
  Te  Te122  1  0.75770516  0.60574217  0.91069614  1
  Te  Te123  1  0.77634174  0.95675405  0.22049976  1
  Te  Te124  1  0.76282253  0.91923406  0.57792883  1
  Te  Te125  1  0.76377473  0.92318816  0.89798720  1
  Te  Te126  1  0.24787537  0.21738215  0.05724947  1
  Te  Te127  1  0.23979614  0.23725655  0.42812925  1
  Te  Te128  1  0.24263990  0.24226096  0.77567111  1
  Te  Te129  1  0.25747061  0.58761917  0.10277881  1
  Te  Te130  1  0.25802988  0.58569573  0.41731460  1
  Te  Te131  1  0.24381128  0.60481508  0.76992390  1
  Te  Te132  1  0.25349543  0.91615336  0.07657435  1
  Te  Te133  1  0.28236843  0.98075469  0.42637965  1
  Te  Te134  1  0.26011728  0.90939233  0.74782960  1
  Te  Te135  1  0.57959649  0.21118151  0.07377354  1
  Te  Te136  1  0.59650464  0.25422453  0.41626571  1
  Te  Te137  1  0.59301455  0.24770084  0.74878087  1
  Te  Te138  1  0.58992944  0.58943572  0.06325385  1
  Te  Te139  1  0.57233249  0.59186454  0.41060917  1
  Te  Te140  1  0.60267408  0.57779432  0.75744711  1
  Te  Te141  1  0.62069739  0.95616221  0.04221571  1
  Te  Te142  1  0.61209274  0.95112082  0.39205762  1
  Te  Te143  1  0.58611928  0.94977134  0.78128519  1
  Te  Te144  1  0.89373159  0.25327569  0.09830626  1
  Te  Te145  1  0.91474297  0.23019510  0.38515781  1
  Te  Te146  1  0.95332974  0.19832237  0.71926890  1
  Te  Te147  1  0.91953521  0.58102010  0.08404921  1
  Te  Te148  1  0.89616742  0.59793188  0.43258964  1
  Te  Te149  1  0.91603640  0.58549684  0.75535889  1
  Te  Te150  1  0.94439046  0.95326562  0.07000777  1
  Te  Te151  1  0.91966416  0.93037796  0.41420536  1
  Te  Te152  1  0.92301230  0.90383132  0.73245061  1
  Te  Te153  1  0.26001191  0.08803585  0.23403046  1
  Te  Te154  1  0.25280095  0.07301572  0.57258632  1
  Te  Te155  1  0.21346436  0.06372712  0.89374313  1
  Te  Te156  1  0.23236762  0.41726613  0.24799144  1
  Te  Te157  1  0.25544243  0.42297044  0.57623127  1
  Te  Te158  1  0.24144274  0.40711034  0.91971413  1
  Te  Te159  1  0.23718185  0.76316097  0.26750595  1
  Te  Te160  1  0.23485274  0.76605247  0.57040404  1
  Te  Te161  1  0.22000817  0.76316337  0.93543685  1
  Te  Te162  1  0.59428397  0.08981505  0.24328634  1
  Te  Te163  1  0.60117343  0.08881297  0.56855300  1
  Te  Te164  1  0.54948604  0.11145866  0.94364912  1
  Te  Te165  1  0.59186318  0.38229353  0.24244106  1
  Te  Te166  1  0.58092456  0.41725650  0.58837648  1
  Te  Te167  1  0.56797700  0.38790299  0.91951008  1
  Te  Te168  1  0.58038232  0.77622162  0.24736949  1
  Te  Te169  1  0.59479125  0.75205142  0.60740393  1
  Te  Te170  1  0.57332461  0.78202280  0.91772521  1
  Te  Te171  1  0.90391381  0.10424544  0.28587073  1
  Te  Te172  1  0.90055756  0.10048096  0.58604790  1
  Te  Te173  1  0.93502325  0.09999049  0.91476674  1
  Te  Te174  1  0.89189985  0.42138255  0.26992384  1
  Te  Te175  1  0.91144766  0.39247084  0.58970072  1
  Te  Te176  1  0.92277043  0.38884385  0.91873142  1
  Te  Te177  1  0.91616439  0.75961371  0.24667881  1
  Te  Te178  1  0.90731241  0.74052650  0.57333391  1
  Te  Te179  1  0.90570602  0.76198935  0.91425293  1
