# generated using pymatgen
data_In2Te3
_symmetry_space_group_name_H-M   'P 1'
_cell_length_a   18.99979039
_cell_length_b   19.01699100
_cell_length_c   19.01691996
_cell_angle_alpha   89.87371003
_cell_angle_beta   90.09440786
_cell_angle_gamma   90.03448550
_symmetry_Int_Tables_number   1
_chemical_formula_structural   In2Te3
_chemical_formula_sum   'In72 Te108'
_cell_volume   6871.14426544
_cell_formula_units_Z   36
loop_
 _symmetry_equiv_pos_site_id
 _symmetry_equiv_pos_as_xyz
  1  'x, y, z'
loop_
 _atom_site_type_symbol
 _atom_site_label
 _atom_site_symmetry_multiplicity
 _atom_site_fract_x
 _atom_site_fract_y
 _atom_site_fract_z
 _atom_site_occupancy
  In  In0  1  0.03948032  0.69973712  0.69180441  1
  In  In1  1  -0.00484585  0.17851252  0.84171593  1
  In  In2  1  0.69800435  0.69498598  0.64929211  1
  In  In3  1  0.14361199  0.85313692  -0.02941820  1
  In  In4  1  0.00645991  0.69312581  -0.03510505  1
  In  In5  1  0.48994963  0.16564144  0.00183951  1
  In  In6  1  0.32111852  0.49531294  0.17653694  1
  In  In7  1  0.86448775  0.68407334  0.48021872  1
  In  In8  1  0.48286268  0.01331821  0.19739134  1
  In  In9  1  0.33405634  0.49466684  0.79761462  1
  In  In10  1  0.14049058  0.47074260  0.33767212  1
  In  In11  1  0.67542405  0.84394997  0.19548352  1
  In  In12  1  0.18599471  0.65669388  0.50732583  1
  In  In13  1  0.67678497  0.49729729  0.83326548  1
  In  In14  1  0.82952853  0.33399098  0.83063836  1
  In  In15  1  0.83173334  0.31768229  0.49947834  1
  In  In16  1  0.15698725  0.15294611  0.34614579  1
  In  In17  1  0.17261432  0.49561062  0.66343824  1
  In  In18  1  0.00961347  0.02226035  0.66775655  1
  In  In19  1  0.16874892  0.32571170  0.16010848  1
  In  In20  1  0.49361432  0.63554530  0.81409898  1
  In  In21  1  0.33308151  0.14652322  0.50884433  1
  In  In22  1  0.66408168  0.16538467  0.49848005  1
  In  In23  1  0.15717786  0.85373069  0.33400242  1
  In  In24  1  0.30840761  0.17414275  0.85379661  1
  In  In25  1  0.00966809  0.85384940  0.51603391  1
  In  In26  1  0.64991498  0.48698269  0.51646857  1
  In  In27  1  0.67191509  0.00833930  0.35440287  1
  In  In28  1  0.68979527  0.17346215  0.16386638  1
  In  In29  1  0.51155463  0.66867337  0.15068106  1
  In  In30  1  0.67507622  0.65282659  -0.02291835  1
  In  In31  1  0.67631001  0.03610372  -0.00164862  1
  In  In32  1  0.65818825  0.82106455  0.82199495  1
  In  In33  1  0.00042685  0.48004434  0.48115975  1
  In  In34  1  -0.00078658  0.00217314  -0.01295231  1
  In  In35  1  0.01167092  0.29047016  0.63667410  1
  In  In36  1  -0.01536998  0.17222311  0.15130318  1
  In  In37  1  0.49845031  0.48770669  -0.02884931  1
  In  In38  1  0.84292351  0.32692796  0.17778443  1
  In  In39  1  0.32141570  -0.00662337  0.66994112  1
  In  In40  1  0.35305743  0.65499655  0.64541544  1
  In  In41  1  0.52701274  0.83253831  0.38517681  1
  In  In42  1  0.48684581  0.46301984  0.35600944  1
  In  In43  1  0.83180949  0.67524914  0.15783755  1
  In  In44  1  0.16137643  0.68518530  0.13615752  1
  In  In45  1  0.52769761  0.16268889  0.68266982  1
  In  In46  1  0.83906484  0.00807034  0.79846615  1
  In  In47  1  0.33455567  0.85906500  0.16125785  1
  In  In48  1  0.52428318  0.82697512  0.63835641  1
  In  In49  1  0.47879498  0.18284365  0.35312015  1
  In  In50  1  0.83964475  -0.02095255  0.52258456  1
  In  In51  1  0.31150101  0.34142600  0.01134821  1
  In  In52  1  0.85422228  0.52984019  0.67614944  1
  In  In53  1  0.66847511  0.32921611  0.34617060  1
  In  In54  1  0.00808471  0.67639498  0.30577333  1
  In  In55  1  0.49485820  -0.03068375  0.80712100  1
  In  In56  1  0.31922292  0.81296595  0.83907050  1
  In  In57  1  0.15023129  0.31822465  0.84014568  1
  In  In58  1  0.50273712  0.83879059  0.02516886  1
  In  In59  1  0.33461670  0.66404971  0.34183641  1
  In  In60  1  0.34779226  0.34817144  0.66471879  1
  In  In61  1  -0.03039614  0.49506393  0.17436458  1
  In  In62  1  0.30680622  0.01706863  -0.01294238  1
  In  In63  1  0.83783713  0.85338693  -0.00055693  1
  In  In64  1  0.70194964  0.17813153  0.83047768  1
  In  In65  1  0.84158205  0.47017507  0.00147864  1
  In  In66  1  0.13330438  0.50358693  -0.00267651  1
  In  In67  1  0.69373462  0.63914746  0.34199904  1
  In  In68  1  0.31887808  0.01311623  0.33181339  1
  In  In69  1  0.49595613  0.30243074  0.18111079  1
  In  In70  1  0.32711397  0.84066307  0.48778076  1
  In  In71  1  0.00587577  0.02296242  0.34227060  1
  Te  Te72  1  0.07787424  0.11047449  0.05200539  1
  Te  Te73  1  0.05136248  0.11756050  0.45640527  1
  Te  Te74  1  0.09319863  0.09304362  0.77101396  1
  Te  Te75  1  0.06123712  0.40949468  0.08899812  1
  Te  Te76  1  0.09376119  0.37200176  0.43843183  1
  Te  Te77  1  0.08112312  0.39451324  0.72952157  1
  Te  Te78  1  0.06003072  0.77793572  0.07948000  1
  Te  Te79  1  0.09174501  0.74395863  0.41924742  1
  Te  Te80  1  0.09919624  0.80025416  0.78068652  1
  Te  Te81  1  0.39990902  0.08306813  0.09165122  1
  Te  Te82  1  0.42920919  0.05979622  0.42389335  1
  Te  Te83  1  0.40234691  0.08202711  0.76548463  1
  Te  Te84  1  0.42092495  0.41337710  0.09369209  1
  Te  Te85  1  0.40565260  0.42366884  0.47212744  1
  Te  Te86  1  0.45040920  0.42419420  0.74299435  1
  Te  Te87  1  0.39817684  0.74433186  0.08388430  1
  Te  Te88  1  0.42387624  0.73275583  0.44169210  1
  Te  Te89  1  0.43182261  0.75552428  0.74351712  1
  Te  Te90  1  0.77014558  0.06432022  0.10624325  1
  Te  Te91  1  0.77442663  0.08749258  0.43251114  1
  Te  Te92  1  0.74483150  0.08995026  0.72316861  1
  Te  Te93  1  0.75710398  0.42859490  0.11256948  1
  Te  Te94  1  0.75221524  0.42762039  0.42263666  1
  Te  Te95  1  0.75780521  0.42465467  0.72865200  1
  Te  Te96  1  0.72405175  0.76056517  0.07661327  1
  Te  Te97  1  0.75105296  0.75487004  0.41332518  1
  Te  Te98  1  0.77046430  0.74512402  0.76663514  1
  Te  Te99  1  0.07992576  0.24353288  0.24919762  1
  Te  Te100  1  0.10954812  0.20014456  0.57346242  1
  Te  Te101  1  0.08195372  0.24153204  0.94619589  1
  Te  Te102  1  0.09820757  0.57848775  0.22996472  1
  Te  Te103  1  0.07382001  0.58119832  0.57553733  1
  Te  Te104  1  0.08038954  0.58842144  0.89016198  1
  Te  Te105  1  0.08661947  0.94498989  0.24319565  1
  Te  Te106  1  0.10234226  0.93171902  0.59425213  1
  Te  Te107  1  0.04291453  0.90995852  0.87563588  1
  Te  Te108  1  0.38697062  0.23400101  0.25102314  1
  Te  Te109  1  0.42091731  0.23268657  0.59822944  1
  Te  Te110  1  0.40961801  0.26530560  0.92083574  1
  Te  Te111  1  0.42483502  0.57978312  0.25068579  1
  Te  Te112  1  0.41725342  0.54296844  0.57247752  1
  Te  Te113  1  0.39636948  0.58183951  0.91380417  1
  Te  Te114  1  0.42112180  0.89575278  0.28035757  1
  Te  Te115  1  0.41867711  0.91989590  0.57913077  1
  Te  Te116  1  0.40930697  0.91508192  0.92769193  1
  Te  Te117  1  0.76565574  0.23776470  0.27729153  1
  Te  Te118  1  0.72649045  0.26622938  0.58516329  1
  Te  Te119  1  0.77208408  0.24787168  0.93973418  1
  Te  Te120  1  0.75354194  0.57146574  0.22866387  1
  Te  Te121  1  0.77001595  0.58661228  0.56103865  1
  Te  Te122  1  0.78230806  0.57661367  0.90741131  1
  Te  Te123  1  0.76115214  0.94243349  0.25894048  1
  Te  Te124  1  0.74935337  0.86299235  0.54259830  1
  Te  Te125  1  0.72892035  0.92336004  0.91246666  1
  Te  Te126  1  0.23922009  0.23079899  0.07255056  1
  Te  Te127  1  0.27093434  0.22853823  0.40236687  1
  Te  Te128  1  0.24958875  0.25883746  0.74451948  1
  Te  Te129  1  0.24561424  0.57526775  0.07342213  1
  Te  Te130  1  0.24627574  0.56142778  0.40861913  1
  Te  Te131  1  0.24637780  0.60422770  0.74052883  1
  Te  Te132  1  0.22956270  0.92495263  0.07917252  1
  Te  Te133  1  0.22928458  0.94200786  0.43280409  1
  Te  Te134  1  0.23747403  0.89847476  0.75033869  1
  Te  Te135  1  0.59231458  0.25015827  0.07644473  1
  Te  Te136  1  0.56572874  0.26920852  0.43905457  1
  Te  Te137  1  0.58714659  0.25334591  0.77952335  1
  Te  Te138  1  0.58773532  0.56906758  0.06867529  1
  Te  Te139  1  0.57842893  0.57233705  0.41220344  1
  Te  Te140  1  0.61234461  0.59519746  0.73644217  1
  Te  Te141  1  0.58099226  0.93851346  0.10764449  1
  Te  Te142  1  0.62510851  0.91460143  0.46458235  1
  Te  Te143  1  0.60936406  0.92296803  0.71983798  1
  Te  Te144  1  0.88370607  0.24156926  0.06391516  1
  Te  Te145  1  0.94641640  0.30677892  0.40880804  1
  Te  Te146  1  0.90875525  0.24157694  0.73461156  1
  Te  Te147  1  0.93124364  0.60013752  0.07199311  1
  Te  Te148  1  0.92633434  0.58025872  0.39016946  1
  Te  Te149  1  0.95698785  0.59697921  0.75889109  1
  Te  Te150  1  0.90924184  0.94313227  0.08858857  1
  Te  Te151  1  0.92379595  0.91365495  0.41010883  1
  Te  Te152  1  0.91103863  0.91869051  0.71011200  1
  Te  Te153  1  0.21235715  0.06037267  0.24221890  1
  Te  Te154  1  0.23125194  0.09204602  0.60314139  1
  Te  Te155  1  0.21152377  0.06586055  0.88419529  1
  Te  Te156  1  0.25402946  0.39705215  0.26703381  1
  Te  Te157  1  0.25528218  0.41719254  0.57071703  1
  Te  Te158  1  0.24185906  0.42641474  0.90491183  1
  Te  Te159  1  0.24710087  0.75368481  0.25319708  1
  Te  Te160  1  0.25406071  0.75954457  0.59309136  1
  Te  Te161  1  0.23232878  0.74332843  0.93277073  1
  Te  Te162  1  0.58478349  0.10538946  0.26293318  1
  Te  Te163  1  0.58114625  0.07526534  0.58042474  1
  Te  Te164  1  0.55853947  0.06693752  0.90965457  1
  Te  Te165  1  0.58032727  0.40706753  0.25050593  1
  Te  Te166  1  0.53006338  0.43612906  0.58984138  1
  Te  Te167  1  0.60715529  0.40557024  0.92274419  1
  Te  Te168  1  0.57442470  0.75123087  0.26109796  1
  Te  Te169  1  0.57382572  0.70730169  0.57258856  1
  Te  Te170  1  0.56192180  0.74443220  0.91888991  1
  Te  Te171  1  0.91750197  0.11430541  0.26879812  1
  Te  Te172  1  0.92704374  0.09294871  0.56321510  1
  Te  Te173  1  0.89673085  0.08614731  0.91115145  1
  Te  Te174  1  0.93137420  0.39586299  0.27904169  1
  Te  Te175  1  0.92158845  0.41643682  0.59482546  1
  Te  Te176  1  0.92937545  0.41274208  0.90228813  1
  Te  Te177  1  0.91174269  0.76416081  0.24188260  1
  Te  Te178  1  0.93067672  0.75331289  0.59721061  1
  Te  Te179  1  0.89088746  0.75998244  0.90076304  1
