# generated using pymatgen
data_In2Te3
_symmetry_space_group_name_H-M   'P 1'
_cell_length_a   18.94478049
_cell_length_b   18.93418509
_cell_length_c   18.93351686
_cell_angle_alpha   89.90871727
_cell_angle_beta   90.04005486
_cell_angle_gamma   89.88434995
_symmetry_Int_Tables_number   1
_chemical_formula_structural   In2Te3
_chemical_formula_sum   'In72 Te108'
_cell_volume   6791.50372804
_cell_formula_units_Z   36
loop_
 _symmetry_equiv_pos_site_id
 _symmetry_equiv_pos_as_xyz
  1  'x, y, z'
loop_
 _atom_site_type_symbol
 _atom_site_label
 _atom_site_symmetry_multiplicity
 _atom_site_fract_x
 _atom_site_fract_y
 _atom_site_fract_z
 _atom_site_occupancy
  In  In0  1  0.48194732  0.31533352  0.48484426  1
  In  In1  1  0.48627939  0.48043727  0.65102516  1
  In  In2  1  -0.02392498  0.00764055  0.32590641  1
  In  In3  1  0.82197003  0.01620054  0.52391511  1
  In  In4  1  0.48924666  0.31431087  0.85340499  1
  In  In5  1  0.16528404  0.49984113  0.01859092  1
  In  In6  1  0.18321656  0.18310022  -0.00754080  1
  In  In7  1  0.84209209  0.35040078  0.48011226  1
  In  In8  1  -0.00147222  0.01649602  0.67106765  1
  In  In9  1  -0.00938169  0.00832834  -0.00776911  1
  In  In10  1  -0.00020863  0.82065903  0.47838141  1
  In  In11  1  0.33528664  0.34021555  0.32382238  1
  In  In12  1  0.83781532  0.32833363  0.83123338  1
  In  In13  1  0.17257060  -0.00420411  0.19090925  1
  In  In14  1  0.66002817  0.69349483  0.32158331  1
  In  In15  1  0.84491473  0.34615430  0.17149752  1
  In  In16  1  0.48975013  0.65484060  0.49758607  1
  In  In17  1  0.35659425  0.16670205  0.50693900  1
  In  In18  1  0.69231816  -0.03462742  0.28507359  1
  In  In19  1  0.68923680  0.33759550  0.00746327  1
  In  In20  1  0.65259066  0.18891297  0.46692295  1
  In  In21  1  0.51384147  0.51573149  0.02052708  1
  In  In22  1  -0.01587915  0.67289802  0.00699838  1
  In  In23  1  0.35158444  -0.00361172  0.05105053  1
  In  In24  1  0.37944891  -0.03151791  0.31173789  1
  In  In25  1  0.82839187  0.17872434  0.33643228  1
  In  In26  1  0.82085766  0.14789723  0.00225485  1
  In  In27  1  0.33126758  0.51328876  0.85516491  1
  In  In28  1  0.15578464  -0.00851370  0.83036816  1
  In  In29  1  0.81372344  0.81275400  0.02819411  1
  In  In30  1  0.32525571  0.67908742  0.30673705  1
  In  In31  1  0.37347245  0.80635109  0.84755170  1
  In  In32  1  0.15953915  0.85439479  0.01957428  1
  In  In33  1  0.16794076  0.67746053  0.82274894  1
  In  In34  1  0.84378639  0.17794646  0.67963450  1
  In  In35  1  0.81369649  0.66651784  0.48216014  1
  In  In36  1  0.32366336  0.15435139  0.84654594  1
  In  In37  1  0.15516560  0.51542978  0.33265029  1
  In  In38  1  0.31341833  0.01639372  0.68321651  1
  In  In39  1  0.49158495  0.35636107  0.17013763  1
  In  In40  1  0.82106929  0.50122545  0.32419341  1
  In  In41  1  0.63004145  0.10743051  0.88853726  1
  In  In42  1  0.15427237  0.21835507  0.65443862  1
  In  In43  1  0.82164780  0.81599352  0.67754500  1
  In  In44  1  0.50660089  0.49514358  0.32799917  1
  In  In45  1  0.82832628  0.53737089  0.01641447  1
  In  In46  1  0.66329966  0.67422185  0.66459288  1
  In  In47  1  0.33659924  0.65006054  0.00809235  1
  In  In48  1  0.16371598  0.35605017  0.84581818  1
  In  In49  1  0.01021503  0.67165715  0.32489686  1
  In  In50  1  -0.01749173  0.49935404  0.83289152  1
  In  In51  1  0.49348674  0.82679262  0.67474293  1
  In  In52  1  0.18535511  0.47380425  0.64138530  1
  In  In53  1  0.65305780  0.33339419  0.66334813  1
  In  In54  1  0.01195029  0.48369190  0.50850016  1
  In  In55  1  0.52245217  -0.02355868  0.48472458  1
  In  In56  1  0.83841912  0.53119833  0.66697174  1
  In  In57  1  0.64492470  -0.01767971  0.68139694  1
  In  In58  1  0.17495897  0.32436484  0.15423569  1
  In  In59  1  0.65818082  0.16278669  0.16466368  1
  In  In60  1  0.48433857  0.15923520  0.66506750  1
  In  In61  1  0.00904666  0.64441616  0.67348841  1
  In  In62  1  -0.01071825  0.83171448  0.15834897  1
  In  In63  1  0.34883077  0.83212058  0.49452665  1
  In  In64  1  0.17887956  0.15907069  0.32163690  1
  In  In65  1  0.19136788  -0.00905738  0.47032229  1
  In  In66  1  0.53978466  0.82548460  0.00493556  1
  In  In67  1  0.51694686  0.66613532  0.17199696  1
  In  In68  1  -0.00156318  0.17011206  0.16392958  1
  In  In69  1  0.67231283  0.52521079  0.84174928  1
  In  In70  1  0.81981206  -0.00580936  0.84870616  1
  In  In71  1  0.16940269  0.82855371  0.64357629  1
  Te  Te72  1  0.09149348  0.07489200  0.08693710  1
  Te  Te73  1  0.08402686  0.07931171  0.41025299  1
  Te  Te74  1  0.09651422  0.10260784  0.74789518  1
  Te  Te75  1  0.07727211  0.39372542  0.06753761  1
  Te  Te76  1  0.10851166  0.40528496  0.42644479  1
  Te  Te77  1  0.07758512  0.42588858  0.74138809  1
  Te  Te78  1  0.09264550  0.73884544  0.09351173  1
  Te  Te79  1  0.10465978  0.74665403  0.41044464  1
  Te  Te80  1  0.07268451  0.76405125  0.74312188  1
  Te  Te81  1  0.47675361  0.04058418  0.12275506  1
  Te  Te82  1  0.43038222  0.07271776  0.41230027  1
  Te  Te83  1  0.42456361  0.06764670  0.77247135  1
  Te  Te84  1  0.40873699  0.42801867  0.07057875  1
  Te  Te85  1  0.40578717  0.43109557  0.42261988  1
  Te  Te86  1  0.41253284  0.41556704  0.77036081  1
  Te  Te87  1  0.42608628  0.74851225  0.07659552  1
  Te  Te88  1  0.42987283  0.75132884  0.39634443  1
  Te  Te89  1  0.40027093  0.72715435  0.72838560  1
  Te  Te90  1  0.72290428  0.06068904  0.07221116  1
  Te  Te91  1  0.73970119  0.07542544  0.40823606  1
  Te  Te92  1  0.74304912  0.07883897  0.74392140  1
  Te  Te93  1  0.74556211  0.44037578  0.10125761  1
  Te  Te94  1  0.73542659  0.41231834  0.40273833  1
  Te  Te95  1  0.74888354  0.42043107  0.74521712  1
  Te  Te96  1  0.74270707  0.73293214  0.13280047  1
  Te  Te97  1  0.73918060  0.77531965  0.41837849  1
  Te  Te98  1  0.71797950  0.76297674  0.77031546  1
  Te  Te99  1  0.08007889  0.25403683  0.25732846  1
  Te  Te100  1  0.09882149  0.30382596  0.54788814  1
  Te  Te101  1  0.08099986  0.26136786  0.92430223  1
  Te  Te102  1  0.05809579  0.56715278  0.23165994  1
  Te  Te103  1  0.10370751  0.58690205  0.57325744  1
  Te  Te104  1  0.08526698  0.58362685  0.91123355  1
  Te  Te105  1  0.07295695  0.90891786  0.26298316  1
  Te  Te106  1  0.08093838  0.93068981  0.57139475  1
  Te  Te107  1  0.06301908  0.90267335  0.91090459  1
  Te  Te108  1  0.43302171  0.25065946  0.25748163  1
  Te  Te109  1  0.39824157  0.27303257  0.61116031  1
  Te  Te110  1  0.41052690  0.22745277  0.94391021  1
  Te  Te111  1  0.41445470  0.57646665  0.23756468  1
  Te  Te112  1  0.39875917  0.57335585  0.57955455  1
  Te  Te113  1  0.44228361  0.59878381  0.91214430  1
  Te  Te114  1  0.46353585  0.90403129  0.20672141  1
  Te  Te115  1  0.41030673  0.94077272  0.59052883  1
  Te  Te116  1  0.41952106  0.90943948  0.94465193  1
  Te  Te117  1  0.74071787  0.26212732  0.24562505  1
  Te  Te118  1  0.74577200  0.24631398  0.57645436  1
  Te  Te119  1  0.73678106  0.23539345  0.90439201  1
  Te  Te120  1  0.76087262  0.61396031  0.24447997  1
  Te  Te121  1  0.73173797  0.57316318  0.56977536  1
  Te  Te122  1  0.73850440  0.61956212  0.93200610  1
  Te  Te123  1  0.77413280  0.85373986  0.22220280  1
  Te  Te124  1  0.73740956  0.90651825  0.58782998  1
  Te  Te125  1  0.73380280  0.90592805  0.93338648  1
  Te  Te126  1  0.26894990  0.22312509  0.10237215  1
  Te  Te127  1  0.26162229  0.24331078  0.41554144  1
  Te  Te128  1  0.25057221  0.25905926  0.76460434  1
  Te  Te129  1  0.24072467  0.59487940  0.10882936  1
  Te  Te130  1  0.24779975  0.60233112  0.40639405  1
  Te  Te131  1  0.24416531  0.57316015  0.74598234  1
  Te  Te132  1  0.26230101  0.89213416  0.12526465  1
  Te  Te133  1  0.26324399  0.89579535  0.38077841  1
  Te  Te134  1  0.25538419  0.89910098  0.76015337  1
  Te  Te135  1  0.58150298  0.26316331  0.08056405  1
  Te  Te136  1  0.55867811  0.25473991  0.37312504  1
  Te  Te137  1  0.57961584  0.23771274  0.75607434  1
  Te  Te138  1  0.61106167  0.61734781  0.06688121  1
  Te  Te139  1  0.59425575  0.58793593  0.40989310  1
  Te  Te140  1  0.57536648  0.57381931  0.73740393  1
  Te  Te141  1  0.64005586  0.92459366  0.05745008  1
  Te  Te142  1  0.61154191  0.90052691  0.39607581  1
  Te  Te143  1  0.56446799  0.90648037  0.78226978  1
  Te  Te144  1  0.90944415  0.25022825  0.07008462  1
  Te  Te145  1  0.92758243  0.25209644  0.41418337  1
  Te  Te146  1  0.93936795  0.26521849  0.74665372  1
  Te  Te147  1  0.93384519  0.58156977  0.11143139  1
  Te  Te148  1  0.92579999  0.58010218  0.42602880  1
  Te  Te149  1  0.89936401  0.61412935  0.77681463  1
  Te  Te150  1  0.90127560  0.93171690  0.08484791  1
  Te  Te151  1  0.90048120  0.92355720  0.42745014  1
  Te  Te152  1  0.90868975  0.92120093  0.74717569  1
  Te  Te153  1  0.28445557  0.07764256  0.25093447  1
  Te  Te154  1  0.23509491  0.09760102  0.58006311  1
  Te  Te155  1  0.25268772  0.04665910  0.93538264  1
  Te  Te156  1  0.24468650  0.42648311  0.24078524  1
  Te  Te157  1  0.25301967  0.35814194  0.58334297  1
  Te  Te158  1  0.26641406  0.40992290  0.94494183  1
  Te  Te159  1  0.23422945  0.72328725  0.19901267  1
  Te  Te160  1  0.26398707  0.74297764  0.57363897  1
  Te  Te161  1  0.24597804  0.75698360  0.92896222  1
  Te  Te162  1  0.58753418  0.06637175  0.25451729  1
  Te  Te163  1  0.58673535  0.09096325  0.57468602  1
  Te  Te164  1  0.51528230  0.09466869  0.97938851  1
  Te  Te165  1  0.59651403  0.44329760  0.22461432  1
  Te  Te166  1  0.58170011  0.40873523  0.55534072  1
  Te  Te167  1  0.59363794  0.41727713  0.91541235  1
  Te  Te168  1  0.56636429  0.78963655  0.24174306  1
  Te  Te169  1  0.57812452  0.75793070  0.57061408  1
  Te  Te170  1  0.57874848  0.77587928  0.86960212  1
  Te  Te171  1  0.88983455  0.08669884  0.22918408  1
  Te  Te172  1  0.93100973  0.11049779  0.57242613  1
  Te  Te173  1  0.91947268  0.09998823  0.89570976  1
  Te  Te174  1  0.92613230  0.41130841  0.27373867  1
  Te  Te175  1  0.91200464  0.41732921  0.60139582  1
  Te  Te176  1  0.89656396  0.42533811  0.93157460  1
  Te  Te177  1  0.90900006  0.76552361  0.26538181  1
  Te  Te178  1  0.91642955  0.73943788  0.58329726  1
  Te  Te179  1  0.90826929  0.76633984  0.92514335  1
