# generated using pymatgen
data_In2Te3
_symmetry_space_group_name_H-M   'P 1'
_cell_length_a   18.72545687
_cell_length_b   18.72611490
_cell_length_c   18.72954064
_cell_angle_alpha   90.05103628
_cell_angle_beta   89.96876932
_cell_angle_gamma   89.99870147
_symmetry_Int_Tables_number   1
_chemical_formula_structural   In2Te3
_chemical_formula_sum   'In72 Te108'
_cell_volume   6567.60455711
_cell_formula_units_Z   36
loop_
 _symmetry_equiv_pos_site_id
 _symmetry_equiv_pos_as_xyz
  1  'x, y, z'
loop_
 _atom_site_type_symbol
 _atom_site_label
 _atom_site_symmetry_multiplicity
 _atom_site_fract_x
 _atom_site_fract_y
 _atom_site_fract_z
 _atom_site_occupancy
  In  In0  1  0.68252515  0.32545821  0.31447246  1
  In  In1  1  0.00720638  0.66540161  0.31786983  1
  In  In2  1  0.33339996  0.16858814  0.84917779  1
  In  In3  1  0.14973602  0.33508773  0.17128600  1
  In  In4  1  0.48269238  0.47109900  0.65783366  1
  In  In5  1  0.30692336  0.01384591  0.63502159  1
  In  In6  1  0.52168729  0.50795661  0.00662654  1
  In  In7  1  0.32464483  0.51732923  0.16287938  1
  In  In8  1  0.35673433  0.13441526  0.15626222  1
  In  In9  1  0.31512711  0.50715839  0.48846565  1
  In  In10  1  0.52667577  0.65893063  0.85301332  1
  In  In11  1  0.18514460  0.83196453  0.01024800  1
  In  In12  1  0.00160450  0.64426156  0.00879872  1
  In  In13  1  0.66111391  0.66989112  0.66993187  1
  In  In14  1  0.31043151  0.32142811  0.34583508  1
  In  In15  1  0.02136638  0.01472179  0.33781287  1
  In  In16  1  0.68376749  0.32793863  0.00279218  1
  In  In17  1  -0.02045161  0.01328575  -0.01425983  1
  In  In18  1  -0.01476984  0.49497307  0.50501943  1
  In  In19  1  0.65773783  0.48033562  0.48610916  1
  In  In20  1  0.63745805  -0.01068524  0.31854400  1
  In  In21  1  0.49431495  0.14294880  0.31951988  1
  In  In22  1  0.32533582  0.32248419  0.66078060  1
  In  In23  1  0.83575392  0.49658793  0.68536138  1
  In  In24  1  0.16520609  0.66709225  0.17301485  1
  In  In25  1  0.83432150  0.18471171  0.32494087  1
  In  In26  1  0.47885121  0.85442649  0.65550074  1
  In  In27  1  0.01446259  0.15422479  0.52158044  1
  In  In28  1  0.35292621  0.69642016  0.04234677  1
  In  In29  1  -0.01329554  0.33726341  0.00951603  1
  In  In30  1  0.52248147  0.33266252  0.15932067  1
  In  In31  1  0.34161149  0.31888054  -0.02157458  1
  In  In32  1  0.17432000  -0.00705644  0.18286404  1
  In  In33  1  0.84322536  0.00246530  0.83307769  1
  In  In34  1  0.00035973  0.19099540  0.16557608  1
  In  In35  1  0.69011615  0.47035424  0.84521512  1
  In  In36  1  -0.01676609  0.36033026  0.30595993  1
  In  In37  1  -0.01677920  0.64812013  0.67350639  1
  In  In38  1  0.32541442  0.48710425  0.84018760  1
  In  In39  1  0.68066947  0.81705677  0.84657131  1
  In  In40  1  0.66636879  0.00063304  0.65899978  1
  In  In41  1  0.48215667  0.50774574  0.31086685  1
  In  In42  1  0.66945074  0.18769475  0.84646760  1
  In  In43  1  0.33549429  -0.00993832  0.32611768  1
  In  In44  1  0.15362746  0.34027054  0.81179664  1
  In  In45  1  0.65486062  0.84645718  0.15689426  1
  In  In46  1  0.81178469  0.01924436  0.13049563  1
  In  In47  1  0.85132442  0.01480731  0.51193866  1
  In  In48  1  0.83277145  0.83210898  0.00536465  1
  In  In49  1  0.00051336  0.83310539  0.83052331  1
  In  In50  1  0.30558803  0.67323005  0.67730776  1
  In  In51  1  0.83621489  0.85316117  0.67462079  1
  In  In52  1  0.50416822  0.32799170  0.52441879  1
  In  In53  1  0.51234027  0.15643047  0.67645021  1
  In  In54  1  0.84092850  0.49244765  0.00120043  1
  In  In55  1  0.67520199  0.16967013  0.51115180  1
  In  In56  1  0.14805527  0.32205635  0.49570130  1
  In  In57  1  0.48811157  0.69045109  0.48692225  1
  In  In58  1  0.16610251  0.03031579  0.82131731  1
  In  In59  1  0.85105734  0.82765162  0.33598964  1
  In  In60  1  0.34855474  0.85041108  0.83123157  1
  In  In61  1  0.17403636  0.82786441  0.33265415  1
  In  In62  1  0.66649588  0.65917607  0.01731036  1
  In  In63  1  0.16909072  0.17249895  -0.01342035  1
  In  In64  1  0.83538444  0.68342501  0.49407077  1
  In  In65  1  0.50700479  0.01060729  0.85618421  1
  In  In66  1  0.70232384  0.64879330  0.30711831  1
  In  In67  1  0.83572803  0.33593290  0.51634124  1
  In  In68  1  0.49525514  0.83613332  0.32864877  1
  In  In69  1  0.14149264  0.85829144  0.62370123  1
  In  In70  1  0.14793955  0.65205516  0.85074030  1
  In  In71  1  0.17434331  0.66762601  0.49565253  1
  Te  Te72  1  0.08415662  0.08452993  0.08322432  1
  Te  Te73  1  0.11791183  0.06369346  0.44725196  1
  Te  Te74  1  0.06567837  0.09817133  0.73617075  1
  Te  Te75  1  0.06938857  0.42984493  0.09238115  1
  Te  Te76  1  0.08063571  0.42690187  0.40553813  1
  Te  Te77  1  0.06419824  0.40670969  0.71699307  1
  Te  Te78  1  0.07538882  0.75627342  0.08436691  1
  Te  Te79  1  0.07260332  0.75509644  0.42402930  1
  Te  Te80  1  0.09361473  0.74910618  0.74173677  1
  Te  Te81  1  0.45100684  0.05811477  0.07283893  1
  Te  Te82  1  0.41368875  0.07539901  0.42175358  1
  Te  Te83  1  0.40819117  0.06464220  0.74901926  1
  Te  Te84  1  0.41208227  0.41695467  0.08320251  1
  Te  Te85  1  0.42539888  0.41430166  0.42153334  1
  Te  Te86  1  0.41573768  0.38659568  0.76749361  1
  Te  Te87  1  0.43563601  0.80290128  0.10495283  1
  Te  Te88  1  0.38996479  0.75278836  0.39648196  1
  Te  Te89  1  0.42875688  0.73505770  0.75113703  1
  Te  Te90  1  0.71564183  0.10391844  0.05805153  1
  Te  Te91  1  0.75229791  0.08396067  0.40858563  1
  Te  Te92  1  0.74584367  0.08876912  0.74991964  1
  Te  Te93  1  0.73529192  0.43654567  0.09243397  1
  Te  Te94  1  0.76930501  0.41771161  0.40408708  1
  Te  Te95  1  0.77272894  0.38271114  0.75790913  1
  Te  Te96  1  0.75990781  0.74361703  0.10433006  1
  Te  Te97  1  0.73414846  0.76028938  0.40987245  1
  Te  Te98  1  0.77186693  0.73710937  0.75317626  1
  Te  Te99  1  0.08796161  0.24310064  0.27750626  1
  Te  Te100  1  0.07973918  0.25542729  0.61379613  1
  Te  Te101  1  0.07012724  0.24951891  0.90567203  1
  Te  Te102  1  0.08592218  0.56299876  0.24352897  1
  Te  Te103  1  0.08716629  0.57825315  0.58529250  1
  Te  Te104  1  0.06406858  0.54762566  0.91304152  1
  Te  Te105  1  0.06959756  0.90112267  0.24494943  1
  Te  Te106  1  0.04071964  0.94520464  0.56302757  1
  Te  Te107  1  0.09062899  0.92061503  0.91981274  1
  Te  Te108  1  0.41563375  0.26186125  0.24809997  1
  Te  Te109  1  0.40973545  0.22329672  0.57998057  1
  Te  Te110  1  0.44318653  0.22268740  0.93181965  1
  Te  Te111  1  0.40459610  0.61422380  0.24350035  1
  Te  Te112  1  0.41395592  0.58878415  0.58702927  1
  Te  Te113  1  0.40948285  0.58636755  0.92359061  1
  Te  Te114  1  0.42084806  0.91614979  0.22033389  1
  Te  Te115  1  0.40007179  0.92837446  0.55541469  1
  Te  Te116  1  0.42038489  0.92125674  0.94036153  1
  Te  Te117  1  0.76584131  0.25378700  0.21198791  1
  Te  Te118  1  0.75498091  0.24929662  0.60696345  1
  Te  Te119  1  0.78331831  0.26000726  0.91298507  1
  Te  Te120  1  0.78691085  0.55350437  0.22635878  1
  Te  Te121  1  0.75247071  0.57929635  0.57773537  1
  Te  Te122  1  0.75308720  0.59131858  0.91173317  1
  Te  Te123  1  0.76065951  0.92277382  0.25016477  1
  Te  Te124  1  0.74855210  0.91229274  0.56388596  1
  Te  Te125  1  0.74444155  0.92956163  0.92889920  1
  Te  Te126  1  0.25422931  0.24572931  0.09144758  1
  Te  Te127  1  0.25573365  0.22767609  0.44717683  1
  Te  Te128  1  0.23954358  0.22858231  0.74589224  1
  Te  Te129  1  0.24106374  0.59225577  0.05952738  1
  Te  Te130  1  0.24764866  0.59290179  0.39047320  1
  Te  Te131  1  0.22902211  0.56270634  0.74867287  1
  Te  Te132  1  0.26951019  0.91310874  0.10098634  1
  Te  Te133  1  0.23593236  0.93026190  0.42147337  1
  Te  Te134  1  0.23871500  0.91151349  0.74199698  1
  Te  Te135  1  0.59631261  0.23029398  0.07964926  1
  Te  Te136  1  0.58530320  0.25407583  0.40977599  1
  Te  Te137  1  0.58068542  0.26162996  0.75273014  1
  Te  Te138  1  0.57080135  0.59711455  0.11267339  1
  Te  Te139  1  0.58389224  0.58963599  0.41056009  1
  Te  Te140  1  0.58536355  0.56161002  0.74916237  1
  Te  Te141  1  0.54934278  0.93917274  0.10357548  1
  Te  Te142  1  0.57181489  0.91706652  0.42806907  1
  Te  Te143  1  0.58775863  0.90648019  0.76022919  1
  Te  Te144  1  0.88982396  0.25203138  0.08895763  1
  Te  Te145  1  0.93205781  0.25081850  0.42260031  1
  Te  Te146  1  0.94667956  0.18914357  0.74417678  1
  Te  Te147  1  0.90795447  0.57916307  0.10781236  1
  Te  Te148  1  0.90808010  0.58286284  0.40622561  1
  Te  Te149  1  0.92635573  0.56594823  0.78247983  1
  Te  Te150  1  0.92413333  0.91868260  0.09206867  1
  Te  Te151  1  0.93720420  0.91820604  0.42960330  1
  Te  Te152  1  0.94708901  0.94069032  0.73570119  1
  Te  Te153  1  0.24836893  0.10103960  0.25987875  1
  Te  Te154  1  0.21293214  0.10400828  0.56746621  1
  Te  Te155  1  0.26284003  0.06264644  0.93570373  1
  Te  Te156  1  0.24334225  0.42434682  0.25650915  1
  Te  Te157  1  0.23656985  0.42016880  0.58446128  1
  Te  Te158  1  0.22940481  0.41007833  0.93073875  1
  Te  Te159  1  0.26648435  0.74893158  0.24604720  1
  Te  Te160  1  0.25983636  0.77102726  0.57093074  1
  Te  Te161  1  0.26261631  0.74572684  0.90728591  1
  Te  Te162  1  0.59820356  0.09676043  0.22457938  1
  Te  Te163  1  0.57026835  0.07063000  0.56312816  1
  Te  Te164  1  0.61829534  0.07488224  0.93648720  1
  Te  Te165  1  0.59865814  0.43537068  0.24322678  1
  Te  Te166  1  0.61077363  0.40064799  0.60689043  1
  Te  Te167  1  0.57285935  0.40111270  0.91421794  1
  Te  Te168  1  0.59315233  0.74271334  0.25134273  1
  Te  Te169  1  0.58438329  0.76678041  0.58102863  1
  Te  Te170  1  0.57702574  0.76692139  0.94748821  1
  Te  Te171  1  0.91474582  0.07766006  0.24347977  1
  Te  Te172  1  0.89305496  0.12174753  0.61251103  1
  Te  Te173  1  0.90439639  0.11689802  0.91081203  1
  Te  Te174  1  0.88495411  0.42940446  0.22084992  1
  Te  Te175  1  0.94284184  0.39453802  0.61615377  1
  Te  Te176  1  0.91171189  0.40691427  0.89992476  1
  Te  Te177  1  0.91104281  0.74187361  0.23260294  1
  Te  Te178  1  0.92656759  0.76134349  0.58735785  1
  Te  Te179  1  0.91706862  0.74056836  0.91747261  1
