# generated using pymatgen
data_In2Te3
_symmetry_space_group_name_H-M   'P 1'
_cell_length_a   18.88192642
_cell_length_b   18.90317625
_cell_length_c   18.88651844
_cell_angle_alpha   90.04504178
_cell_angle_beta   89.93436459
_cell_angle_gamma   89.92248525
_symmetry_Int_Tables_number   1
_chemical_formula_structural   In2Te3
_chemical_formula_sum   'In72 Te108'
_cell_volume   6741.12180527
_cell_formula_units_Z   36
loop_
 _symmetry_equiv_pos_site_id
 _symmetry_equiv_pos_as_xyz
  1  'x, y, z'
loop_
 _atom_site_type_symbol
 _atom_site_label
 _atom_site_symmetry_multiplicity
 _atom_site_fract_x
 _atom_site_fract_y
 _atom_site_fract_z
 _atom_site_occupancy
  In  In0  1  0.03420308  0.66614560  0.00065306  1
  In  In1  1  0.30437145  0.50628641  0.16376534  1
  In  In2  1  0.15855589  0.49919944  0.68578667  1
  In  In3  1  0.63351658  -0.00748315  0.04977465  1
  In  In4  1  0.65770765  0.65837956  0.31868780  1
  In  In5  1  0.66545996  0.49124533  0.82966288  1
  In  In6  1  0.32865864  0.51641414  0.49869959  1
  In  In7  1  0.32450095  0.66012182  0.67150801  1
  In  In8  1  0.67776842  0.01829540  0.31107112  1
  In  In9  1  0.33577778  0.02010944  0.68293132  1
  In  In10  1  0.44296734  0.20173111  0.30691366  1
  In  In11  1  0.67287329  0.64419902  0.67567171  1
  In  In12  1  0.02457483  0.81537449  0.84215436  1
  In  In13  1  0.87545910  0.51982270  0.69316258  1
  In  In14  1  0.03184072  -0.01067567  0.68478570  1
  In  In15  1  0.89220896  0.19348618  0.02095138  1
  In  In16  1  0.66349036  0.65791651  0.00259702  1
  In  In17  1  0.49406848  0.01113231  0.14570020  1
  In  In18  1  0.18479268  -0.01698752  0.14667826  1
  In  In19  1  0.34947751  0.80731115  0.13612688  1
  In  In20  1  0.65578429  0.31523158  -0.01101265  1
  In  In21  1  0.17616397  0.81661841  0.67455203  1
  In  In22  1  0.47999272  0.80865708  0.32420467  1
  In  In23  1  0.65187785  0.81157028  0.82373585  1
  In  In24  1  0.50186744  0.82843995  0.66577040  1
  In  In25  1  0.48424068  0.49714157  0.30097807  1
  In  In26  1  0.84799155  0.33140679  0.81515830  1
  In  In27  1  0.66441832  -0.01517532  0.65774324  1
  In  In28  1  0.85261759  0.16995983  0.64708723  1
  In  In29  1  0.15387681  0.82619786  0.35270612  1
  In  In30  1  0.64815549  0.16211064  0.82984374  1
  In  In31  1  0.66917007  0.83565603  0.49778757  1
  In  In32  1  0.83555133  -0.03682537  0.48184801  1
  In  In33  1  0.02384263  0.16341268  0.52618496  1
  In  In34  1  0.64279127  0.88449239  0.15773315  1
  In  In35  1  0.87155375  0.67849722  0.55608244  1
  In  In36  1  0.48314853  0.48009838  0.67376642  1
  In  In37  1  0.17306755  0.18687843  0.32570168  1
  In  In38  1  0.17882003  0.00240676  0.52526345  1
  In  In39  1  0.47890993  0.18259997  0.68292607  1
  In  In40  1  0.18014352  0.18105939  0.00170357  1
  In  In41  1  0.16726972  0.01337909  0.85436103  1
  In  In42  1  0.84422687  0.35606013  0.50433626  1
  In  In43  1  0.18138362  0.31671752  0.82104632  1
  In  In44  1  0.33641766  0.80173796  0.89120815  1
  In  In45  1  0.83125377  -0.00288144  0.14278851  1
  In  In46  1  0.83587163  0.84268027  -0.00011504  1
  In  In47  1  0.84259852  0.48888221  0.34746692  1
  In  In48  1  0.00954543  -0.01165845  -0.01184151  1
  In  In49  1  0.16218347  0.34316857  0.49970917  1
  In  In50  1  0.49474705  0.33298564  0.82916710  1
  In  In51  1  0.48005039  -0.00873085  0.48229456  1
  In  In52  1  0.82999903  0.49430269  -0.01762728  1
  In  In53  1  0.48883065  0.34068488  0.50216212  1
  In  In54  1  0.18831941  0.49865549  -0.02334893  1
  In  In55  1  0.03539008  0.51240229  0.16257005  1
  In  In56  1  0.44024592  0.51833113  0.00118440  1
  In  In57  1  0.16840925  0.34949968  0.16681520  1
  In  In58  1  0.82980076  0.00328644  0.85369088  1
  In  In59  1  0.31630677  0.66906943  0.33293015  1
  In  In60  1  0.85130658  0.68384174  0.16902650  1
  In  In61  1  0.47771004  0.18214820  -0.00544538  1
  In  In62  1  0.00215730  0.32989182  0.32064715  1
  In  In63  1  0.00370801  0.52395139  0.51591913  1
  In  In64  1  0.65223341  0.51006565  0.48269902  1
  In  In65  1  0.65820498  0.48832704  0.15096216  1
  In  In66  1  0.32239674  0.00931980  0.33482757  1
  In  In67  1  0.83717662  0.16213960  0.32467611  1
  In  In68  1  0.64309578  0.18562985  0.50341430  1
  In  In69  1  0.67891431  0.15840645  0.16981018  1
  In  In70  1  0.86084072  0.78626872  0.30907688  1
  In  In71  1  -0.01892120  -0.00575241  0.34302327  1
  Te  Te72  1  0.08829774  0.07915321  0.07931080  1
  Te  Te73  1  0.09031647  0.07924606  0.41434569  1
  Te  Te74  1  0.10162938  0.10395416  0.75095840  1
  Te  Te75  1  0.08645102  0.41577325  0.05796886  1
  Te  Te76  1  0.06933344  0.42755027  0.41328718  1
  Te  Te77  1  0.07954400  0.42272501  0.78640806  1
  Te  Te78  1  0.06850616  0.77199852  0.09555270  1
  Te  Te79  1  0.09678132  0.69535313  0.39551781  1
  Te  Te80  1  0.08821138  0.71510711  0.74759397  1
  Te  Te81  1  0.39213439  0.08633506  0.06968929  1
  Te  Te82  1  0.40021570  0.10570654  0.42294845  1
  Te  Te83  1  0.41616136  0.09510902  0.78171260  1
  Te  Te84  1  0.40540325  0.41269174  0.10057768  1
  Te  Te85  1  0.40215970  0.42112503  0.40485058  1
  Te  Te86  1  0.39009695  0.42020201  0.77000220  1
  Te  Te87  1  0.43513332  0.74615111  0.02971646  1
  Te  Te88  1  0.40220683  0.74553825  0.42809709  1
  Te  Te89  1  0.40298787  0.76017640  0.75959362  1
  Te  Te90  1  0.76155601  0.09849373  0.05590853  1
  Te  Te91  1  0.74342871  0.08246082  0.43749244  1
  Te  Te92  1  0.75371233  0.07969337  0.74030962  1
  Te  Te93  1  0.75306752  0.39855605  0.07223465  1
  Te  Te94  1  0.73346360  0.40292976  0.40886314  1
  Te  Te95  1  0.76063007  0.42458306  0.73240269  1
  Te  Te96  1  0.74004060  0.76254313  0.08968810  1
  Te  Te97  1  0.74869331  0.74111581  0.40853349  1
  Te  Te98  1  0.75703167  0.74233684  0.74621269  1
  Te  Te99  1  0.06898253  0.23481906  0.22325510  1
  Te  Te100  1  0.09004497  0.26656398  0.60595857  1
  Te  Te101  1  0.08706171  0.26249780  0.92321282  1
  Te  Te102  1  0.07335069  0.61071569  0.26526217  1
  Te  Te103  1  0.08986656  0.60516576  0.60475588  1
  Te  Te104  1  0.07440794  0.56404939  0.89848501  1
  Te  Te105  1  0.09296155  0.93133701  0.25984545  1
  Te  Te106  1  0.07860127  0.89374875  0.57155710  1
  Te  Te107  1  0.11542464  0.89286257  0.93473493  1
  Te  Te108  1  0.37364186  0.29208917  0.21430021  1
  Te  Te109  1  0.40158792  0.27543916  0.60126468  1
  Te  Te110  1  0.38684484  0.26812914  0.91166724  1
  Te  Te111  1  0.40709604  0.60518414  0.22829269  1
  Te  Te112  1  0.43045816  0.58974735  0.58380236  1
  Te  Te113  1  0.34851803  0.59715662  0.91032394  1
  Te  Te114  1  0.41521237  0.92119572  0.24565800  1
  Te  Te115  1  0.40401226  0.91527983  0.58788168  1
  Te  Te116  1  0.41938738  0.91082574  0.94465690  1
  Te  Te117  1  0.75088674  0.25488832  0.25270332  1
  Te  Te118  1  0.75061074  0.26146830  0.58154373  1
  Te  Te119  1  0.75693577  0.24071015  0.90360627  1
  Te  Te120  1  0.75924065  0.57526766  0.24020333  1
  Te  Te121  1  0.76291276  0.56978310  0.57335738  1
  Te  Te122  1  0.75583902  0.59441418  0.89634432  1
  Te  Te123  1  0.77339346  0.90989485  0.25796696  1
  Te  Te124  1  0.76862678  0.89073373  0.59974765  1
  Te  Te125  1  0.72650707  0.91625596  0.92332115  1
  Te  Te126  1  0.26700091  0.25460132  0.10482234  1
  Te  Te127  1  0.25539330  0.25800020  0.42211822  1
  Te  Te128  1  0.21823366  0.20498799  0.72690673  1
  Te  Te129  1  0.22610580  0.60497582  0.07931012  1
  Te  Te130  1  0.22355367  0.59357285  0.42466616  1
  Te  Te131  1  0.25912235  0.57272317  0.77335432  1
  Te  Te132  1  0.28903010  0.92051718  0.05870242  1
  Te  Te133  1  0.25670328  0.91163120  0.42976868  1
  Te  Te134  1  0.24616595  0.92089654  0.75877441  1
  Te  Te135  1  0.57481118  0.24433684  0.09543553  1
  Te  Te136  1  0.56032651  0.25333552  0.39812687  1
  Te  Te137  1  0.59641251  0.26708801  0.73576056  1
  Te  Te138  1  0.55969799  0.57928732  0.08231516  1
  Te  Te139  1  0.55276249  0.59272071  0.40510778  1
  Te  Te140  1  0.56303349  0.58008610  0.75983357  1
  Te  Te141  1  0.53796827  0.86620352  0.03691402  1
  Te  Te142  1  0.58833460  0.92017403  0.39893832  1
  Te  Te143  1  0.56930828  0.92680079  0.76028011  1
  Te  Te144  1  0.93522789  0.27488583  0.13102541  1
  Te  Te145  1  0.92208262  0.24124113  0.42610148  1
  Te  Te146  1  0.93503623  0.23030475  0.75023436  1
  Te  Te147  1  0.91779536  0.58039526  0.07581872  1
  Te  Te148  1  0.90779649  0.60008412  0.42421099  1
  Te  Te149  1  0.97320599  0.60742562  0.75933369  1
  Te  Te150  1  0.93994299  0.90148999  0.09460266  1
  Te  Te151  1  0.93571613  0.86797020  0.41615398  1
  Te  Te152  1  0.93149600  0.91777710  0.77551591  1
  Te  Te153  1  0.25099192  0.09371870  0.23299135  1
  Te  Te154  1  0.25877005  0.10888263  0.58978343  1
  Te  Te155  1  0.27077602  0.09108041  0.92497968  1
  Te  Te156  1  0.21846398  0.44438266  0.26671174  1
  Te  Te157  1  0.25413801  0.42300230  0.59219404  1
  Te  Te158  1  0.27113080  0.38425048  0.92357514  1
  Te  Te159  1  0.24708893  0.77003096  0.23985956  1
  Te  Te160  1  0.24336289  0.73480075  0.57285220  1
  Te  Te161  1  0.24397600  0.70390720  0.95540981  1
  Te  Te162  1  0.55658933  0.09498220  0.25838706  1
  Te  Te163  1  0.56752778  0.07726557  0.58270226  1
  Te  Te164  1  0.57705012  0.08159498  0.93354503  1
  Te  Te165  1  0.59024339  0.40796333  0.25228366  1
  Te  Te166  1  0.59142437  0.41673057  0.58559921  1
  Te  Te167  1  0.56940123  0.42716324  0.93102979  1
  Te  Te168  1  0.58500526  0.75704908  0.22930419  1
  Te  Te169  1  0.59037018  0.73767343  0.58186084  1
  Te  Te170  1  0.57089585  0.71383161  0.90007319  1
  Te  Te171  1  0.92332459  0.08059462  0.23066882  1
  Te  Te172  1  0.92590124  0.04975039  0.57686462  1
  Te  Te173  1  0.93572781  0.09617608  0.90996156  1
  Te  Te174  1  0.92210786  0.42637562  0.23408523  1
  Te  Te175  1  0.94198118  0.41447923  0.60345022  1
  Te  Te176  1  0.92764185  0.41511834  0.90689409  1
  Te  Te177  1  0.98529674  0.74114291  0.22327248  1
  Te  Te178  1  0.96564831  0.78319764  0.58800592  1
  Te  Te179  1  0.91869354  0.74257434  0.92488859  1
