# generated using pymatgen
data_In2Te3
_symmetry_space_group_name_H-M   'P 1'
_cell_length_a   18.80197198
_cell_length_b   18.79962075
_cell_length_c   18.79867122
_cell_angle_alpha   90.02701890
_cell_angle_beta   89.98924159
_cell_angle_gamma   90.03438840
_symmetry_Int_Tables_number   1
_chemical_formula_structural   In2Te3
_chemical_formula_sum   'In72 Te108'
_cell_volume   6644.76318458
_cell_formula_units_Z   36
loop_
 _symmetry_equiv_pos_site_id
 _symmetry_equiv_pos_as_xyz
  1  'x, y, z'
loop_
 _atom_site_type_symbol
 _atom_site_label
 _atom_site_symmetry_multiplicity
 _atom_site_fract_x
 _atom_site_fract_y
 _atom_site_fract_z
 _atom_site_occupancy
  In  In0  1  0.15289391  0.00776936  0.83092759  1
  In  In1  1  0.47347364  0.68409008  0.51085075  1
  In  In2  1  0.84962848  0.29249934  0.81777645  1
  In  In3  1  0.13624403  0.85967623  0.66348687  1
  In  In4  1  0.68963160  0.16709421  0.49613782  1
  In  In5  1  0.16852197  0.48298735  0.32251838  1
  In  In6  1  0.53952926  0.87166787  0.68087432  1
  In  In7  1  0.50734728  0.32234038  0.13857691  1
  In  In8  1  0.51550979  0.34600678  0.83751570  1
  In  In9  1  0.50360297  -0.00750450  0.49272432  1
  In  In10  1  0.53336781  0.66900351  0.82617100  1
  In  In11  1  0.83250292  0.15714731  -0.02641699  1
  In  In12  1  -0.02412162  0.84141867  0.15660567  1
  In  In13  1  0.68786322  0.67004129  0.32208581  1
  In  In14  1  0.52893122  0.15842592  -0.00092832  1
  In  In15  1  0.82621050  0.67376357  0.16357471  1
  In  In16  1  0.01186219  0.50359462  0.83374666  1
  In  In17  1  0.66790276  0.33415264  0.32264172  1
  In  In18  1  0.67707333  0.32868778  0.67571309  1
  In  In19  1  0.50128245  0.15621020  0.65977305  1
  In  In20  1  0.32923110  0.48029671  0.85292788  1
  In  In21  1  0.84360890  0.68454938  0.84155437  1
  In  In22  1  0.50275408  0.83606552  -0.01881358  1
  In  In23  1  0.31873614  0.00608740  0.33666868  1
  In  In24  1  0.30099225  0.17376814  0.51412359  1
  In  In25  1  0.34489578  0.83628244  0.48208426  1
  In  In26  1  0.83734426  0.32750634  0.51125042  1
  In  In27  1  0.33142748  0.85779657  0.15279171  1
  In  In28  1  0.16488027  0.33586842  0.50173764  1
  In  In29  1  0.50924664  0.13157762  0.30371128  1
  In  In30  1  0.15610131  0.17066139  0.67424619  1
  In  In31  1  -0.01255369  0.48869627  0.50909226  1
  In  In32  1  0.31349864  0.32311152  -0.00445983  1
  In  In33  1  0.32050248  -0.01957753  0.00799387  1
  In  In34  1  0.68981442  0.66633534  0.68462432  1
  In  In35  1  0.67090599  0.68730698  0.00579089  1
  In  In36  1  0.33040813  0.83068377  0.83339578  1
  In  In37  1  0.83615341  0.00913981  0.82521731  1
  In  In38  1  0.83129485  0.34594088  0.16435965  1
  In  In39  1  0.17237914  0.67097355  0.48779851  1
  In  In40  1  0.68371526  -0.01047559  -0.00160135  1
  In  In41  1  0.51620337  0.00689264  0.15255787  1
  In  In42  1  0.16099430  0.68082484  0.14008056  1
  In  In43  1  0.31211870  0.32873845  0.33971330  1
  In  In44  1  0.33607110  0.66158553  0.66716735  1
  In  In45  1  0.16050966  0.84212921  0.32422880  1
  In  In46  1  0.66451861  0.50277470  0.49802161  1
  In  In47  1  0.15828869  0.46586484  0.67632425  1
  In  In48  1  0.83066537  0.50596566  0.01796137  1
  In  In49  1  0.49653621  0.50150330  0.32181172  1
  In  In50  1  0.49314352  0.52363467  0.68824423  1
  In  In51  1  0.14252200  0.16578743  0.00278627  1
  In  In52  1  0.00089335  0.15388556  0.17663566  1
  In  In53  1  0.31536281  0.15732703  0.19064830  1
  In  In54  1  -0.01551407  0.85746817  0.84656568  1
  In  In55  1  0.83730396  0.00723858  0.51458735  1
  In  In56  1  0.16870045  0.66448109  0.86904605  1
  In  In57  1  0.51230539  0.67475605  0.19050048  1
  In  In58  1  0.33546413  0.16994457  0.80597549  1
  In  In59  1  0.83483186  0.67331367  0.50336177  1
  In  In60  1  0.31411009  0.66208015  -0.00059340  1
  In  In61  1  0.51532415  0.49518679  -0.00900728  1
  In  In62  1  0.83438512  0.14702477  0.33467700  1
  In  In63  1  -0.01142964  0.86683653  0.51602416  1
  In  In64  1  0.01096317  0.33633695  -0.00367018  1
  In  In65  1  0.34341415  0.65879908  0.34577591  1
  In  In66  1  0.66801886  0.85623689  0.51079801  1
  In  In67  1  -0.00949151  0.48357551  0.16531682  1
  In  In68  1  0.48907017  0.31453599  0.50795012  1
  In  In69  1  -0.02060356  0.67867517  0.31822598  1
  In  In70  1  -0.00737061  0.67657525  0.67091561  1
  In  In71  1  0.00685483  0.14245941  0.48981225  1
  Te  Te72  1  0.05401212  0.06482678  0.06790327  1
  Te  Te73  1  0.09475685  0.10714791  0.37338502  1
  Te  Te74  1  0.05436474  0.10333564  0.76743208  1
  Te  Te75  1  0.09335063  0.39959679  0.10254564  1
  Te  Te76  1  0.06767479  0.40640008  0.40753316  1
  Te  Te77  1  0.06444102  0.38730675  0.75705289  1
  Te  Te78  1  0.06303507  0.76172658  0.06333115  1
  Te  Te79  1  0.06315874  0.75677459  0.42557460  1
  Te  Te80  1  0.09132815  0.75001760  0.76222258  1
  Te  Te81  1  0.40745618  0.09271586  0.08330129  1
  Te  Te82  1  0.41110636  0.10014039  0.42645955  1
  Te  Te83  1  0.41751793  0.06637152  0.74250915  1
  Te  Te84  1  0.41030601  0.41852766  0.07110461  1
  Te  Te85  1  0.41547031  0.41145301  0.41591994  1
  Te  Te86  1  0.41002279  0.40883408  0.74565241  1
  Te  Te87  1  0.42040081  0.74936810  0.07896157  1
  Te  Te88  1  0.44317931  0.76799205  0.38770359  1
  Te  Te89  1  0.43151793  0.75491788  0.74468475  1
  Te  Te90  1  0.76411494  0.08304036  0.08885394  1
  Te  Te91  1  0.73611649  0.05431513  0.40620571  1
  Te  Te92  1  0.72815550  0.05020999  0.72574316  1
  Te  Te93  1  0.73192991  0.41054975  0.07466995  1
  Te  Te94  1  0.75762635  0.41754041  0.41329184  1
  Te  Te95  1  0.77618400  0.40527516  0.75282606  1
  Te  Te96  1  0.77309273  0.77728667  0.06760634  1
  Te  Te97  1  0.75654460  0.77108110  0.41832648  1
  Te  Te98  1  0.75776060  0.77320043  0.75845898  1
  Te  Te99  1  0.08713391  0.22509738  0.27435570  1
  Te  Te100  1  0.06640102  0.25252169  0.58043024  1
  Te  Te101  1  0.07994046  0.24929188  0.89760305  1
  Te  Te102  1  0.09016592  0.59728673  0.25305445  1
  Te  Te103  1  0.08725637  0.58803568  0.58697867  1
  Te  Te104  1  0.08295254  0.57144893  0.94399619  1
  Te  Te105  1  0.05850028  0.92018548  0.25314024  1
  Te  Te106  1  0.07917388  0.96793015  0.57935606  1
  Te  Te107  1  0.07575324  0.93553680  0.93529685  1
  Te  Te108  1  0.42657368  0.25171510  0.25421842  1
  Te  Te109  1  0.39272853  0.25249928  0.60674892  1
  Te  Te110  1  0.42615000  0.24898205  0.91962598  1
  Te  Te111  1  0.40007717  0.57635439  0.23036122  1
  Te  Te112  1  0.40308153  0.56374681  0.57053813  1
  Te  Te113  1  0.42339112  0.59768892  0.90554153  1
  Te  Te114  1  0.42071609  0.93065584  0.25093048  1
  Te  Te115  1  0.41835476  0.91273407  0.59117714  1
  Te  Te116  1  0.42155175  0.93532789  0.90019444  1
  Te  Te117  1  0.75216441  0.23734156  0.24285104  1
  Te  Te118  1  0.77060931  0.22799024  0.60838441  1
  Te  Te119  1  0.73639069  0.23751622  0.89712558  1
  Te  Te120  1  0.76006281  0.56900303  0.24453004  1
  Te  Te121  1  0.76406215  0.56991445  0.59151791  1
  Te  Te122  1  0.74963518  0.58984673  0.91886461  1
  Te  Te123  1  0.79147578  0.97147083  0.19428803  1
  Te  Te124  1  0.74950826  0.93142288  0.61196310  1
  Te  Te125  1  0.77876328  0.90528217  0.92013648  1
  Te  Te126  1  0.23110887  0.24692296  0.10032440  1
  Te  Te127  1  0.21878841  0.22153037  0.39413649  1
  Te  Te128  1  0.23707607  0.26566154  0.75500063  1
  Te  Te129  1  0.23480851  0.56767533  0.07880469  1
  Te  Te130  1  0.25511665  0.56185802  0.42356629  1
  Te  Te131  1  0.24427842  0.58066957  0.75760882  1
  Te  Te132  1  0.21518457  0.93460571  0.10409080  1
  Te  Te133  1  0.23074454  0.92419235  0.43314990  1
  Te  Te134  1  0.24891356  0.92490144  0.74485526  1
  Te  Te135  1  0.61432219  0.23251619  0.09231840  1
  Te  Te136  1  0.58198151  0.24025184  0.41165408  1
  Te  Te137  1  0.58780654  0.23625180  0.75799297  1
  Te  Te138  1  0.58824174  0.58921560  0.08835375  1
  Te  Te139  1  0.57548144  0.59555937  0.41585507  1
  Te  Te140  1  0.61732747  0.55611474  0.76755908  1
  Te  Te141  1  0.59576561  0.89543469  0.08612123  1
  Te  Te142  1  0.58846126  0.91530113  0.40075792  1
  Te  Te143  1  0.61584760  0.95901966  0.77411325  1
  Te  Te144  1  0.91597743  0.24721925  0.08037482  1
  Te  Te145  1  0.92001319  0.24500697  0.41314004  1
  Te  Te146  1  0.92047014  0.18482943  0.74187779  1
  Te  Te147  1  0.93326125  0.59745141  0.08321550  1
  Te  Te148  1  0.90982261  0.57838792  0.41053232  1
  Te  Te149  1  0.90854731  0.57878276  0.74926048  1
  Te  Te150  1  0.86919451  0.91794895  0.07602549  1
  Te  Te151  1  0.91881529  0.94052914  0.40857056  1
  Te  Te152  1  0.92561578  0.92982456  0.73395161  1
  Te  Te153  1  0.21886349  0.05265342  0.23516116  1
  Te  Te154  1  0.22839484  0.06988913  0.58940473  1
  Te  Te155  1  0.25777891  0.09087787  0.92055473  1
  Te  Te156  1  0.25589675  0.40870027  0.23016079  1
  Te  Te157  1  0.25878024  0.41678674  0.58139942  1
  Te  Te158  1  0.22050696  0.41066024  0.92098218  1
  Te  Te159  1  0.25876125  0.74875845  0.25198878  1
  Te  Te160  1  0.24764243  0.75912557  0.58828651  1
  Te  Te161  1  0.23668856  0.78100247  0.94204141  1
  Te  Te162  1  0.62244275  0.06315431  0.24108705  1
  Te  Te163  1  0.59999784  0.07333948  0.57935264  1
  Te  Te164  1  0.59305030  0.06419997  0.90329308  1
  Te  Te165  1  0.58697268  0.42237422  0.22886670  1
  Te  Te166  1  0.57541410  0.41464376  0.58772879  1
  Te  Te167  1  0.61465012  0.40264488  0.93264215  1
  Te  Te168  1  0.61393915  0.76891776  0.23939773  1
  Te  Te169  1  0.58797705  0.74210166  0.59204013  1
  Te  Te170  1  0.61314763  0.77798607  0.89309497  1
  Te  Te171  1  0.92098201  0.05028134  0.25634010  1
  Te  Te172  1  0.91598804  0.10026477  0.60477980  1
  Te  Te173  1  0.93907874  0.07100195  0.91882999  1
  Te  Te174  1  0.91977001  0.40507640  0.26689857  1
  Te  Te175  1  0.91243411  0.41073298  0.60877726  1
  Te  Te176  1  0.90435265  0.41529226  0.91870662  1
  Te  Te177  1  0.88239296  0.77870390  0.26323995  1
  Te  Te178  1  0.90002300  0.77330353  0.59900182  1
  Te  Te179  1  0.94180949  0.74564516  0.93563680  1
