# generated using pymatgen
data_In2Te3
_symmetry_space_group_name_H-M   'P 1'
_cell_length_a   18.77286481
_cell_length_b   18.77165185
_cell_length_c   18.76779042
_cell_angle_alpha   89.93851796
_cell_angle_beta   89.92451513
_cell_angle_gamma   89.85846947
_symmetry_Int_Tables_number   1
_chemical_formula_structural   In2Te3
_chemical_formula_sum   'In72 Te108'
_cell_volume   6613.69614579
_cell_formula_units_Z   36
loop_
 _symmetry_equiv_pos_site_id
 _symmetry_equiv_pos_as_xyz
  1  'x, y, z'
loop_
 _atom_site_type_symbol
 _atom_site_label
 _atom_site_symmetry_multiplicity
 _atom_site_fract_x
 _atom_site_fract_y
 _atom_site_fract_z
 _atom_site_occupancy
  In  In0  1  0.17688787  0.49982677  0.00034364  1
  In  In1  1  -0.01118457  0.50306662  0.49631121  1
  In  In2  1  0.17026318  0.00264367  0.16217386  1
  In  In3  1  0.33351913  0.48512092  0.84950439  1
  In  In4  1  0.49283667  0.83721372  0.65718623  1
  In  In5  1  0.83408286  0.83641478  0.00410957  1
  In  In6  1  0.82381799  0.50325594  0.67013097  1
  In  In7  1  0.15059962  0.83056017  0.66000984  1
  In  In8  1  0.30723188  0.47520352  0.52485752  1
  In  In9  1  0.33240560  0.66066291  0.68856585  1
  In  In10  1  -0.02926769  0.66501608  0.65786283  1
  In  In11  1  0.36353168  0.16154902  0.47903052  1
  In  In12  1  0.16562193  0.65445102  0.84036378  1
  In  In13  1  0.34105558  0.84739683  0.86306406  1
  In  In14  1  0.52139024  0.65433529  0.48901494  1
  In  In15  1  0.68322083  0.15385182  0.17874100  1
  In  In16  1  0.84072724  -0.01042892  0.83446566  1
  In  In17  1  0.16074470  0.19527806  0.68816744  1
  In  In18  1  0.69684912  0.67422142  0.68184526  1
  In  In19  1  0.34486104  -0.00574705  0.65709096  1
  In  In20  1  -0.00030710  0.33799692  0.35629690  1
  In  In21  1  0.16200120  0.49359972  0.32540106  1
  In  In22  1  0.48672233  0.15255208  0.67226615  1
  In  In23  1  0.18507044  -0.00587856  0.49388231  1
  In  In24  1  0.69861009  0.33614090  -0.00026299  1
  In  In25  1  0.67046682  -0.00236083  0.00938575  1
  In  In26  1  0.33619590  0.33080999  -0.00735297  1
  In  In27  1  0.52754527  0.00932431  0.15174538  1
  In  In28  1  0.86311619  0.67440434  0.17399395  1
  In  In29  1  0.52117548  0.35446039  0.19482761  1
  In  In30  1  0.34104928  0.66190831  0.30434077  1
  In  In31  1  0.66834291  0.84718014  0.16779990  1
  In  In32  1  0.32320787  0.84843434  0.50372080  1
  In  In33  1  0.18754353  0.17234577  0.33446787  1
  In  In34  1  0.67206499  0.34960038  0.66183292  1
  In  In35  1  0.50837062  0.85382968  0.34615122  1
  In  In36  1  0.64410094  0.67590434  -0.02660267  1
  In  In37  1  0.82289976  -0.00726955  0.50678372  1
  In  In38  1  0.67364963  -0.01309980  0.32545001  1
  In  In39  1  0.68219940  0.51243653  0.82529448  1
  In  In40  1  0.50112043  0.65637822  0.15901996  1
  In  In41  1  -0.01468444  -0.00780770  -0.00535822  1
  In  In42  1  0.82238578  0.50047437  0.34042971  1
  In  In43  1  -0.00173986  0.17671418  0.51235973  1
  In  In44  1  0.18042521  0.33416741  0.15701723  1
  In  In45  1  0.47917224  0.33371700  0.83934973  1
  In  In46  1  0.34108967  0.82688583  0.15094603  1
  In  In47  1  0.50329307  0.32807320  0.50916627  1
  In  In48  1  -0.00355228  0.50724582  0.14527505  1
  In  In49  1  0.65876187  -0.00691332  0.66577511  1
  In  In50  1  0.18866113  0.03452545  0.84049441  1
  In  In51  1  -0.00623738  0.15455880  0.15553773  1
  In  In52  1  -0.01150665  -0.00835362  0.71556412  1
  In  In53  1  0.49697152  0.50475639  -0.00185343  1
  In  In54  1  0.66505427  0.18201288  0.48708393  1
  In  In55  1  0.15745746  0.85536415  0.35595834  1
  In  In56  1  0.50639900  0.16598893  0.00197460  1
  In  In57  1  0.67140992  0.17413498  0.85192008  1
  In  In58  1  0.15385195  0.82510600  0.01104496  1
  In  In59  1  0.15394654  0.65880630  0.14760830  1
  In  In60  1  0.51522397  0.49885379  0.67861284  1
  In  In61  1  -0.00860487  -0.00284994  0.31589690  1
  In  In62  1  0.69297544  0.67455983  0.35136507  1
  In  In63  1  0.83436979  0.34210430  0.48850621  1
  In  In64  1  0.13349635  0.66266784  0.48599949  1
  In  In65  1  0.87115065  0.19183153  0.70482905  1
  In  In66  1  0.34284490  0.19619904  0.14341609  1
  In  In67  1  0.32631551  0.33383523  0.34226190  1
  In  In68  1  0.01909586  0.47244453  0.82103620  1
  In  In69  1  0.82681592  0.32019234  0.15408433  1
  In  In70  1  -0.02437096  0.82312164  0.51102730  1
  In  In71  1  -0.03043729  0.84717684  0.84289288  1
  Te  Te72  1  0.09015375  0.08347024  0.06027964  1
  Te  Te73  1  0.08266746  0.08370250  0.40984533  1
  Te  Te74  1  0.07082710  0.10532361  0.77732561  1
  Te  Te75  1  0.07751640  0.40326532  0.06865331  1
  Te  Te76  1  0.10181458  0.41282803  0.43919900  1
  Te  Te77  1  0.11324167  0.39869761  0.72881973  1
  Te  Te78  1  0.05320700  0.74262679  0.07967061  1
  Te  Te79  1  0.04815486  0.74716847  0.38880902  1
  Te  Te80  1  0.07048839  0.74533226  0.75616936  1
  Te  Te81  1  0.41039532  0.07409337  0.07661751  1
  Te  Te82  1  0.40600612  0.04862631  0.39965434  1
  Te  Te83  1  0.40987539  0.06913850  0.76648770  1
  Te  Te84  1  0.41914665  0.41149815  0.09029687  1
  Te  Te85  1  0.41305504  0.42576909  0.42873965  1
  Te  Te86  1  0.40434928  0.41010885  0.73164005  1
  Te  Te87  1  0.40554041  0.72381736  0.06711592  1
  Te  Te88  1  0.41356539  0.74676538  0.41697121  1
  Te  Te89  1  0.41985673  0.75444679  0.76553283  1
  Te  Te90  1  0.76434592  0.09124177  0.07268880  1
  Te  Te91  1  0.75628151  0.08830626  0.40799648  1
  Te  Te92  1  0.75293311  0.08775729  0.74376969  1
  Te  Te93  1  0.76102034  0.43620263  0.08745934  1
  Te  Te94  1  0.72904661  0.40017516  0.40085813  1
  Te  Te95  1  0.76680454  0.39819492  0.76943291  1
  Te  Te96  1  0.73994267  0.74200016  0.08436661  1
  Te  Te97  1  0.77649537  0.76080641  0.43562704  1
  Te  Te98  1  0.78107311  0.76275686  0.76123708  1
  Te  Te99  1  0.08618515  0.25592522  0.25242422  1
  Te  Te100  1  0.07581760  0.27282853  0.59167098  1
  Te  Te101  1  0.02393050  0.28127202  0.91111396  1
  Te  Te102  1  0.06754264  0.58790249  0.25497681  1
  Te  Te103  1  0.08119107  0.57661962  0.59919519  1
  Te  Te104  1  0.06927180  0.57991845  0.92870546  1
  Te  Te105  1  0.07778278  0.90378767  0.23101514  1
  Te  Te106  1  0.06912618  0.93061259  0.57747348  1
  Te  Te107  1  0.09511556  0.91733907  0.90074724  1
  Te  Te108  1  0.42515440  0.25143052  0.25950364  1
  Te  Te109  1  0.40077830  0.25292710  0.59509234  1
  Te  Te110  1  0.40034333  0.21950087  0.90036924  1
  Te  Te111  1  0.43206241  0.55903174  0.25067598  1
  Te  Te112  1  0.41530291  0.58463615  0.58322727  1
  Te  Te113  1  0.41954305  0.59036040  0.90631506  1
  Te  Te114  1  0.42844955  0.92002950  0.23402861  1
  Te  Te115  1  0.43946565  0.93671187  0.55248681  1
  Te  Te116  1  0.45833064  0.90141835  0.93617315  1
  Te  Te117  1  0.74010810  0.26337872  0.25938288  1
  Te  Te118  1  0.76076183  0.24394062  0.59295414  1
  Te  Te119  1  0.78211871  0.24260773  0.91941140  1
  Te  Te120  1  0.75130239  0.58940212  0.23868847  1
  Te  Te121  1  0.72840418  0.57033341  0.57884518  1
  Te  Te122  1  0.75782679  0.59578198  0.91964271  1
  Te  Te123  1  0.77472587  0.92000527  0.23819305  1
  Te  Te124  1  0.73067912  0.89751623  0.57461565  1
  Te  Te125  1  0.73662323  0.90514188  0.90649798  1
  Te  Te126  1  0.22523685  0.23374661  0.05034189  1
  Te  Te127  1  0.24474377  0.25628271  0.44582261  1
  Te  Te128  1  0.23660901  0.28042367  0.78176158  1
  Te  Te129  1  0.26374713  0.57998519  0.08856844  1
  Te  Te130  1  0.24942860  0.58742780  0.41697437  1
  Te  Te131  1  0.23875062  0.55849367  0.74839794  1
  Te  Te132  1  0.25796362  0.92337947  0.06450515  1
  Te  Te133  1  0.28365983  0.94632051  0.38460603  1
  Te  Te134  1  0.25001771  0.90676013  0.74638552  1
  Te  Te135  1  0.58951037  0.25929868  0.08685923  1
  Te  Te136  1  0.57217534  0.25652466  0.39937978  1
  Te  Te137  1  0.58319123  0.25498100  0.74582653  1
  Te  Te138  1  0.60304610  0.57151086  0.08234501  1
  Te  Te139  1  0.58605160  0.56859099  0.38272541  1
  Te  Te140  1  0.57762624  0.60520954  0.76444678  1
  Te  Te141  1  0.55981116  0.88363426  0.06641438  1
  Te  Te142  1  0.61550390  0.90426064  0.43532405  1
  Te  Te143  1  0.57517710  0.91063206  0.75648292  1
  Te  Te144  1  0.93259078  0.25787334  0.06671702  1
  Te  Te145  1  0.90375919  0.23131494  0.40543105  1
  Te  Te146  1  0.95939088  0.29275538  0.77449433  1
  Te  Te147  1  0.89575236  0.57889885  0.06456159  1
  Te  Te148  1  0.90160523  0.59710362  0.42253429  1
  Te  Te149  1  0.91232248  0.57898452  0.76728737  1
  Te  Te150  1  0.90474939  0.92554646  0.09968377  1
  Te  Te151  1  0.90283456  0.90881063  0.40568857  1
  Te  Te152  1  0.88160142  0.87540509  0.71735198  1
  Te  Te153  1  0.26893074  0.09314302  0.23510366  1
  Te  Te154  1  0.24100799  0.09091005  0.59652748  1
  Te  Te155  1  0.27467219  0.10737379  0.93067766  1
  Te  Te156  1  0.26776025  0.42986248  0.23643789  1
  Te  Te157  1  0.22729536  0.39820772  0.62162059  1
  Te  Te158  1  0.22210412  0.38522523  0.89933523  1
  Te  Te159  1  0.23623178  0.76203276  0.25416262  1
  Te  Te160  1  0.24410318  0.73835778  0.57998621  1
  Te  Te161  1  0.25366181  0.73964004  0.93024472  1
  Te  Te162  1  0.57557206  0.09197541  0.26858880  1
  Te  Te163  1  0.57873744  0.08635361  0.57018370  1
  Te  Te164  1  0.57763337  0.06901761  0.90723163  1
  Te  Te165  1  0.59497464  0.44854707  0.27987095  1
  Te  Te166  1  0.59757277  0.43897166  0.56352022  1
  Te  Te167  1  0.58817393  0.41147101  0.91032504  1
  Te  Te168  1  0.58222838  0.75111780  0.25701009  1
  Te  Te169  1  0.59223551  0.74517599  0.58498919  1
  Te  Te170  1  0.56767174  0.78921767  0.91498109  1
  Te  Te171  1  0.89827289  0.08791973  0.24534323  1
  Te  Te172  1  0.91793455  0.07792777  0.59712498  1
  Te  Te173  1  0.90934317  0.09219079  0.91474960  1
  Te  Te174  1  0.92317440  0.41705094  0.25176871  1
  Te  Te175  1  0.91921926  0.40947982  0.59464116  1
  Te  Te176  1  0.92779699  0.39813569  0.91327924  1
  Te  Te177  1  0.94177523  0.74840845  0.27128502  1
  Te  Te178  1  0.87225448  0.71964140  0.55294742  1
  Te  Te179  1  0.91268169  0.73849159  0.92361959  1
