# generated using pymatgen
data_In2Te3
_symmetry_space_group_name_H-M   'P 1'
_cell_length_a   18.99093933
_cell_length_b   18.97649785
_cell_length_c   18.97428877
_cell_angle_alpha   89.92879074
_cell_angle_beta   89.58310263
_cell_angle_gamma   90.10040103
_symmetry_Int_Tables_number   1
_chemical_formula_structural   In2Te3
_chemical_formula_sum   'In72 Te108'
_cell_volume   6837.78611417
_cell_formula_units_Z   36
loop_
 _symmetry_equiv_pos_site_id
 _symmetry_equiv_pos_as_xyz
  1  'x, y, z'
loop_
 _atom_site_type_symbol
 _atom_site_label
 _atom_site_symmetry_multiplicity
 _atom_site_fract_x
 _atom_site_fract_y
 _atom_site_fract_z
 _atom_site_occupancy
  In  In0  1  0.18875624  0.16343934  0.00938403  1
  In  In1  1  0.65209589  0.12679518  0.88711532  1
  In  In2  1  0.66371188  0.65139953  0.65962976  1
  In  In3  1  0.35094396  0.83114882  0.15329508  1
  In  In4  1  0.85312463  0.00233363  0.18483887  1
  In  In5  1  0.49186941  0.51077598  0.31698120  1
  In  In6  1  0.85901993  0.17591837  0.01379936  1
  In  In7  1  0.02683697  -0.00015513  -0.01132417  1
  In  In8  1  0.34694395  0.83774629  0.47494875  1
  In  In9  1  -0.01746940  0.01390908  0.67885395  1
  In  In10  1  0.84641068  0.50291733  0.01312984  1
  In  In11  1  0.03266987  0.33469267  -0.00360616  1
  In  In12  1  0.50326804  0.84964036  0.68850158  1
  In  In13  1  0.02558043  0.35098310  0.64258923  1
  In  In14  1  0.30845032  0.66168480  0.67796439  1
  In  In15  1  -0.00811243  0.17217937  0.86383448  1
  In  In16  1  0.49558806  0.66913220  0.50888435  1
  In  In17  1  0.67109114  0.15413111  0.15275663  1
  In  In18  1  0.82815173  0.16154287  0.65247707  1
  In  In19  1  0.32213036  0.01597424  0.68660684  1
  In  In20  1  -0.00693019  0.83487145  0.84736511  1
  In  In21  1  0.49433973  0.52230257  0.67340369  1
  In  In22  1  0.82864194  0.65363096  0.82959093  1
  In  In23  1  0.82672055  0.33942041  0.80780915  1
  In  In24  1  0.00961793  0.50114908  0.81825569  1
  In  In25  1  -0.01035606  0.65925113  0.64380301  1
  In  In26  1  0.17712061  0.67363022  0.16376268  1
  In  In27  1  0.51025958  0.15849808  0.66324534  1
  In  In28  1  0.13049761  -0.00137875  0.19242164  1
  In  In29  1  0.19187505  0.67205409  0.85333302  1
  In  In30  1  -0.01476990  0.32682005  0.31748407  1
  In  In31  1  0.33064911  0.16817690  0.83673042  1
  In  In32  1  0.31028120  0.37069352  0.63996970  1
  In  In33  1  0.01249181  0.65849530  0.03325608  1
  In  In34  1  0.66078550  0.67420631  0.02430505  1
  In  In35  1  -0.00787821  0.48809147  0.16359865  1
  In  In36  1  0.69090485  -0.00967699  0.34224544  1
  In  In37  1  0.67309242  0.34841166  0.00085322  1
  In  In38  1  0.49978100  0.31752650  0.16880278  1
  In  In39  1  0.14309802  0.02171239  0.45647391  1
  In  In40  1  0.69082007  0.50060567  0.19831714  1
  In  In41  1  0.33855821  0.51210510  0.15659159  1
  In  In42  1  -0.01013594  0.83789949  0.48615956  1
  In  In43  1  0.13795436  0.18625007  0.32924887  1
  In  In44  1  0.33328579  0.16645688  0.48433105  1
  In  In45  1  0.61706067  0.68433124  0.30960721  1
  In  In46  1  -0.00690812  0.68409574  0.33627367  1
  In  In47  1  0.13478918  0.81853255  0.65092893  1
  In  In48  1  0.34162612  -0.01009918  0.01937365  1
  In  In49  1  0.49625510  0.33953336  0.47900327  1
  In  In50  1  0.63918330  0.81112434  0.84769288  1
  In  In51  1  0.15391485  0.63628139  0.48622246  1
  In  In52  1  0.34049067  0.82792601  0.86011992  1
  In  In53  1  0.17375615  0.49976960  0.33853234  1
  In  In54  1  0.68819916  0.48184095  0.50138819  1
  In  In55  1  0.69033820  0.31503379  0.35356475  1
  In  In56  1  0.53436163  -0.01004505  0.51614284  1
  In  In57  1  0.69895947  0.83122513  0.48893844  1
  In  In58  1  0.31664503  0.46078079  0.87176859  1
  In  In59  1  0.32632772  0.34744402  0.32306894  1
  In  In60  1  0.67130580  0.31769108  0.66991218  1
  In  In61  1  -0.01191832  0.49896900  0.49424739  1
  In  In62  1  0.82937026  0.82467287  0.03219970  1
  In  In63  1  0.51328915  -0.02343870  0.12986665  1
  In  In64  1  0.48673260  0.32565124  0.85327440  1
  In  In65  1  0.80543671  -0.02680482  0.80839777  1
  In  In66  1  0.84596138  -0.00442777  0.47936154  1
  In  In67  1  0.14377426  -0.03046333  0.82935504  1
  In  In68  1  0.52510063  0.17596107  0.33904113  1
  In  In69  1  0.15763663  0.19150684  0.64803428  1
  In  In70  1  0.50398465  0.51549875  -0.01895030  1
  In  In71  1  0.33372106  0.01190353  0.30980524  1
  Te  Te72  1  0.07507433  0.10033399  0.08867734  1
  Te  Te73  1  0.03528498  0.08654438  0.37884728  1
  Te  Te74  1  0.09425164  0.08889617  0.74984080  1
  Te  Te75  1  0.09755173  0.45136310  0.06406969  1
  Te  Te76  1  0.07656766  0.41021871  0.41186600  1
  Te  Te77  1  0.09109550  0.39210823  0.76615935  1
  Te  Te78  1  0.06772886  0.76218639  0.11865161  1
  Te  Te79  1  0.09975276  0.75893705  0.41746650  1
  Te  Te80  1  0.07366862  0.73197405  0.76047055  1
  Te  Te81  1  0.41730966  0.08361172  0.10122561  1
  Te  Te82  1  0.43552914  0.07355775  0.42216612  1
  Te  Te83  1  0.43244796  0.07757156  0.76711666  1
  Te  Te84  1  0.43502153  0.41987283  0.08031646  1
  Te  Te85  1  0.39936649  0.43680213  0.42007164  1
  Te  Te86  1  0.41554630  0.41014443  0.74866478  1
  Te  Te87  1  0.46419625  0.77308477  0.07345147  1
  Te  Te88  1  0.43205391  0.74576948  0.40065761  1
  Te  Te89  1  0.41110001  0.74726081  0.75236906  1
  Te  Te90  1  0.76858687  0.07149723  0.07217048  1
  Te  Te91  1  0.75889843  0.09653655  0.41526805  1
  Te  Te92  1  0.74268773  0.10051694  0.76204829  1
  Te  Te93  1  0.76672322  0.40766575  0.10238465  1
  Te  Te94  1  0.77792683  0.42660162  0.39645426  1
  Te  Te95  1  0.73348304  0.42887669  0.74215793  1
  Te  Te96  1  0.73345986  0.75746133  0.12474321  1
  Te  Te97  1  0.73845591  0.74967307  0.37249845  1
  Te  Te98  1  0.74194484  0.74742197  0.75187488  1
  Te  Te99  1  0.08859278  0.27549191  0.22483443  1
  Te  Te100  1  0.06322331  0.24190562  0.55110479  1
  Te  Te101  1  0.11488813  0.24737002  0.90326700  1
  Te  Te102  1  0.07534520  0.58235918  0.25582870  1
  Te  Te103  1  0.10180724  0.55950398  0.60558245  1
  Te  Te104  1  0.08426686  0.58593853  0.92064631  1
  Te  Te105  1  0.03463690  0.91377276  0.27019265  1
  Te  Te106  1  0.07992585  0.93823643  0.57612483  1
  Te  Te107  1  0.10381213  0.87492473  0.94066897  1
  Te  Te108  1  0.40950596  0.23692266  0.26058836  1
  Te  Te109  1  0.41514788  0.24709434  0.58307316  1
  Te  Te110  1  0.40240220  0.24203645  0.94322888  1
  Te  Te111  1  0.41085867  0.60605968  0.24355093  1
  Te  Te112  1  0.39254793  0.58130267  0.57948437  1
  Te  Te113  1  0.39980152  0.57787063  0.90116010  1
  Te  Te114  1  0.43240848  0.91736528  0.25061196  1
  Te  Te115  1  0.40659401  0.92868391  0.58973401  1
  Te  Te116  1  0.42632323  0.93567939  0.90919054  1
  Te  Te117  1  0.75540242  0.23847372  0.24226767  1
  Te  Te118  1  0.77870295  0.27734158  0.57591645  1
  Te  Te119  1  0.76134247  0.24955590  0.92202922  1
  Te  Te120  1  0.74598558  0.61270639  0.27697527  1
  Te  Te121  1  0.75885804  0.59158560  0.56650026  1
  Te  Te122  1  0.74516230  0.57990587  0.93182998  1
  Te  Te123  1  0.73865607  0.91653794  0.22448803  1
  Te  Te124  1  0.76022178  0.92781365  0.57891276  1
  Te  Te125  1  0.74669851  0.89596809  0.92635448  1
  Te  Te126  1  0.27560349  0.27348976  0.05258409  1
  Te  Te127  1  0.24120128  0.26295725  0.41807600  1
  Te  Te128  1  0.26341445  0.25771725  0.73202155  1
  Te  Te129  1  0.26448238  0.60400852  0.06581819  1
  Te  Te130  1  0.26515929  0.59428593  0.40176240  1
  Te  Te131  1  0.24727423  0.55819848  0.77097882  1
  Te  Te132  1  0.23589209  0.92536173  0.10687879  1
  Te  Te133  1  0.24464336  0.92547796  0.39835760  1
  Te  Te134  1  0.24169771  0.89252114  0.74278115  1
  Te  Te135  1  0.58384971  0.24369274  0.06616112  1
  Te  Te136  1  0.60168372  0.23531893  0.45329508  1
  Te  Te137  1  0.58167685  0.23714171  0.77456420  1
  Te  Te138  1  0.59477883  0.55827717  0.09885912  1
  Te  Te139  1  0.58279437  0.57151188  0.42452819  1
  Te  Te140  1  0.57197413  0.60464622  0.76401786  1
  Te  Te141  1  0.61318896  0.91706730  0.03876787  1
  Te  Te142  1  0.58649377  0.90027752  0.40890909  1
  Te  Te143  1  0.59334330  0.92813916  0.77086655  1
  Te  Te144  1  0.94138905  0.26723334  0.09139757  1
  Te  Te145  1  0.88031981  0.22415998  0.35296495  1
  Te  Te146  1  0.92533080  0.23924695  0.74743387  1
  Te  Te147  1  0.89803626  0.60192340  0.11450162  1
  Te  Te148  1  0.91531583  0.61679589  0.44396752  1
  Te  Te149  1  0.90488383  0.56677852  0.73170900  1
  Te  Te150  1  0.93445883  0.92024234  0.08175195  1
  Te  Te151  1  0.90716924  0.89994832  0.37568113  1
  Te  Te152  1  0.91136962  0.89144783  0.73389391  1
  Te  Te153  1  0.23338341  0.10024165  0.24255842  1
  Te  Te154  1  0.24156293  0.07673511  0.57047838  1
  Te  Te155  1  0.24521583  0.05956437  0.90577866  1
  Te  Te156  1  0.23857415  0.41932651  0.22618280  1
  Te  Te157  1  0.20546264  0.44429573  0.57548537  1
  Te  Te158  1  0.23857056  0.40801009  0.98521109  1
  Te  Te159  1  0.26055079  0.76122981  0.24523205  1
  Te  Te160  1  0.25078057  0.75803982  0.57429789  1
  Te  Te161  1  0.27318364  0.73833902  0.95740599  1
  Te  Te162  1  0.58457770  0.07264854  0.24780115  1
  Te  Te163  1  0.61463327  0.07654956  0.60015462  1
  Te  Te164  1  0.56076221  0.03821388  0.97061989  1
  Te  Te165  1  0.58733629  0.39503581  0.26590286  1
  Te  Te166  1  0.56952372  0.41465923  0.58910960  1
  Te  Te167  1  0.59332953  0.42380657  0.89739458  1
  Te  Te168  1  0.57034132  0.74702912  0.18359254  1
  Te  Te169  1  0.58215262  0.76872565  0.58405861  1
  Te  Te170  1  0.54961562  0.73835664  0.94433818  1
  Te  Te171  1  0.92478028  0.10382672  0.26639678  1
  Te  Te172  1  0.93174703  0.09463556  0.56407906  1
  Te  Te173  1  0.91236232  0.04870893  0.89721365  1
  Te  Te174  1  0.90163857  0.44090902  0.27119014  1
  Te  Te175  1  0.90708849  0.41048431  0.58138587  1
  Te  Te176  1  0.91753299  0.41123429  0.91386105  1
  Te  Te177  1  0.93560457  0.79469964  0.25378691  1
  Te  Te178  1  0.90415592  0.75420792  0.57292731  1
  Te  Te179  1  0.91144807  0.73516983  0.92933607  1
