# generated using pymatgen
data_In2Te3
_symmetry_space_group_name_H-M   'P 1'
_cell_length_a   18.78322238
_cell_length_b   18.78079923
_cell_length_c   18.78752883
_cell_angle_alpha   90.02984902
_cell_angle_beta   90.03898337
_cell_angle_gamma   90.01193343
_symmetry_Int_Tables_number   1
_chemical_formula_structural   In2Te3
_chemical_formula_sum   'In72 Te108'
_cell_volume   6627.55989543
_cell_formula_units_Z   36
loop_
 _symmetry_equiv_pos_site_id
 _symmetry_equiv_pos_as_xyz
  1  'x, y, z'
loop_
 _atom_site_type_symbol
 _atom_site_label
 _atom_site_symmetry_multiplicity
 _atom_site_fract_x
 _atom_site_fract_y
 _atom_site_fract_z
 _atom_site_occupancy
  In  In0  1  0.18617569  0.48683397  0.01837036  1
  In  In1  1  0.49713751  0.83021091  0.31256979  1
  In  In2  1  0.82681592  0.32493199  0.17257371  1
  In  In3  1  0.32406593  0.83320480  0.18688296  1
  In  In4  1  0.66125532  0.49333250  0.84678717  1
  In  In5  1  0.47096169  0.17992965  0.33500852  1
  In  In6  1  0.48853082  0.46328262  0.33414927  1
  In  In7  1  -0.01532489  0.67034688  0.65626316  1
  In  In8  1  0.31896309  0.02193508  0.64965224  1
  In  In9  1  0.16279978  0.02826195  0.18024220  1
  In  In10  1  0.00264904  0.00611889  0.00837272  1
  In  In11  1  0.36008426  0.49710437  0.48918645  1
  In  In12  1  0.28866188  0.87524393  0.48233998  1
  In  In13  1  0.49465919  0.66553735  0.51200846  1
  In  In14  1  0.03149957  0.47295109  0.80434870  1
  In  In15  1  0.32170905  0.16686005  0.82731735  1
  In  In16  1  0.49229427  0.02717737  0.50466020  1
  In  In17  1  0.82476240  0.16011828  0.67265136  1
  In  In18  1  0.17540158  0.85724238  0.66034792  1
  In  In19  1  0.01439359  0.00754643  0.64960015  1
  In  In20  1  0.00553373  0.50616797  0.17328771  1
  In  In21  1  0.65507751  0.17309250  0.49096177  1
  In  In22  1  0.85763200  0.69374564  0.83875003  1
  In  In23  1  -0.00594543  0.31592324  -0.01361055  1
  In  In24  1  0.82716542  0.47793017  0.01912436  1
  In  In25  1  0.66485946  0.48494801  0.50850130  1
  In  In26  1  0.48664223  0.66697338  0.81222325  1
  In  In27  1  0.02784719  0.04493036  0.34051569  1
  In  In28  1  0.49442010  0.14700001  -0.00755819  1
  In  In29  1  0.16313757  0.48554564  0.68131152  1
  In  In30  1  0.14948986  0.70475912  0.47698433  1
  In  In31  1  0.49701825  0.33330876  0.16977579  1
  In  In32  1  -0.00063457  0.84528183  0.82702448  1
  In  In33  1  0.32084311  0.30983967  0.01643845  1
  In  In34  1  0.00569828  0.84576938  0.14803865  1
  In  In35  1  0.66803486  0.66564925  0.32181411  1
  In  In36  1  0.32661961  0.48931137  0.83743793  1
  In  In37  1  0.49098820  -0.00627035  0.15447834  1
  In  In38  1  0.01588603  0.15287676  0.82835905  1
  In  In39  1  0.83380398  0.01007448  0.50464446  1
  In  In40  1  0.65493894  0.16133700  0.83582467  1
  In  In41  1  0.49588471  0.85560876  -0.00925545  1
  In  In42  1  0.81691795  0.31657815  0.82551845  1
  In  In43  1  0.00042245  0.69132714  -0.01529418  1
  In  In44  1  0.67845149  0.83404349  0.50071526  1
  In  In45  1  0.67912981  0.16639129  0.16969778  1
  In  In46  1  0.67263020  0.67037789  0.01024976  1
  In  In47  1  0.86349103  0.30225629  0.48243897  1
  In  In48  1  0.85033841  0.85641848  0.32158055  1
  In  In49  1  0.82978035  0.15766217  0.00503121  1
  In  In50  1  0.50365227  0.66135433  0.18790253  1
  In  In51  1  0.00009131  0.48615395  0.49366500  1
  In  In52  1  0.83463107  0.82532013  0.66776819  1
  In  In53  1  0.50246319  0.84343241  0.68953784  1
  In  In54  1  0.83041783  0.68850472  0.17418397  1
  In  In55  1  0.83903861  0.50116586  0.34089730  1
  In  In56  1  0.17623476  0.67158316  0.86089315  1
  In  In57  1  0.50667745  0.48515396  0.65288915  1
  In  In58  1  0.33980697  0.01322983  -0.01167117  1
  In  In59  1  0.50070402  0.17795736  0.66282117  1
  In  In60  1  0.15548056  0.29594574  0.20042402  1
  In  In61  1  0.31095407  0.67082505  0.01242203  1
  In  In62  1  0.85868492  0.65354946  0.50915884  1
  In  In63  1  0.17608791  0.47561222  0.32531696  1
  In  In64  1  0.17772500  0.29814076  0.49024910  1
  In  In65  1  0.32437135  0.66957185  0.33443707  1
  In  In66  1  0.67794148  0.00120874  0.33427489  1
  In  In67  1  0.14977551  0.84467678  -0.00061034  1
  In  In68  1  0.51010484  0.48244655  0.00029452  1
  In  In69  1  0.67985721  0.85322182  0.83971198  1
  In  In70  1  0.83544278  0.48316496  0.64202948  1
  In  In71  1  0.34148047  0.32200051  0.66335633  1
  Te  Te72  1  0.08884615  0.10794562  0.07774046  1
  Te  Te73  1  0.12528244  0.08296431  0.45363296  1
  Te  Te74  1  0.11103532  0.08146450  0.73648340  1
  Te  Te75  1  0.08334333  0.39823386  0.09349543  1
  Te  Te76  1  0.08100788  0.38994826  0.40862218  1
  Te  Te77  1  0.10275243  0.36081837  0.73666298  1
  Te  Te78  1  0.09979472  0.73461229  0.09182422  1
  Te  Te79  1  0.05597044  0.75929154  0.38180291  1
  Te  Te80  1  0.08233432  0.73889716  0.75428427  1
  Te  Te81  1  0.39702421  0.10019167  0.10144532  1
  Te  Te82  1  0.38684023  0.11021476  0.44095648  1
  Te  Te83  1  0.42074481  0.08023006  0.74909097  1
  Te  Te84  1  0.39865720  0.42310086  0.08412447  1
  Te  Te85  1  0.40796080  0.37524000  0.42160254  1
  Te  Te86  1  0.42691735  0.40642441  0.75843815  1
  Te  Te87  1  0.42355824  0.75318117  0.09269710  1
  Te  Te88  1  0.41399719  0.76042124  0.42136189  1
  Te  Te89  1  0.39436501  0.75903354  0.74518954  1
  Te  Te90  1  0.74533186  0.06449119  0.08450596  1
  Te  Te91  1  0.76368777  0.10405537  0.40676355  1
  Te  Te92  1  0.75857085  0.07512389  0.77256458  1
  Te  Te93  1  0.72654542  0.40165561  0.09193904  1
  Te  Te94  1  0.75897453  0.40143194  0.42201547  1
  Te  Te95  1  0.73838886  0.41319065  0.73698034  1
  Te  Te96  1  0.75489127  0.77288152  0.07951909  1
  Te  Te97  1  0.76513243  0.74760056  0.40793917  1
  Te  Te98  1  0.74210443  0.73874285  0.75020728  1
  Te  Te99  1  0.05550121  0.20610185  0.27125719  1
  Te  Te100  1  0.08774453  0.20581610  0.56785824  1
  Te  Te101  1  0.09887478  0.23516672  0.92178450  1
  Te  Te102  1  0.09960380  0.58244529  0.25676745  1
  Te  Te103  1  0.08465405  0.58145372  0.58175427  1
  Te  Te104  1  0.08138269  0.56782485  0.92348764  1
  Te  Te105  1  0.08352938  0.92260698  0.25557776  1
  Te  Te106  1  0.08127617  0.90885128  0.56014946  1
  Te  Te107  1  0.09363755  0.94118735  0.89795620  1
  Te  Te108  1  0.38617284  0.26267212  0.24214787  1
  Te  Te109  1  0.40440256  0.23224873  0.56123775  1
  Te  Te110  1  0.41712912  0.25257828  0.91282875  1
  Te  Te111  1  0.40489883  0.56732017  0.25511740  1
  Te  Te112  1  0.40268660  0.58807632  0.60513313  1
  Te  Te113  1  0.40919226  0.58638383  0.92728276  1
  Te  Te114  1  0.40117597  0.93846516  0.26793608  1
  Te  Te115  1  0.41252997  0.91611163  0.57539433  1
  Te  Te116  1  0.41440175  0.92842798  0.89288364  1
  Te  Te117  1  0.74945201  0.24598901  0.27213931  1
  Te  Te118  1  0.75219267  0.25616296  0.57844048  1
  Te  Te119  1  0.73726411  0.25741853  0.93715701  1
  Te  Te120  1  0.75224902  0.57175192  0.23638751  1
  Te  Te121  1  0.74293865  0.59309255  0.58634567  1
  Te  Te122  1  0.76409191  0.58841670  0.91611978  1
  Te  Te123  1  0.76197068  0.93431566  0.23261360  1
  Te  Te124  1  0.74427899  0.92991020  0.59878425  1
  Te  Te125  1  0.77990101  0.90324419  0.93296308  1
  Te  Te126  1  0.22147142  0.22192714  0.08730682  1
  Te  Te127  1  0.23546503  0.21513103  0.38085836  1
  Te  Te128  1  0.23441455  0.24748554  0.73502359  1
  Te  Te129  1  0.24414081  0.58533477  0.11205699  1
  Te  Te130  1  0.24275514  0.57862397  0.43010458  1
  Te  Te131  1  0.25007372  0.59146113  0.75352731  1
  Te  Te132  1  0.24718692  0.92438015  0.08859108  1
  Te  Te133  1  0.22911897  0.96790862  0.38395651  1
  Te  Te134  1  0.25128772  0.93953300  0.75465814  1
  Te  Te135  1  0.57897464  0.24027723  0.08046316  1
  Te  Te136  1  0.57126901  0.26280807  0.40817410  1
  Te  Te137  1  0.59000757  0.26042350  0.74696954  1
  Te  Te138  1  0.58903265  0.57437249  0.09460954  1
  Te  Te139  1  0.57847137  0.58194613  0.41320074  1
  Te  Te140  1  0.58901705  0.57942087  0.74159008  1
  Te  Te141  1  0.59453415  0.93138930  0.07048894  1
  Te  Te142  1  0.57650633  0.91549408  0.42063635  1
  Te  Te143  1  0.58981154  0.93884447  0.75984765  1
  Te  Te144  1  0.92540835  0.23506395  0.09579469  1
  Te  Te145  1  0.94105413  0.22470466  0.37968127  1
  Te  Te146  1  0.92678392  0.24959184  0.74638419  1
  Te  Te147  1  0.91468343  0.59211155  0.07531841  1
  Te  Te148  1  0.94561445  0.59354106  0.39952892  1
  Te  Te149  1  0.91408196  0.57025943  0.74883043  1
  Te  Te150  1  0.91230504  0.95581307  0.11605877  1
  Te  Te151  1  0.93439470  0.94111612  0.41469277  1
  Te  Te152  1  0.91105336  0.93373494  0.74225243  1
  Te  Te153  1  0.24915898  0.09141684  0.28442762  1
  Te  Te154  1  0.20898426  0.10447713  0.58365427  1
  Te  Te155  1  0.23561253  0.09922178  0.92806329  1
  Te  Te156  1  0.26701766  0.38369340  0.25003242  1
  Te  Te157  1  0.25136665  0.41702944  0.57419495  1
  Te  Te158  1  0.23698791  0.39207596  0.91034498  1
  Te  Te159  1  0.22770648  0.76400818  0.27471711  1
  Te  Te160  1  0.25139324  0.75424402  0.57606215  1
  Te  Te161  1  0.26507945  0.78118735  0.91757463  1
  Te  Te162  1  0.56949624  0.08250090  0.26079583  1
  Te  Te163  1  0.59995832  0.07828880  0.59743224  1
  Te  Te164  1  0.58642263  0.05752525  0.91958278  1
  Te  Te165  1  0.59537326  0.41462209  0.24675960  1
  Te  Te166  1  0.57107157  0.38640237  0.56440459  1
  Te  Te167  1  0.57888362  0.38925074  0.91047078  1
  Te  Te168  1  0.60781387  0.76999596  0.22805413  1
  Te  Te169  1  0.58884056  0.75280996  0.59324878  1
  Te  Te170  1  0.57792266  0.74274429  0.91168196  1
  Te  Te171  1  0.92231086  0.11717183  0.26243110  1
  Te  Te172  1  0.92967334  0.10918927  0.57041060  1
  Te  Te173  1  0.91019080  0.07382277  0.90578961  1
  Te  Te174  1  0.92679083  0.40774717  0.25839843  1
  Te  Te175  1  0.93939004  0.38474019  0.58969984  1
  Te  Te176  1  0.91253824  0.41946648  0.90487229  1
  Te  Te177  1  0.94226886  0.74809581  0.25958094  1
  Te  Te178  1  0.93302280  0.77734496  0.56082875  1
  Te  Te179  1  0.90005841  0.80488655  0.94485859  1
