# generated using pymatgen
data_In2Te3
_symmetry_space_group_name_H-M   'P 1'
_cell_length_a   18.95982209
_cell_length_b   18.95473673
_cell_length_c   18.97252554
_cell_angle_alpha   90.04425220
_cell_angle_beta   90.16667644
_cell_angle_gamma   90.07659597
_symmetry_Int_Tables_number   1
_chemical_formula_structural   In2Te3
_chemical_formula_sum   'In72 Te108'
_cell_volume   6818.27955869
_cell_formula_units_Z   36
loop_
 _symmetry_equiv_pos_site_id
 _symmetry_equiv_pos_as_xyz
  1  'x, y, z'
loop_
 _atom_site_type_symbol
 _atom_site_label
 _atom_site_symmetry_multiplicity
 _atom_site_fract_x
 _atom_site_fract_y
 _atom_site_fract_z
 _atom_site_occupancy
  In  In0  1  0.54020413  0.83859055  0.33455254  1
  In  In1  1  0.17984876  0.31300839  0.84765270  1
  In  In2  1  0.52682690  0.60456640  0.17330124  1
  In  In3  1  0.83687880  -0.00479536  0.47996377  1
  In  In4  1  0.33864298  0.15966558  0.18322900  1
  In  In5  1  0.68309275  0.47882048  0.15438346  1
  In  In6  1  0.51271786  0.33125980  0.83934794  1
  In  In7  1  0.31694031  0.68234347  0.35118616  1
  In  In8  1  0.84017691  0.00717575  0.81443615  1
  In  In9  1  0.16513907  -0.01253638  0.78782506  1
  In  In10  1  0.00630115  0.33046610  0.34508343  1
  In  In11  1  0.49694257  0.16518295  0.33114392  1
  In  In12  1  0.68769750  0.33997485  0.65852711  1
  In  In13  1  0.68680041  0.52250332  0.48318861  1
  In  In14  1  0.33359698  0.00889193  0.66694663  1
  In  In15  1  0.83312540  0.66895293  0.15148370  1
  In  In16  1  0.13375144  0.69341120  0.18478158  1
  In  In17  1  0.48969046  0.66475818  0.83664657  1
  In  In18  1  0.49891698  0.31615106  0.52196457  1
  In  In19  1  0.32534840  0.02401205  -0.00852264  1
  In  In20  1  0.66093132  0.82126571  0.52611120  1
  In  In21  1  0.48215523  0.02038696  0.48409032  1
  In  In22  1  0.48804907  0.50625134  0.66850809  1
  In  In23  1  0.67953084  0.03586591  -0.01910169  1
  In  In24  1  0.85421651  0.65705361  0.51508546  1
  In  In25  1  -0.01258566  0.00932792  0.33676498  1
  In  In26  1  0.83381775  0.48157352  0.33462749  1
  In  In27  1  0.82054046  0.30537541  0.86338269  1
  In  In28  1  0.65015402  0.17764448  0.15830757  1
  In  In29  1  -0.01414653  0.84998074  0.17413557  1
  In  In30  1  0.16038593  0.61915026  0.50302840  1
  In  In31  1  0.52959375  0.82922863  0.00138526  1
  In  In32  1  0.01095947  0.50766366  0.19565071  1
  In  In33  1  0.67302639  0.49341781  0.84575752  1
  In  In34  1  0.50998395  0.49301190  0.32352937  1
  In  In35  1  0.34954599  0.50735579  0.83116246  1
  In  In36  1  0.33772231  0.31786771  0.32749654  1
  In  In37  1  0.34476902  0.63358424  -0.00579139  1
  In  In38  1  0.15654447  0.50061170  -0.00960597  1
  In  In39  1  0.17560356  0.84009074  -0.01344455  1
  In  In40  1  0.83127549  0.19164276  0.31511146  1
  In  In41  1  0.83749191  0.50616521  -0.00316490  1
  In  In42  1  -0.01213633  0.51251580  0.80908937  1
  In  In43  1  0.15029738  0.82263068  0.34908882  1
  In  In44  1  0.17465993  0.66363323  0.82815415  1
  In  In45  1  -0.01606989  0.84721175  0.81523305  1
  In  In46  1  0.35656956  0.85665312  0.14839007  1
  In  In47  1  -0.02662391  -0.00345898  0.00991155  1
  In  In48  1  0.84523850  0.14650096  0.65112270  1
  In  In49  1  0.65459712  0.80436315  0.75111650  1
  In  In50  1  0.65504088  0.00358246  0.67040104  1
  In  In51  1  0.46890386  0.17640070  0.68315215  1
  In  In52  1  0.30593493  0.00026939  0.35008026  1
  In  In53  1  0.33583378  0.82624733  0.50745073  1
  In  In54  1  0.38415048  0.32314783  0.00582549  1
  In  In55  1  -0.01191529  0.66624125  0.33569632  1
  In  In56  1  -0.10049774  0.30683173  0.02699749  1
  In  In57  1  0.15639022  0.14514185  -0.00171976  1
  In  In58  1  0.00739789  0.34830803  0.65999598  1
  In  In59  1  0.66352105  0.69502333  0.32477081  1
  In  In60  1  0.37759597  0.84638161  0.83012239  1
  In  In61  1  0.83092438  0.83701555  -0.01022807  1
  In  In62  1  0.14355896  0.16903372  0.35637111  1
  In  In63  1  0.68877858  0.15155406  0.49393440  1
  In  In64  1  0.01495149  0.17939825  0.84346511  1
  In  In65  1  0.18116841  0.31761953  0.18160763  1
  In  In66  1  0.51399549  -0.01236087  0.15728254  1
  In  In67  1  0.32396173  0.49570541  0.14687774  1
  In  In68  1  0.32771151  0.65148883  0.65644081  1
  In  In69  1  -0.00783999  0.67881178  0.67238287  1
  In  In70  1  0.15151564  0.17034437  0.66343460  1
  In  In71  1  0.84315469  0.51666896  0.65413793  1
  Te  Te72  1  0.07201400  0.07066174  0.09009954  1
  Te  Te73  1  0.06806287  0.07533896  0.44295217  1
  Te  Te74  1  0.04597977  0.07341962  0.73650323  1
  Te  Te75  1  0.09581613  0.42105383  0.10283858  1
  Te  Te76  1  0.11311167  0.38978004  0.43110606  1
  Te  Te77  1  0.09562799  0.41198568  0.76731354  1
  Te  Te78  1  0.06829647  0.77147800  0.07270891  1
  Te  Te79  1  0.07130898  0.73655530  0.44038102  1
  Te  Te80  1  0.09516213  0.76174860  0.74765555  1
  Te  Te81  1  0.42875990  0.08950966  0.08401963  1
  Te  Te82  1  0.38291965  0.11315770  0.41801316  1
  Te  Te83  1  0.42660989  0.06471207  0.76678823  1
  Te  Te84  1  0.44016926  0.42244708  0.09763798  1
  Te  Te85  1  0.42894059  0.40302089  0.41468886  1
  Te  Te86  1  0.41099070  0.40126876  0.74391479  1
  Te  Te87  1  0.42091761  0.74406246  0.06852909  1
  Te  Te88  1  0.43249227  0.75752631  0.41401362  1
  Te  Te89  1  0.42603913  0.74539045  0.72489070  1
  Te  Te90  1  0.75920119  0.09594697  0.09377736  1
  Te  Te91  1  0.75221944  0.07446937  0.38289318  1
  Te  Te92  1  0.73985389  0.10231168  0.74999754  1
  Te  Te93  1  0.78126590  0.39189140  0.07810393  1
  Te  Te94  1  0.74414499  0.40475182  0.42055050  1
  Te  Te95  1  0.77516922  0.41752532  0.75784539  1
  Te  Te96  1  0.74342320  0.74715451  0.06803236  1
  Te  Te97  1  0.75541334  0.74441095  0.43751059  1
  Te  Te98  1  0.77438075  0.72442189  0.72334438  1
  Te  Te99  1  0.07034401  0.23687986  0.24041210  1
  Te  Te100  1  0.08747251  0.26488922  0.56961247  1
  Te  Te101  1  0.07760005  0.26660999  0.95163644  1
  Te  Te102  1  0.10782276  0.58365277  0.28454692  1
  Te  Te103  1  0.05936693  0.56375804  0.60453961  1
  Te  Te104  1  0.06920997  0.59558412  0.91208896  1
  Te  Te105  1  0.09002058  0.92264983  0.25436436  1
  Te  Te106  1  0.11865434  0.97251859  0.64421391  1
  Te  Te107  1  0.08077734  0.93247768  0.91136424  1
  Te  Te108  1  0.44031771  0.26232937  0.22908751  1
  Te  Te109  1  0.38706907  0.24793197  0.58547266  1
  Te  Te110  1  0.41854200  0.23207223  0.89774333  1
  Te  Te111  1  0.39654791  0.59354641  0.24825100  1
  Te  Te112  1  0.41011448  0.57217516  0.56320993  1
  Te  Te113  1  0.45404546  0.55107258  0.93161541  1
  Te  Te114  1  0.41603585  0.93254533  0.26882797  1
  Te  Te115  1  0.42753579  0.92069058  0.58282738  1
  Te  Te116  1  0.43583704  0.93315295  0.93800801  1
  Te  Te117  1  0.71928542  0.26949977  0.25327360  1
  Te  Te118  1  0.77336121  0.25353919  0.56898013  1
  Te  Te119  1  0.71841699  0.22282157  0.93530418  1
  Te  Te120  1  0.75190687  0.58383197  0.25549339  1
  Te  Te121  1  0.73250123  0.60795950  0.60257904  1
  Te  Te122  1  0.74569820  0.59486648  0.92556223  1
  Te  Te123  1  0.68171139  0.84066117  0.28140550  1
  Te  Te124  1  0.75412984  0.92527891  0.58844073  1
  Te  Te125  1  0.74600680  0.92541210  0.89914079  1
  Te  Te126  1  0.26266480  0.24406537  0.07532143  1
  Te  Te127  1  0.23107966  0.27234587  0.42140249  1
  Te  Te128  1  0.25243051  0.23842974  0.74669970  1
  Te  Te129  1  0.22435312  0.60915911  0.08635136  1
  Te  Te130  1  0.28314038  0.56471619  0.43374748  1
  Te  Te131  1  0.24035338  0.55974267  0.74036119  1
  Te  Te132  1  0.24341819  0.93596794  0.08430081  1
  Te  Te133  1  0.22721347  0.91321160  0.44428825  1
  Te  Te134  1  0.26876545  0.88590360  0.73646475  1
  Te  Te135  1  0.60086175  0.25771648  0.04019738  1
  Te  Te136  1  0.58792074  0.24351046  0.42379644  1
  Te  Te137  1  0.59432429  0.25338388  0.73633853  1
  Te  Te138  1  0.61834872  0.57624391  0.06381086  1
  Te  Te139  1  0.57724291  0.59729763  0.41096953  1
  Te  Te140  1  0.58674521  0.57978138  0.75458918  1
  Te  Te141  1  0.62192987  0.92503653  0.07465801  1
  Te  Te142  1  0.59658359  0.93235371  0.44124495  1
  Te  Te143  1  0.57626762  0.93004948  0.76891123  1
  Te  Te144  1  0.88802941  0.18585947  0.10835806  1
  Te  Te145  1  0.91858415  0.24200152  0.42161499  1
  Te  Te146  1  0.91573176  0.25109661  0.75050327  1
  Te  Te147  1  0.93881916  0.58304530  0.08597323  1
  Te  Te148  1  0.92935480  0.55880638  0.42395652  1
  Te  Te149  1  0.88139609  0.61941585  0.76925908  1
  Te  Te150  1  0.87610916  0.92707989  0.10495260  1
  Te  Te151  1  0.90759466  0.89980633  0.39322839  1
  Te  Te152  1  0.89974597  0.91538247  0.71608001  1
  Te  Te153  1  0.22884307  0.08736361  0.25344043  1
  Te  Te154  1  0.23078671  0.07320443  0.57954128  1
  Te  Te155  1  0.23736134  0.08636185  0.88633649  1
  Te  Te156  1  0.25223841  0.42606911  0.25963774  1
  Te  Te157  1  0.17215099  0.47114176  0.55016466  1
  Te  Te158  1  0.26812847  0.41799062  0.93035238  1
  Te  Te159  1  0.25642853  0.77636171  0.23981880  1
  Te  Te160  1  0.23478423  0.73730544  0.57503072  1
  Te  Te161  1  0.27628883  0.74756079  0.90929631  1
  Te  Te162  1  0.59009412  0.07202764  0.25669079  1
  Te  Te163  1  0.57253430  0.10061024  0.58105366  1
  Te  Te164  1  0.58269090  0.14093812  0.93467533  1
  Te  Te165  1  0.60711703  0.40258857  0.25698453  1
  Te  Te166  1  0.59394962  0.43046323  0.58030812  1
  Te  Te167  1  0.61097043  0.39141264  0.93454484  1
  Te  Te168  1  0.56625284  0.74619427  0.21121717  1
  Te  Te169  1  0.57602786  0.76133753  0.63055925  1
  Te  Te170  1  0.59712792  0.75377947  0.89226271  1
  Te  Te171  1  0.91528534  0.09390305  0.23639245  1
  Te  Te172  1  0.93411397  0.08374683  0.55122827  1
  Te  Te173  1  0.90946161  0.09712491  0.91591289  1
  Te  Te174  1  0.91631875  0.39896305  0.23916931  1
  Te  Te175  1  0.91734440  0.42370582  0.57031706  1
  Te  Te176  1  0.93107560  0.41532663  0.91333894  1
  Te  Te177  1  0.89799115  0.75829700  0.25772650  1
  Te  Te178  1  0.92134502  0.76994239  0.58209882  1
  Te  Te179  1  0.92934946  0.75730405  0.91634195  1
