# generated using pymatgen
data_In2Te3
_symmetry_space_group_name_H-M   'P 1'
_cell_length_a   18.79355391
_cell_length_b   18.79489380
_cell_length_c   18.80622474
_cell_angle_alpha   89.99439141
_cell_angle_beta   89.99659276
_cell_angle_gamma   89.99000038
_symmetry_Int_Tables_number   1
_chemical_formula_structural   In2Te3
_chemical_formula_sum   'In72 Te108'
_cell_volume   6642.78815205
_cell_formula_units_Z   36
loop_
 _symmetry_equiv_pos_site_id
 _symmetry_equiv_pos_as_xyz
  1  'x, y, z'
loop_
 _atom_site_type_symbol
 _atom_site_label
 _atom_site_symmetry_multiplicity
 _atom_site_fract_x
 _atom_site_fract_y
 _atom_site_fract_z
 _atom_site_occupancy
  In  In0  1  0.31740672  0.34071455  0.32235995  1
  In  In1  1  -0.00579268  0.35472124  0.33455368  1
  In  In2  1  0.83170241  0.64831003  0.16032362  1
  In  In3  1  0.14597573  0.65250870  0.20044396  1
  In  In4  1  0.00734618  0.80485818  0.52040708  1
  In  In5  1  0.83692700  0.82848958  0.01225576  1
  In  In6  1  0.16829709  0.66051498  0.49988709  1
  In  In7  1  0.31334591  0.84518154  0.83188377  1
  In  In8  1  0.67690145  0.81428880  0.49053063  1
  In  In9  1  0.48215068  0.66429549  0.81594785  1
  In  In10  1  0.50668016  0.31745479  0.15904043  1
  In  In11  1  0.68463902  0.66692430  0.01440075  1
  In  In12  1  0.49785174  0.49927547  0.64994046  1
  In  In13  1  0.67444175  0.65959027  0.32071229  1
  In  In14  1  0.67683529  0.00498586  0.69582935  1
  In  In15  1  0.88035665  0.81815439  0.66827557  1
  In  In16  1  0.68252924  0.34275131  0.34122761  1
  In  In17  1  0.19110282  0.15143187  0.63517038  1
  In  In18  1  0.84606961  0.32529074  0.85278019  1
  In  In19  1  0.46458245  0.70155698  0.47026204  1
  In  In20  1  0.00136121  0.34689756  0.00407123  1
  In  In21  1  0.33024037  0.68044347  -0.01690519  1
  In  In22  1  0.66554865  0.17406497  0.48668064  1
  In  In23  1  0.51206511  0.66888217  0.18312424  1
  In  In24  1  0.33700984  0.31509528  0.65620689  1
  In  In25  1  0.85467314  0.66663880  0.83851994  1
  In  In26  1  0.67143640  0.63836772  0.66357253  1
  In  In27  1  -0.00283718  0.00710823  0.67042748  1
  In  In28  1  -0.01210134  0.16972439  0.17957778  1
  In  In29  1  0.49520814  0.34097765  0.84831224  1
  In  In30  1  0.67179810  0.16909612  0.83836513  1
  In  In31  1  0.15666218  0.79641868  0.68469583  1
  In  In32  1  0.32072389  0.51080820  0.49461421  1
  In  In33  1  0.49916122  0.84955744  0.01595946  1
  In  In34  1  0.33237373  0.17057944  0.14714624  1
  In  In35  1  0.48375307  -0.01211481  0.49923104  1
  In  In36  1  0.65906037  0.01743412  0.00256433  1
  In  In37  1  0.02645419  0.35535511  0.66690950  1
  In  In38  1  0.48337648  0.14309492  0.67696372  1
  In  In39  1  0.18704643  0.82627160  0.35918104  1
  In  In40  1  0.66431344  0.35852363  0.66688681  1
  In  In41  1  0.33043901  0.00506736  0.01362617  1
  In  In42  1  0.32412858  0.16182040  0.82995950  1
  In  In43  1  0.33700719  -0.00670814  0.34133486  1
  In  In44  1  -0.00009711  0.01389091  0.33688273  1
  In  In45  1  0.14807626  0.16890934  0.33542181  1
  In  In46  1  -0.01672125  0.83318120  0.16053825  1
  In  In47  1  0.82774877  -0.00563503  0.50726270  1
  In  In48  1  0.85109359  0.33983310  0.47444455  1
  In  In49  1  0.16133710  -0.01437380  0.15201364  1
  In  In50  1  0.17525534  0.18376629  -0.00054466  1
  In  In51  1  0.66946478  -0.00393712  0.33622089  1
  In  In52  1  0.32344386  0.34582803  -0.01870075  1
  In  In53  1  0.83430200  0.48591537  0.00276755  1
  In  In54  1  0.48166770  0.84330615  0.65604694  1
  In  In55  1  0.00512960  0.66413190  -0.00766935  1
  In  In56  1  0.50677896  0.32059552  0.52998083  1
  In  In57  1  -0.01118860  0.15380239  0.84492454  1
  In  In58  1  0.84735121  0.49830692  0.67537618  1
  In  In59  1  0.65429092  0.82271441  0.83564731  1
  In  In60  1  0.14286334  0.86830989  -0.01855341  1
  In  In61  1  0.15630704  0.50317017  -0.01475288  1
  In  In62  1  0.32954592  0.50398356  0.17808645  1
  In  In63  1  0.84073994  0.33791559  0.16235471  1
  In  In64  1  0.18283019  0.54177918  0.69084425  1
  In  In65  1  0.81881769  0.82952900  0.32921825  1
  In  In66  1  0.15538059  0.34045424  0.48032858  1
  In  In67  1  0.48483852  -0.00894492  0.19011013  1
  In  In68  1  0.51166234  0.49543793  0.33737452  1
  In  In69  1  0.82703079  0.15234188  0.66664906  1
  In  In70  1  0.50853587  0.51974282  -0.01450344  1
  In  In71  1  0.66719098  0.17177253  0.16332972  1
  Te  Te72  1  0.08234540  0.09368118  0.08174000  1
  Te  Te73  1  0.09159144  0.07496895  0.43502386  1
  Te  Te74  1  0.09171576  0.10034095  0.74487777  1
  Te  Te75  1  0.08656912  0.42839896  0.09214125  1
  Te  Te76  1  0.07692368  0.45311903  0.41859466  1
  Te  Te77  1  0.10858971  0.43186710  0.76390460  1
  Te  Te78  1  0.09210842  0.75291707  0.08656140  1
  Te  Te79  1  0.06410947  0.73607656  0.39543034  1
  Te  Te80  1  0.06299859  0.70144134  0.75317014  1
  Te  Te81  1  0.44037458  0.08724968  0.07943300  1
  Te  Te82  1  0.43355365  0.08716562  0.40221131  1
  Te  Te83  1  0.38873492  0.05700203  0.74821287  1
  Te  Te84  1  0.41897019  0.42547475  0.07949129  1
  Te  Te85  1  0.41854336  0.40812947  0.42765057  1
  Te  Te86  1  0.41083378  0.41492907  0.74403292  1
  Te  Te87  1  0.41535720  0.74709885  0.09150283  1
  Te  Te88  1  0.38286406  0.79450044  0.39192630  1
  Te  Te89  1  0.38667985  0.74919223  0.73402427  1
  Te  Te90  1  0.75997308  0.08690058  0.08453815  1
  Te  Te91  1  0.76658784  0.09267432  0.40775881  1
  Te  Te92  1  0.78049331  0.07036747  0.78524510  1
  Te  Te93  1  0.73811774  0.40573560  0.07878257  1
  Te  Te94  1  0.76494353  0.44353637  0.41273896  1
  Te  Te95  1  0.75422600  0.42047089  0.76996768  1
  Te  Te96  1  0.74187068  0.76464544  0.11406987  1
  Te  Te97  1  0.77549610  0.71955830  0.42633674  1
  Te  Te98  1  0.75168181  0.74474925  0.74751234  1
  Te  Te99  1  0.08531350  0.26934390  0.24100032  1
  Te  Te100  1  0.08410628  0.24631111  0.57577542  1
  Te  Te101  1  0.08096320  0.25865497  0.90676852  1
  Te  Te102  1  0.04690342  0.56053229  0.26144079  1
  Te  Te103  1  0.08192309  0.58135204  0.59078373  1
  Te  Te104  1  0.09427914  0.60268008  0.88840777  1
  Te  Te105  1  0.08597619  0.90585666  0.25834942  1
  Te  Te106  1  0.08677478  0.91003977  0.59473923  1
  Te  Te107  1  0.04738040  0.94283307  0.89679596  1
  Te  Te108  1  0.41367711  0.24309248  0.25422360  1
  Te  Te109  1  0.40434331  0.21277588  0.56567846  1
  Te  Te110  1  0.41554644  0.23660144  0.92709067  1
  Te  Te111  1  0.41316245  0.59188628  0.27143596  1
  Te  Te112  1  0.41161486  0.60242311  0.57637794  1
  Te  Te113  1  0.38774767  0.56587613  0.89710062  1
  Te  Te114  1  0.40743030  0.88406404  0.26393926  1
  Te  Te115  1  0.37673678  0.92942744  0.58825020  1
  Te  Te116  1  0.41621088  0.92495358  0.91415713  1
  Te  Te117  1  0.76416359  0.24586568  0.25860968  1
  Te  Te118  1  0.75086119  0.25991542  0.58370274  1
  Te  Te119  1  0.75818378  0.24014192  0.93476396  1
  Te  Te120  1  0.76205025  0.55710808  0.25590012  1
  Te  Te121  1  0.76540774  0.57065325  0.57335748  1
  Te  Te122  1  0.75206161  0.58055600  0.91033764  1
  Te  Te123  1  0.76756557  0.93643552  0.24116772  1
  Te  Te124  1  0.74643118  0.90441495  0.60048035  1
  Te  Te125  1  0.74227613  0.90901740  0.92158218  1
  Te  Te126  1  0.24277950  0.28221638  0.09501247  1
  Te  Te127  1  0.25408544  0.24102889  0.41980394  1
  Te  Te128  1  0.23392698  0.25141051  0.74722584  1
  Te  Te129  1  0.24707037  0.59452834  0.08332765  1
  Te  Te130  1  0.24743543  0.59033631  0.39463660  1
  Te  Te131  1  0.29620091  0.60027929  0.76259764  1
  Te  Te132  1  0.26012704  0.89153495  0.08551051  1
  Te  Te133  1  0.22822299  0.94973352  0.43602683  1
  Te  Te134  1  0.20670818  0.91621235  0.75896277  1
  Te  Te135  1  0.58828321  0.24577074  0.06094204  1
  Te  Te136  1  0.57002683  0.25799160  0.40507584  1
  Te  Te137  1  0.57633147  0.25439367  0.73734814  1
  Te  Te138  1  0.59738187  0.57427256  0.09848216  1
  Te  Te139  1  0.57446276  0.60367993  0.42487531  1
  Te  Te140  1  0.58262083  0.56281942  0.76228000  1
  Te  Te141  1  0.59352263  0.92169639  0.10757061  1
  Te  Te142  1  0.57809190  0.90030347  0.41321966  1
  Te  Te143  1  0.56530503  0.92037012  0.75855763  1
  Te  Te144  1  0.91242083  0.24048212  0.06684652  1
  Te  Te145  1  0.93256408  0.23986393  0.40503302  1
  Te  Te146  1  0.91873752  0.25640827  0.73459528  1
  Te  Te147  1  0.93584222  0.56643945  0.08466109  1
  Te  Te148  1  0.99555059  0.58926669  0.40109728  1
  Te  Te149  1  0.94547251  0.59534968  0.74150835  1
  Te  Te150  1  0.92353346  0.93654454  0.07128127  1
  Te  Te151  1  0.91976151  0.90335916  0.42624500  1
  Te  Te152  1  0.92692882  0.91722144  0.76785244  1
  Te  Te153  1  0.24465655  0.08349516  0.23887595  1
  Te  Te154  1  0.27420435  0.05039296  0.56643400  1
  Te  Te155  1  0.23402969  0.07046506  0.91623056  1
  Te  Te156  1  0.22613326  0.43646731  0.25951104  1
  Te  Te157  1  0.24318748  0.41642083  0.58692889  1
  Te  Te158  1  0.22861942  0.41174523  0.88924084  1
  Te  Te159  1  0.25216670  0.73759488  0.25896633  1
  Te  Te160  1  0.25031510  0.75667625  0.57670134  1
  Te  Te161  1  0.21825717  0.75380382  0.90993145  1
  Te  Te162  1  0.57674859  0.09056356  0.26037132  1
  Te  Te163  1  0.59698820  0.07593153  0.58229929  1
  Te  Te164  1  0.57386471  0.07547260  0.89632174  1
  Te  Te165  1  0.59405468  0.41589423  0.23805200  1
  Te  Te166  1  0.60154100  0.43797252  0.55384469  1
  Te  Te167  1  0.59518973  0.41634310  0.92519383  1
  Te  Te168  1  0.59392144  0.76595386  0.25812526  1
  Te  Te169  1  0.58127725  0.74630963  0.59370655  1
  Te  Te170  1  0.56579665  0.73157458  0.92935281  1
  Te  Te171  1  0.90128841  0.06381680  0.23921065  1
  Te  Te172  1  0.92560221  0.09548250  0.56616410  1
  Te  Te173  1  0.94111503  0.04922496  0.93850256  1
  Te  Te174  1  0.90093908  0.44052314  0.25392787  1
  Te  Te175  1  0.93451092  0.42793677  0.56970283  1
  Te  Te176  1  0.93676179  0.43829710  0.89900775  1
  Te  Te177  1  0.91510433  0.73573387  0.25432781  1
  Te  Te178  1  0.91004568  0.70715377  0.57738799  1
  Te  Te179  1  0.93634712  0.77313875  0.91031766  1
