# generated using pymatgen
data_In2Te3
_symmetry_space_group_name_H-M   'P 1'
_cell_length_a   18.96652328
_cell_length_b   18.94420744
_cell_length_c   18.95509692
_cell_angle_alpha   90.11670019
_cell_angle_beta   90.10859527
_cell_angle_gamma   89.95420380
_symmetry_Int_Tables_number   1
_chemical_formula_structural   In2Te3
_chemical_formula_sum   'In72 Te108'
_cell_volume   6810.64683104
_cell_formula_units_Z   36
loop_
 _symmetry_equiv_pos_site_id
 _symmetry_equiv_pos_as_xyz
  1  'x, y, z'
loop_
 _atom_site_type_symbol
 _atom_site_label
 _atom_site_symmetry_multiplicity
 _atom_site_fract_x
 _atom_site_fract_y
 _atom_site_fract_z
 _atom_site_occupancy
  In  In0  1  0.19546049  0.32502247  0.84208820  1
  In  In1  1  0.15833090  0.01319861  0.15997240  1
  In  In2  1  0.50176800  0.33692514  0.51077623  1
  In  In3  1  -0.01215192  0.69033239  0.02838970  1
  In  In4  1  0.34433334  0.48780676  0.86137333  1
  In  In5  1  0.49560247  -0.01154875  0.83893549  1
  In  In6  1  0.15296620  -0.03040489  0.47554861  1
  In  In7  1  0.18328565  0.13336383  0.67332781  1
  In  In8  1  0.19188669  0.50561827  0.66008824  1
  In  In9  1  0.13736650  0.66641296  0.86076766  1
  In  In10  1  0.82740550  0.31231310  0.52330611  1
  In  In11  1  0.85312203  0.51743494  0.00486044  1
  In  In12  1  0.00097885  -0.02745015  0.65190447  1
  In  In13  1  0.34377312  0.64154861  0.66283772  1
  In  In14  1  0.68735293  0.68858831  0.65177184  1
  In  In15  1  0.16135026  0.34068043  0.50987858  1
  In  In16  1  0.19317721  0.68879829  0.50123085  1
  In  In17  1  0.82163643  0.11294896  0.69351477  1
  In  In18  1  0.67827093  0.48546966  0.85502080  1
  In  In19  1  0.50135791  0.16127504  0.34456504  1
  In  In20  1  -0.00428138  0.35343711  0.32672482  1
  In  In21  1  0.02732144  0.13252873  0.50100418  1
  In  In22  1  -0.01133807  0.14730266  0.87222092  1
  In  In23  1  0.64334836  0.71390086  0.31963105  1
  In  In24  1  0.84351848  -0.07458060  0.52041954  1
  In  In25  1  0.53145276  0.31434772  0.81104501  1
  In  In26  1  0.13908465  0.82239484  0.01515897  1
  In  In27  1  0.68652646  0.81419088  0.84064328  1
  In  In28  1  0.17646706  0.15307311  0.35442391  1
  In  In29  1  0.51439739  0.65205337  0.84295030  1
  In  In30  1  -0.00984011  0.31449628  0.70059219  1
  In  In31  1  0.83495197  0.84041667  -0.00101733  1
  In  In32  1  0.83299018  0.17558591  0.34674906  1
  In  In33  1  0.33724477  0.33358521  -0.00798327  1
  In  In34  1  -0.00733322  0.70307947  0.64100882  1
  In  In35  1  0.30394277  0.55061360  0.15722883  1
  In  In36  1  0.66541113  0.13837892  0.53010703  1
  In  In37  1  0.34827043  0.16680661  0.50474788  1
  In  In38  1  0.85462056  0.50121533  0.31782570  1
  In  In39  1  0.47374111  0.50951066  0.29814606  1
  In  In40  1  0.33689926  0.84209651  0.83144570  1
  In  In41  1  0.84397206  0.36637523  0.15906260  1
  In  In42  1  0.32408761  -0.02660164  0.29952570  1
  In  In43  1  0.15038376  0.21616862  0.03213375  1
  In  In44  1  0.78915748  0.17341367  -0.03440473  1
  In  In45  1  0.69098530  0.66013041  0.00383306  1
  In  In46  1  -0.00009655  0.49981612  0.83429218  1
  In  In47  1  0.12756701  0.83103137  0.31745794  1
  In  In48  1  0.31780975  0.49970386  0.47375460  1
  In  In49  1  0.32130511  0.82576803  0.14852076  1
  In  In50  1  0.66802505  0.86833575  0.15673751  1
  In  In51  1  0.60763995  0.00346132  0.67367363  1
  In  In52  1  -0.01213237  0.51451875  0.49216540  1
  In  In53  1  0.66106131  0.52158367  0.51106936  1
  In  In54  1  0.00175185  0.83547062  0.81884743  1
  In  In55  1  0.65885526  0.36721989  0.34957748  1
  In  In56  1  0.34567639  0.01991434  -0.02181250  1
  In  In57  1  0.68018898  0.16521737  0.18627957  1
  In  In58  1  0.16790844  -0.01408578  0.83951389  1
  In  In59  1  0.54663220  0.09322193  0.02428070  1
  In  In60  1  0.68684725  0.51366322  0.17701539  1
  In  In61  1  0.48926374  0.67757863  0.46344535  1
  In  In62  1  0.16402904  0.55869057  0.31192811  1
  In  In63  1  0.63436488  0.83984583  0.50586484  1
  In  In64  1  0.82655096  0.49560707  0.68875212  1
  In  In65  1  0.49966668  0.51633841  0.02287050  1
  In  In66  1  0.84663988  -0.00669579  0.17383747  1
  In  In67  1  0.35328395  0.15713221  0.82720340  1
  In  In68  1  0.49012733  0.29702966  0.14860477  1
  In  In69  1  -0.00341536  0.21555875  0.15682214  1
  In  In70  1  0.51026754  0.48649177  0.67550106  1
  In  In71  1  0.65258178  -0.02546480  0.34382494  1
  Te  Te72  1  0.06554151  0.09859866  0.07829334  1
  Te  Te73  1  0.06613367  0.05162745  0.38040492  1
  Te  Te74  1  0.06686577  0.07903046  0.75277456  1
  Te  Te75  1  0.06961805  0.32740896  0.08839671  1
  Te  Te76  1  0.09634448  0.43933582  0.41394388  1
  Te  Te77  1  0.10270020  0.41557245  0.74481074  1
  Te  Te78  1  0.11469779  0.71552952  0.12203448  1
  Te  Te79  1  0.07657386  0.72683585  0.41610657  1
  Te  Te80  1  0.09993110  0.75081231  0.73946375  1
  Te  Te81  1  0.41002411  0.10824275  0.07560416  1
  Te  Te82  1  0.39754623  0.06699117  0.40117764  1
  Te  Te83  1  0.39579239  0.04422292  0.73688780  1
  Te  Te84  1  0.40831721  0.42303298  0.09768978  1
  Te  Te85  1  0.42255576  0.41268195  0.40444613  1
  Te  Te86  1  0.41364147  0.40458229  0.75663755  1
  Te  Te87  1  0.38165959  0.70060712  0.09526349  1
  Te  Te88  1  0.43412421  0.78855369  0.38771290  1
  Te  Te89  1  0.41943229  0.73465432  0.75822503  1
  Te  Te90  1  0.75495935  0.07832438  0.08954233  1
  Te  Te91  1  0.74552830  0.07472669  0.41691235  1
  Te  Te92  1  0.70464854  0.06972425  0.77294434  1
  Te  Te93  1  0.74084372  0.42747427  0.06617954  1
  Te  Te94  1  0.77423741  0.42442907  0.43162223  1
  Te  Te95  1  0.75120315  0.38936472  0.76579872  1
  Te  Te96  1  0.75748060  0.75621491  0.10012144  1
  Te  Te97  1  0.72988584  0.75818515  0.42845706  1
  Te  Te98  1  0.77896487  0.76012082  0.73920624  1
  Te  Te99  1  0.09587175  0.25542992  0.27298668  1
  Te  Te100  1  0.08641627  0.24153760  0.59925865  1
  Te  Te101  1  0.07076226  0.27085801  0.90829664  1
  Te  Te102  1  0.06406658  0.59968895  0.21388596  1
  Te  Te103  1  0.09500907  0.58937633  0.58093273  1
  Te  Te104  1  0.06102531  0.57523157  0.95383551  1
  Te  Te105  1  0.05715871  0.91351086  0.20901362  1
  Te  Te106  1  0.10046976  0.88926634  0.58588336  1
  Te  Te107  1  0.06362253  0.92194450  0.92787521  1
  Te  Te108  1  0.41940950  0.25624057  0.26888187  1
  Te  Te109  1  0.44333740  0.23441649  0.60409588  1
  Te  Te110  1  0.43522408  0.24990575  0.91328344  1
  Te  Te111  1  0.41421932  0.62722041  0.22875912  1
  Te  Te112  1  0.43236492  0.56139445  0.56735399  1
  Te  Te113  1  0.40633244  0.60363290  0.93844926  1
  Te  Te114  1  0.42211121  0.91692999  0.20527586  1
  Te  Te115  1  0.47178289  0.94696569  0.63035195  1
  Te  Te116  1  0.42604507  0.89699551  0.94113233  1
  Te  Te117  1  0.76104728  0.28212238  0.26244618  1
  Te  Te118  1  0.74787751  0.22968001  0.61925364  1
  Te  Te119  1  0.74012278  0.27134262  0.86848334  1
  Te  Te120  1  0.75100638  0.60560587  0.27541175  1
  Te  Te121  1  0.77796675  0.58932621  0.57775257  1
  Te  Te122  1  0.77330367  0.59435393  0.89601014  1
  Te  Te123  1  0.76728619  0.90715363  0.27016857  1
  Te  Te124  1  0.71978063  0.92302574  0.59956656  1
  Te  Te125  1  0.72971561  0.92114590  0.93414942  1
  Te  Te126  1  0.27586851  0.25507571  0.09898963  1
  Te  Te127  1  0.25861883  0.26110031  0.42421554  1
  Te  Te128  1  0.26577547  0.24453855  0.73437873  1
  Te  Te129  1  0.22292990  0.56404671  0.03597959  1
  Te  Te130  1  0.27878415  0.62095566  0.39581706  1
  Te  Te131  1  0.24806483  0.58359636  0.77842175  1
  Te  Te132  1  0.24149725  0.93449016  0.05853531  1
  Te  Te133  1  0.25144641  0.88597176  0.39775044  1
  Te  Te134  1  0.25909823  0.92884863  0.74004417  1
  Te  Te135  1  0.60451612  0.23604566  0.07552943  1
  Te  Te136  1  0.60688153  0.24935475  0.42934598  1
  Te  Te137  1  0.55352780  0.21417206  0.70832754  1
  Te  Te138  1  0.59007755  0.60526023  0.10494510  1
  Te  Te139  1  0.57978980  0.57362003  0.39479978  1
  Te  Te140  1  0.60822784  0.58073845  0.74500840  1
  Te  Te141  1  0.60396727  0.95530427  0.05394534  1
  Te  Te142  1  0.53526491  0.89929308  0.40760127  1
  Te  Te143  1  0.57319829  0.87874450  0.76379523  1
  Te  Te144  1  0.87739499  0.25378372  0.06608115  1
  Te  Te145  1  0.93795743  0.25442494  0.43254001  1
  Te  Te146  1  0.89660619  0.22308997  0.77165178  1
  Te  Te147  1  0.88839678  0.61745964  0.10861062  1
  Te  Te148  1  0.92091643  0.60460822  0.39948085  1
  Te  Te149  1  0.93491574  0.59242105  0.73409706  1
  Te  Te150  1  0.93182075  0.89588581  0.09914436  1
  Te  Te151  1  0.94308231  0.88819055  0.41993784  1
  Te  Te152  1  0.90491330  0.92192757  0.75001341  1
  Te  Te153  1  0.25649249  0.09677701  0.23866198  1
  Te  Te154  1  0.24730908  0.06502280  0.55661936  1
  Te  Te155  1  0.23447885  0.10392518  0.90735181  1
  Te  Te156  1  0.24356443  0.45284825  0.24984194  1
  Te  Te157  1  0.27732709  0.40499281  0.58680379  1
  Te  Te158  1  0.22375713  0.43630912  0.94772479  1
  Te  Te159  1  0.22506640  0.74959247  0.23283417  1
  Te  Te160  1  0.29271461  0.75484483  0.58629700  1
  Te  Te161  1  0.23917073  0.76025078  0.92000283  1
  Te  Te162  1  0.58054953  0.07185104  0.25077727  1
  Te  Te163  1  0.54240622  0.05498191  0.54445631  1
  Te  Te164  1  0.58815187  0.09874482  0.88066089  1
  Te  Te165  1  0.57845731  0.41193022  0.23022733  1
  Te  Te166  1  0.61099468  0.40580438  0.59326593  1
  Te  Te167  1  0.56194855  0.42029122  0.92296725  1
  Te  Te168  1  0.56159359  0.79199415  0.22644521  1
  Te  Te169  1  0.55857511  0.73537789  0.58734854  1
  Te  Te170  1  0.58470489  0.74504299  0.93875928  1
  Te  Te171  1  0.91785214  0.10991728  0.24352053  1
  Te  Te172  1  0.90637336  0.07453560  0.56774756  1
  Te  Te173  1  0.88499215  0.06575726  0.93293336  1
  Te  Te174  1  0.95885439  0.45091610  0.21586307  1
  Te  Te175  1  0.92902960  0.40997400  0.59751685  1
  Te  Te176  1  0.90992864  0.41731841  0.91319334  1
  Te  Te177  1  0.97709993  0.79543442  0.29882138  1
  Te  Te178  1  0.91094729  0.78829181  0.55192872  1
  Te  Te179  1  0.91587824  0.74726425  0.90824747  1
