# generated using pymatgen
data_In2Te3
_symmetry_space_group_name_H-M   'P 1'
_cell_length_a   18.88053608
_cell_length_b   18.87261579
_cell_length_c   18.87249951
_cell_angle_alpha   89.96716588
_cell_angle_beta   90.12016697
_cell_angle_gamma   89.85009968
_symmetry_Int_Tables_number   1
_chemical_formula_structural   In2Te3
_chemical_formula_sum   'In72 Te108'
_cell_volume   6724.70641137
_cell_formula_units_Z   36
loop_
 _symmetry_equiv_pos_site_id
 _symmetry_equiv_pos_as_xyz
  1  'x, y, z'
loop_
 _atom_site_type_symbol
 _atom_site_label
 _atom_site_symmetry_multiplicity
 _atom_site_fract_x
 _atom_site_fract_y
 _atom_site_fract_z
 _atom_site_occupancy
  In  In0  1  0.84082045  0.50722167  0.66700757  1
  In  In1  1  0.65733958  0.65099053  0.32163217  1
  In  In2  1  0.01206421  0.47919855  0.82325563  1
  In  In3  1  0.82906778  0.65985031  0.48362569  1
  In  In4  1  0.32918296  0.50384789  0.17217573  1
  In  In5  1  0.16362419  0.68678259  0.18026679  1
  In  In6  1  0.82862467  0.01871881  0.47979196  1
  In  In7  1  0.70456219  0.66503874  -0.03995615  1
  In  In8  1  0.81808716  0.17807038  0.00916446  1
  In  In9  1  0.34599241  0.32507287  -0.03170038  1
  In  In10  1  0.16783843  0.02023644  0.17117339  1
  In  In11  1  0.33341778  0.65324043  0.67836241  1
  In  In12  1  0.51610516  0.83194514  0.02841279  1
  In  In13  1  -0.02076934  0.66617787  0.32715601  1
  In  In14  1  0.53718570  0.30859113  0.15658076  1
  In  In15  1  0.18876463  0.82865241  0.68643145  1
  In  In16  1  -0.02207687  0.34029638  0.32558989  1
  In  In17  1  0.19933794  0.30768706  0.79047938  1
  In  In18  1  0.48349528  0.46348949  0.36103348  1
  In  In19  1  0.81977450  0.83751490  0.00416218  1
  In  In20  1  -0.03283560  0.84290109  0.17152795  1
  In  In21  1  0.50314760  0.85758426  0.67388183  1
  In  In22  1  0.67893814  0.29988703  0.65026684  1
  In  In23  1  0.68651420  0.47884847  0.49514799  1
  In  In24  1  -0.02873183  0.85911915  0.51336054  1
  In  In25  1  0.30938759  0.66233909  0.35081624  1
  In  In26  1  -0.01740125  0.31626626  0.01007199  1
  In  In27  1  0.17535819  0.85104474  0.36483460  1
  In  In28  1  0.14006353  0.48326454  0.35729103  1
  In  In29  1  0.16374894  0.48302469  0.01076731  1
  In  In30  1  0.52821848  0.03694870  0.20195404  1
  In  In31  1  -0.05043376  0.64522832  0.02529079  1
  In  In32  1  -0.01420681  0.17760509  0.84316188  1
  In  In33  1  0.14476234  0.84126350  -0.01329109  1
  In  In34  1  0.14753037  0.62167862  0.48361089  1
  In  In35  1  0.82281811  0.16736230  0.31578489  1
  In  In36  1  0.33715790  0.17340782  0.16118120  1
  In  In37  1  0.50470975  0.87114074  0.34761924  1
  In  In38  1  0.35439337  0.16174743  0.50479556  1
  In  In39  1  0.15118914  0.67386580  0.84283068  1
  In  In40  1  0.00803048  0.45379579  0.49964708  1
  In  In41  1  0.51789770  0.64079824  0.84868006  1
  In  In42  1  0.68757674  0.49048908  0.15487541  1
  In  In43  1  0.65417899  0.31487045  0.35164992  1
  In  In44  1  0.81272854  0.00519533  0.84344331  1
  In  In45  1  -0.01652739  0.00909712  0.33685720  1
  In  In46  1  0.35499201  0.50381985  0.80908063  1
  In  In47  1  0.32356787  0.00786799  -0.00014553  1
  In  In48  1  0.70248904  0.85722810  0.18293416  1
  In  In49  1  0.52755991  0.03414026  0.84075424  1
  In  In50  1  0.38180560  0.85885579  0.16782934  1
  In  In51  1  0.50719335  0.47328356  0.66931098  1
  In  In52  1  0.80682860  0.80295097  0.68902614  1
  In  In53  1  0.00868119  0.85054931  0.85130419  1
  In  In54  1  0.84304612  0.16510949  0.63872667  1
  In  In55  1  0.15670609  0.02246001  0.49614928  1
  In  In56  1  0.00718725  0.00889285  0.68434350  1
  In  In57  1  0.52506682  0.30641913  0.83238545  1
  In  In58  1  0.51456015  0.66287876  0.16069394  1
  In  In59  1  0.49281435  0.48029767  -0.01324609  1
  In  In60  1  0.17796106  0.46263594  0.63267952  1
  In  In61  1  0.16070305  0.16531044  -0.00450594  1
  In  In62  1  0.32583194  0.84788118  0.52627036  1
  In  In63  1  0.83338386  0.35144169  0.82610951  1
  In  In64  1  0.13641280  0.31113363  0.18593352  1
  In  In65  1  0.33956117  0.86607195  0.82921624  1
  In  In66  1  0.49480735  0.67658563  0.52097701  1
  In  In67  1  0.65311128  0.03466935  0.62993708  1
  In  In68  1  0.33894936  0.01507435  0.65109638  1
  In  In69  1  0.65908867  0.32356032  -0.00407939  1
  In  In70  1  0.33802215  0.31592495  0.33980792  1
  In  In71  1  0.66220432  0.84741261  0.50407392  1
  Te  Te72  1  0.07293311  0.09536976  0.08902683  1
  Te  Te73  1  0.07298947  0.10546554  0.40429616  1
  Te  Te74  1  0.08062332  0.11968818  0.74479316  1
  Te  Te75  1  0.06341061  0.41776065  0.10319007  1
  Te  Te76  1  0.12192087  0.35893525  0.44185691  1
  Te  Te77  1  0.08387838  0.38474304  0.72649524  1
  Te  Te78  1  0.06553799  0.74876890  0.08098808  1
  Te  Te79  1  0.08041049  0.74515203  0.41984061  1
  Te  Te80  1  0.06991342  0.75564001  0.74338484  1
  Te  Te81  1  0.42589361  0.07491698  0.08786418  1
  Te  Te82  1  0.46968131  0.11079080  0.42388365  1
  Te  Te83  1  0.42570763  0.09168352  0.74699711  1
  Te  Te84  1  0.41681992  0.40428757  0.09512461  1
  Te  Te85  1  0.40559654  0.38041713  0.45874098  1
  Te  Te86  1  0.41422575  0.38154959  0.74756698  1
  Te  Te87  1  0.40861521  0.73742521  0.07931633  1
  Te  Te88  1  0.41234961  0.76181519  0.42197613  1
  Te  Te89  1  0.41826481  0.75521865  0.75189390  1
  Te  Te90  1  0.71456003  0.08788039  0.06472689  1
  Te  Te91  1  0.72016459  0.08766152  0.40101845  1
  Te  Te92  1  0.75066671  0.09337140  0.73497889  1
  Te  Te93  1  0.76227498  0.40156182  0.06574690  1
  Te  Te94  1  0.75351540  0.41902950  0.38042841  1
  Te  Te95  1  0.73403798  0.41689526  0.73306356  1
  Te  Te96  1  0.73859295  0.73990309  0.08787213  1
  Te  Te97  1  0.73440559  0.75215325  0.40804409  1
  Te  Te98  1  0.74776831  0.71568554  0.79290819  1
  Te  Te99  1  0.05700792  0.22449750  0.27437868  1
  Te  Te100  1  0.01373733  0.30377550  0.53942682  1
  Te  Te101  1  0.09394985  0.27528897  0.91118275  1
  Te  Te102  1  0.08386811  0.58273564  0.25263975  1
  Te  Te103  1  0.06938040  0.56481800  0.59628802  1
  Te  Te104  1  0.07109176  0.58251207  0.93477501  1
  Te  Te105  1  0.08433142  0.91173111  0.25781505  1
  Te  Te106  1  0.09796477  0.90789179  0.58268468  1
  Te  Te107  1  0.09345639  0.95490935  0.90939994  1
  Te  Te108  1  0.44016425  0.24133440  0.25165220  1
  Te  Te109  1  0.39490979  0.27341294  0.59382375  1
  Te  Te110  1  0.45008014  0.22889501  0.93481021  1
  Te  Te111  1  0.41780819  0.59118463  0.26112629  1
  Te  Te112  1  0.41250455  0.56491282  0.58470026  1
  Te  Te113  1  0.39913486  0.58790325  0.92717615  1
  Te  Te114  1  0.41123288  0.96461626  0.27187792  1
  Te  Te115  1  0.44174028  0.94025289  0.56386438  1
  Te  Te116  1  0.43994896  0.92639309  0.92612744  1
  Te  Te117  1  0.72501309  0.25038520  0.23451963  1
  Te  Te118  1  0.76646416  0.24720881  0.54124428  1
  Te  Te119  1  0.74619595  0.24756082  0.89283429  1
  Te  Te120  1  0.76392617  0.57994931  0.24729526  1
  Te  Te121  1  0.73978147  0.58968949  0.58453645  1
  Te  Te122  1  0.78906715  0.58621511  0.86958849  1
  Te  Te123  1  0.77974457  0.95718688  0.25544810  1
  Te  Te124  1  0.76260694  0.92472796  0.59080338  1
  Te  Te125  1  0.72684033  0.91099852  0.91456535  1
  Te  Te126  1  0.24684001  0.26929873  0.08002842  1
  Te  Te127  1  0.25715077  0.20585532  0.39767231  1
  Te  Te128  1  0.30181285  0.20337370  0.78098708  1
  Te  Te129  1  0.24152105  0.59265124  0.08540116  1
  Te  Te130  1  0.26550673  0.54321649  0.43118817  1
  Te  Te131  1  0.22397346  0.57406205  0.75053966  1
  Te  Te132  1  0.24766202  0.90934937  0.08597864  1
  Te  Te133  1  0.27174369  0.95079507  0.42485934  1
  Te  Te134  1  0.24021316  0.95201461  0.75500229  1
  Te  Te135  1  0.59196923  0.20393226  0.06181941  1
  Te  Te136  1  0.55731571  0.24037432  0.43503850  1
  Te  Te137  1  0.58314443  0.21744983  0.72860821  1
  Te  Te138  1  0.58939455  0.57442716  0.06200211  1
  Te  Te139  1  0.57081402  0.58020377  0.42713444  1
  Te  Te140  1  0.58445470  0.57979006  0.73508044  1
  Te  Te141  1  0.59487632  0.93420556  0.10701745  1
  Te  Te142  1  0.61306294  0.95075130  0.40845499  1
  Te  Te143  1  0.60493987  0.94064295  0.74642392  1
  Te  Te144  1  0.90817357  0.23961153  0.10883283  1
  Te  Te145  1  0.89255473  0.25398774  0.41603283  1
  Te  Te146  1  0.91501142  0.25948649  0.73674289  1
  Te  Te147  1  0.89646143  0.55736600  0.13057385  1
  Te  Te148  1  0.92391057  0.56045079  0.42077978  1
  Te  Te149  1  0.92146157  0.58435570  0.76665015  1
  Te  Te150  1  0.91288040  0.93165761  0.06932301  1
  Te  Te151  1  0.88928173  0.90179670  0.39550500  1
  Te  Te152  1  0.90572404  0.91414135  0.74591311  1
  Te  Te153  1  0.24796373  0.10643331  0.26080596  1
  Te  Te154  1  0.23315763  0.10914266  0.59264054  1
  Te  Te155  1  0.26736640  0.10870538  0.90487171  1
  Te  Te156  1  0.23960701  0.41123478  0.25338254  1
  Te  Te157  1  0.26488049  0.35819555  0.57907719  1
  Te  Te158  1  0.25023142  0.42346667  0.89962756  1
  Te  Te159  1  0.26459539  0.77471712  0.25598160  1
  Te  Te160  1  0.24337919  0.72820756  0.57627695  1
  Te  Te161  1  0.25359948  0.76478072  0.90872657  1
  Te  Te162  1  0.63769453  0.11674811  0.26587547  1
  Te  Te163  1  0.56748745  0.12834005  0.54902490  1
  Te  Te164  1  0.62373699  0.08821374  0.93805848  1
  Te  Te165  1  0.57570671  0.42937145  0.24652022  1
  Te  Te166  1  0.58620092  0.39255755  0.56752446  1
  Te  Te167  1  0.59780384  0.42644546  0.89432165  1
  Te  Te168  1  0.57481082  0.76886281  0.25409010  1
  Te  Te169  1  0.59382810  0.75544745  0.60542662  1
  Te  Te170  1  0.58718409  0.75731056  0.91582512  1
  Te  Te171  1  0.89141327  0.06328019  0.22909170  1
  Te  Te172  1  0.94333221  0.07819899  0.56365469  1
  Te  Te173  1  0.91254614  0.07962502  0.92972017  1
  Te  Te174  1  0.93378762  0.43675250  0.22386097  1
  Te  Te175  1  0.89112308  0.39573745  0.58027002  1
  Te  Te176  1  0.91476206  0.42710927  0.92963231  1
  Te  Te177  1  0.88633172  0.74705231  0.24673484  1
  Te  Te178  1  0.90573466  0.74433347  0.58716366  1
  Te  Te179  1  0.91664884  0.75253869  0.92025060  1
