# generated using pymatgen
data_In2Te3
_symmetry_space_group_name_H-M   'P 1'
_cell_length_a   18.85973573
_cell_length_b   18.86502067
_cell_length_c   18.86941544
_cell_angle_alpha   89.98322731
_cell_angle_beta   89.93402552
_cell_angle_gamma   89.86153565
_symmetry_Int_Tables_number   1
_chemical_formula_structural   In2Te3
_chemical_formula_sum   'In72 Te108'
_cell_volume   6713.51185565
_cell_formula_units_Z   36
loop_
 _symmetry_equiv_pos_site_id
 _symmetry_equiv_pos_as_xyz
  1  'x, y, z'
loop_
 _atom_site_type_symbol
 _atom_site_label
 _atom_site_symmetry_multiplicity
 _atom_site_fract_x
 _atom_site_fract_y
 _atom_site_fract_z
 _atom_site_occupancy
  In  In0  1  0.49304669  0.68183874  0.82992433  1
  In  In1  1  0.67864150  0.00597098  0.65594941  1
  In  In2  1  0.50472257  0.02792017  0.49825045  1
  In  In3  1  0.15500640  0.68790854  0.15876783  1
  In  In4  1  0.65325791  0.65243991  0.33919693  1
  In  In5  1  0.00197999  0.84385498  0.48476672  1
  In  In6  1  0.01734815  0.35660154  0.00450066  1
  In  In7  1  0.30802498  0.35672676  0.33029381  1
  In  In8  1  0.49652895  0.50955369  0.32861472  1
  In  In9  1  0.83710408  0.67481137  0.50458890  1
  In  In10  1  0.83841346  0.50399545  0.68486319  1
  In  In11  1  0.84812458  0.47657444  0.33918955  1
  In  In12  1  0.50631584  0.49359045  -0.01218730  1
  In  In13  1  0.48743430  -0.00133777  0.16291916  1
  In  In14  1  0.03530016  0.53111895  0.54119145  1
  In  In15  1  0.32098185  -0.02029255  0.00745325  1
  In  In16  1  0.34327953  0.32512914  0.65970909  1
  In  In17  1  0.51154685  0.33433758  0.52582834  1
  In  In18  1  0.66869898  0.64146093  0.68542688  1
  In  In19  1  0.17256506  0.17220858  0.31196055  1
  In  In20  1  0.87458150  0.83724280  0.31713185  1
  In  In21  1  0.17679042  0.33641151  0.49421530  1
  In  In22  1  0.68441007  0.31526726  0.33099254  1
  In  In23  1  0.84893249  0.30630491  0.15521230  1
  In  In24  1  0.32431469  0.33536941  -0.01231751  1
  In  In25  1  0.16647368  0.01005308  0.50742648  1
  In  In26  1  0.31911819  0.68643829  0.00132667  1
  In  In27  1  0.85936161  0.01624381  0.19538188  1
  In  In28  1  0.01101503  0.83639530  0.15351599  1
  In  In29  1  0.14745737  0.13615903  -0.00125341  1
  In  In30  1  0.48040802  0.81561103  0.69789031  1
  In  In31  1  0.46899889  0.65045472  0.51033353  1
  In  In32  1  0.83104638  0.81327883  0.00024194  1
  In  In33  1  0.03168909  0.49514469  0.81396361  1
  In  In34  1  0.32279825  0.83188898  0.51374529  1
  In  In35  1  -0.01190029  0.18889254  0.47683286  1
  In  In36  1  0.31291459  0.14116847  0.14649911  1
  In  In37  1  0.69025813  0.03589370  0.35224818  1
  In  In38  1  0.30914747  0.49036353  0.81950707  1
  In  In39  1  0.66592667  0.33315358  0.01563925  1
  In  In40  1  0.32976685  -0.00975243  0.67820077  1
  In  In41  1  -0.00741831  0.69323921  0.32485445  1
  In  In42  1  0.66914389  0.82897939  0.51394855  1
  In  In43  1  0.17256292  0.17477757  0.66720034  1
  In  In44  1  0.48322339  0.16232464  0.32381527  1
  In  In45  1  0.01163927  0.31663258  0.32168695  1
  In  In46  1  0.86235999  0.55472034  0.01678227  1
  In  In47  1  0.14823124  0.67233943  0.84741104  1
  In  In48  1  0.67558643  0.48091564  0.17300547  1
  In  In49  1  0.35758576  0.17473231  0.83383605  1
  In  In50  1  0.85354956  0.84997417  0.66360316  1
  In  In51  1  0.29515795  0.49956525  0.17885225  1
  In  In52  1  0.49084385  0.85438513  0.31643486  1
  In  In53  1  0.68186074  0.47825648  0.82863043  1
  In  In54  1  0.66560268  0.00108707  -0.01081483  1
  In  In55  1  0.15634879  0.83173628  0.31502144  1
  In  In56  1  0.17515962  0.81331514  0.69146889  1
  In  In57  1  0.49194107  0.31036062  0.13527127  1
  In  In58  1  0.85421583  0.67099775  0.84272500  1
  In  In59  1  0.48470740  -0.00546526  0.84558405  1
  In  In60  1  0.16438319  0.51295535  0.33387225  1
  In  In61  1  0.83455667  0.14365457  -0.01316098  1
  In  In62  1  0.65754918  0.81758043  0.85001736  1
  In  In63  1  0.47156121  0.65381995  0.15288201  1
  In  In64  1  0.84647645  0.33098995  0.50257618  1
  In  In65  1  0.65509421  0.17990536  0.78385739  1
  In  In66  1  0.84222217  0.33623338  0.83468809  1
  In  In67  1  0.67597295  0.83482742  0.15318030  1
  In  In68  1  0.31189043  0.50405120  0.51882885  1
  In  In69  1  0.00304317  0.15930502  0.83416901  1
  In  In70  1  -0.00383974  0.00103830  0.68872706  1
  In  In71  1  0.83850301  0.17307454  0.66142386  1
  Te  Te72  1  0.10863995  0.04378158  0.11655425  1
  Te  Te73  1  0.08356243  0.09090333  0.40969507  1
  Te  Te74  1  0.10872866  0.07301652  0.76031816  1
  Te  Te75  1  0.11349122  0.41608007  0.09669791  1
  Te  Te76  1  0.07093247  0.42245053  0.42390378  1
  Te  Te77  1  0.09538907  0.41440496  0.71106125  1
  Te  Te78  1  0.11564841  0.78688352  0.05136782  1
  Te  Te79  1  0.09588694  0.74049598  0.42452417  1
  Te  Te80  1  0.06185968  0.77819606  0.78224479  1
  Te  Te81  1  0.42291345  0.08778067  0.05804425  1
  Te  Te82  1  0.40561071  0.05981013  0.39544459  1
  Te  Te83  1  0.43420605  0.08567140  0.73493626  1
  Te  Te84  1  0.41106126  0.43498517  0.09600570  1
  Te  Te85  1  0.41084181  0.42145996  0.42197219  1
  Te  Te86  1  0.41514845  0.40878063  0.75703024  1
  Te  Te87  1  0.39465649  0.76760171  0.09965681  1
  Te  Te88  1  0.42001507  0.75987879  0.41827390  1
  Te  Te89  1  0.37621045  0.72944700  0.75307846  1
  Te  Te90  1  0.75390216  0.06934159  0.09181217  1
  Te  Te91  1  0.75570264  0.12914848  0.44237869  1
  Te  Te92  1  0.76761620  0.07838978  0.75719081  1
  Te  Te93  1  0.77510739  0.42391360  0.07070537  1
  Te  Te94  1  0.73973204  0.41792803  0.42850414  1
  Te  Te95  1  0.74776054  0.38588160  0.72445860  1
  Te  Te96  1  0.73743048  0.72647003  0.07540514  1
  Te  Te97  1  0.75189013  0.75286600  0.40347893  1
  Te  Te98  1  0.75668183  0.75283139  0.74062686  1
  Te  Te99  1  0.06122067  0.21716727  0.21834804  1
  Te  Te100  1  0.07828502  0.25595831  0.57903981  1
  Te  Te101  1  0.08788632  0.25768671  0.91094739  1
  Te  Te102  1  0.06738775  0.58730423  0.24128048  1
  Te  Te103  1  0.12670796  0.61539546  0.62116494  1
  Te  Te104  1  0.07207012  0.57530174  0.92957119  1
  Te  Te105  1  0.04894959  0.92275393  0.26902546  1
  Te  Te106  1  0.09027781  0.91229288  0.59552498  1
  Te  Te107  1  0.09244222  0.99205317  0.97496055  1
  Te  Te108  1  0.39088021  0.25942354  0.23788858  1
  Te  Te109  1  0.40737870  0.23697488  0.56103799  1
  Te  Te110  1  0.43472598  0.25818097  0.92894038  1
  Te  Te111  1  0.38655229  0.59064358  0.26343038  1
  Te  Te112  1  0.40956425  0.56392607  0.61148170  1
  Te  Te113  1  0.40076000  0.58076675  0.92097243  1
  Te  Te114  1  0.38693798  0.91365252  0.23030006  1
  Te  Te115  1  0.43529913  0.91122966  0.58548342  1
  Te  Te116  1  0.40968896  0.89622995  0.92283721  1
  Te  Te117  1  0.73136074  0.23812189  0.21374604  1
  Te  Te118  1  0.74505532  0.23308126  0.56020660  1
  Te  Te119  1  0.74706641  0.24353246  0.90860574  1
  Te  Te120  1  0.75826190  0.57444223  0.25981382  1
  Te  Te121  1  0.75137856  0.57261889  0.57780821  1
  Te  Te122  1  0.74910334  0.58552699  0.91339727  1
  Te  Te123  1  0.74639032  0.91846344  0.25921416  1
  Te  Te124  1  0.77302911  0.92968160  0.56137454  1
  Te  Te125  1  0.75919514  0.91367596  0.90733099  1
  Te  Te126  1  0.23311257  0.24568427  0.07266861  1
  Te  Te127  1  0.26295755  0.23924097  0.41677461  1
  Te  Te128  1  0.25103587  0.25973157  0.76460769  1
  Te  Te129  1  0.22931894  0.58392073  0.07318802  1
  Te  Te130  1  0.24713217  0.59486317  0.42209727  1
  Te  Te131  1  0.22143779  0.58847859  0.74294953  1
  Te  Te132  1  0.20048788  0.92428457  0.08290284  1
  Te  Te133  1  0.24280175  0.91587060  0.41635932  1
  Te  Te134  1  0.25654825  0.90634493  0.77227291  1
  Te  Te135  1  0.60135316  0.22279927  0.09015332  1
  Te  Te136  1  0.57315274  0.24889401  0.41030785  1
  Te  Te137  1  0.56572130  0.27381200  0.71392903  1
  Te  Te138  1  0.58777469  0.57363108  0.08868428  1
  Te  Te139  1  0.58034511  0.56757750  0.44174665  1
  Te  Te140  1  0.56894687  0.56424701  0.76577632  1
  Te  Te141  1  0.57353486  0.91114557  0.07029056  1
  Te  Te142  1  0.59285716  0.91973069  0.41724270  1
  Te  Te143  1  0.59304703  0.91433316  0.74646484  1
  Te  Te144  1  0.93675874  0.23338454  0.05564041  1
  Te  Te145  1  0.88573445  0.24678735  0.37693087  1
  Te  Te146  1  0.93460479  0.26096287  0.74115824  1
  Te  Te147  1  0.96255234  0.61234518  0.10396810  1
  Te  Te148  1  0.92713709  0.58451649  0.41898841  1
  Te  Te149  1  0.93953161  0.59989369  0.74011362  1
  Te  Te150  1  0.90533142  0.92230827  0.08448829  1
  Te  Te151  1  0.91400795  0.93937880  0.41438025  1
  Te  Te152  1  0.93278284  0.90105016  0.77820461  1
  Te  Te153  1  0.25514639  0.06177125  0.25613632  1
  Te  Te154  1  0.26964511  0.09247869  0.58222124  1
  Te  Te155  1  0.26365867  0.08260943  0.90923606  1
  Te  Te156  1  0.19435400  0.39106594  0.22937937  1
  Te  Te157  1  0.21849998  0.42181875  0.61453947  1
  Te  Te158  1  0.22761437  0.42538517  0.92417389  1
  Te  Te159  1  0.25663232  0.74769667  0.24691169  1
  Te  Te160  1  0.24324259  0.72891045  0.58652565  1
  Te  Te161  1  0.22830867  0.77582538  0.92339808  1
  Te  Te162  1  0.58709314  0.07810728  0.25001458  1
  Te  Te163  1  0.59470048  0.10455129  0.58471978  1
  Te  Te164  1  0.58896791  0.09318675  0.89567681  1
  Te  Te165  1  0.57057627  0.40099991  0.25028558  1
  Te  Te166  1  0.59147365  0.39972671  0.62907697  1
  Te  Te167  1  0.58037067  0.39064977  0.90377491  1
  Te  Te168  1  0.57421915  0.74160050  0.24371958  1
  Te  Te169  1  0.58045520  0.73694620  0.59658755  1
  Te  Te170  1  0.57180624  0.73997225  0.93898104  1
  Te  Te171  1  0.93451094  0.13027766  0.24729323  1
  Te  Te172  1  0.93431377  0.08604591  0.58080807  1
  Te  Te173  1  0.93217147  0.05701528  0.91598880  1
  Te  Te174  1  0.93177179  0.41032477  0.22997680  1
  Te  Te175  1  0.93026799  0.42839465  0.58684224  1
  Te  Te176  1  0.91511624  0.44137611  0.91424859  1
  Te  Te177  1  0.90121270  0.73440210  0.20508570  1
  Te  Te178  1  0.93932817  0.74845007  0.58747998  1
  Te  Te179  1  0.94450746  0.74733838  0.93053927  1
