# generated using pymatgen
data_In2Te3
_symmetry_space_group_name_H-M   'P 1'
_cell_length_a   19.00649934
_cell_length_b   18.99356560
_cell_length_c   18.98015391
_cell_angle_alpha   90.07923456
_cell_angle_beta   89.96760228
_cell_angle_gamma   90.22157600
_symmetry_Int_Tables_number   1
_chemical_formula_structural   In2Te3
_chemical_formula_sum   'In72 Te108'
_cell_volume   6851.79932401
_cell_formula_units_Z   36
loop_
 _symmetry_equiv_pos_site_id
 _symmetry_equiv_pos_as_xyz
  1  'x, y, z'
loop_
 _atom_site_type_symbol
 _atom_site_label
 _atom_site_symmetry_multiplicity
 _atom_site_fract_x
 _atom_site_fract_y
 _atom_site_fract_z
 _atom_site_occupancy
  In  In0  1  0.15141550  0.15643138  0.69168322  1
  In  In1  1  0.48726558  0.68169872  0.48442203  1
  In  In2  1  -0.00629714  0.35336763  0.33823064  1
  In  In3  1  0.03030060  0.15045671  0.52849938  1
  In  In4  1  0.15492463  0.65944718  0.82623942  1
  In  In5  1  0.34728817  0.82451599  0.85269076  1
  In  In6  1  0.49841486  0.52244845  0.31190712  1
  In  In7  1  0.50310412  0.84474581  -0.00211503  1
  In  In8  1  0.50300685  0.68789193  0.18038223  1
  In  In9  1  0.65241971  0.32711308  0.68726559  1
  In  In10  1  0.49586652  0.31309185  0.49965984  1
  In  In11  1  0.15903153  0.18535064  -0.00115097  1
  In  In12  1  0.65889598  0.84654085  0.82485422  1
  In  In13  1  0.85460625  -0.00684275  0.50444437  1
  In  In14  1  0.51594000  0.51662898  -0.01172010  1
  In  In15  1  0.48711220  0.66858744  0.80397186  1
  In  In16  1  0.65980962  0.00184007  0.01659602  1
  In  In17  1  -0.01545520  0.34340860  0.68129251  1
  In  In18  1  0.67951315  0.32169319  0.31653944  1
  In  In19  1  0.84335996  0.82232235  0.01880423  1
  In  In20  1  -0.02088951  0.01740718  -0.00224220  1
  In  In21  1  0.02829233  0.80274528  0.47355631  1
  In  In22  1  0.83722695  0.33629906  0.48470873  1
  In  In23  1  0.16326826  0.51981248  0.32169392  1
  In  In24  1  0.65071768  0.01758304  0.67905920  1
  In  In25  1  0.64062848  0.01885143  0.31629752  1
  In  In26  1  0.31506937  0.48919566  0.82982305  1
  In  In27  1  0.01084265  0.82964941  0.17381678  1
  In  In28  1  0.50449600  0.32813108  0.14701937  1
  In  In29  1  0.82482700  0.31608759  0.13737670  1
  In  In30  1  0.82141275  0.30448134  0.85283441  1
  In  In31  1  0.16103187  0.17481578  0.34539788  1
  In  In32  1  0.51263687  0.33699438  0.86847028  1
  In  In33  1  0.67418260  0.16325403  0.51349262  1
  In  In34  1  0.66389441  0.65925716  0.66371661  1
  In  In35  1  0.33890087  0.53223396  0.47160963  1
  In  In36  1  0.15865816  0.37158050  0.18269791  1
  In  In37  1  0.65377003  0.67019213  0.32133118  1
  In  In38  1  0.29849988  0.64708326  0.02324053  1
  In  In39  1  0.00437210  0.83975672  0.84506198  1
  In  In40  1  0.01723352  0.67885573  0.00318235  1
  In  In41  1  -0.01289063  0.51311588  0.82862491  1
  In  In42  1  0.81665094  0.83356636  0.66706308  1
  In  In43  1  0.81211225  0.85494552  0.32356313  1
  In  In44  1  0.86649903  0.65284474  0.49589808  1
  In  In45  1  0.34694185  0.17168518  0.15695464  1
  In  In46  1  0.33848631  -0.03572539  0.63231075  1
  In  In47  1  0.34717072  0.34954372  -0.00154794  1
  In  In48  1  -0.04151471  0.15730765  0.15775154  1
  In  In49  1  0.03472263  0.53000107  0.48016528  1
  In  In50  1  0.65102456  0.82179048  0.48517915  1
  In  In51  1  0.82391713  0.17316657  0.71963936  1
  In  In52  1  0.30773075  0.33309106  0.34179093  1
  In  In53  1  0.00891130  -0.02220634  0.67544946  1
  In  In54  1  0.81446785  0.66844254  0.17192066  1
  In  In55  1  -0.00380463  0.48668079  0.16398523  1
  In  In56  1  0.17822581  -0.01351007  0.87452396  1
  In  In57  1  0.84076500  0.50891275  0.67050208  1
  In  In58  1  0.49190842  0.13789222  0.00517786  1
  In  In59  1  0.20562981  0.81530401  0.64834650  1
  In  In60  1  0.50651566  0.49454383  0.64619036  1
  In  In61  1  0.31339400  0.34259030  0.67416444  1
  In  In62  1  0.33440498  0.83894972  0.18956049  1
  In  In63  1  0.16408250  0.50920654  0.64478094  1
  In  In64  1  0.81965717  0.48592803  0.00758899  1
  In  In65  1  0.33972398  0.08605939  0.45780293  1
  In  In66  1  0.31461525  0.14075430  0.81990867  1
  In  In67  1  0.20714064  -0.02818027  0.48387659  1
  In  In68  1  0.50981303  0.16604219  0.69427632  1
  In  In69  1  0.83323160  0.18744166  0.32138674  1
  In  In70  1  0.18526761  -0.01799266  0.16116380  1
  In  In71  1  0.68202782  0.66506631  0.00130887  1
  Te  Te72  1  0.08193181  0.08758145  0.09103751  1
  Te  Te73  1  0.09516361  0.06377907  0.42492990  1
  Te  Te74  1  0.07769806  0.05929405  0.78377923  1
  Te  Te75  1  0.06627288  0.39665261  0.06964268  1
  Te  Te76  1  0.10812861  0.41309683  0.41702188  1
  Te  Te77  1  0.08882499  0.42957840  0.75062303  1
  Te  Te78  1  0.10587421  0.74512510  0.09891246  1
  Te  Te79  1  0.11379787  0.73324118  0.37725404  1
  Te  Te80  1  0.09220672  0.76958614  0.74443084  1
  Te  Te81  1  0.43650511  0.05714508  0.11886898  1
  Te  Te82  1  0.44146600  0.08080212  0.34906503  1
  Te  Te83  1  0.40895110  0.06063954  0.73437255  1
  Te  Te84  1  0.42530287  0.44416223  0.08639524  1
  Te  Te85  1  0.42455275  0.41775363  0.41550183  1
  Te  Te86  1  0.43120270  0.40837145  0.75527927  1
  Te  Te87  1  0.41059669  0.74098873  0.07051063  1
  Te  Te88  1  0.38528594  0.78566458  0.44927698  1
  Te  Te89  1  0.39647152  0.75772528  0.73220950  1
  Te  Te90  1  0.77750414  0.08769412  0.05665512  1
  Te  Te91  1  0.76408466  0.08392079  0.42115502  1
  Te  Te92  1  0.74251353  0.06934842  0.78190488  1
  Te  Te93  1  0.72114200  0.40154000  0.07658804  1
  Te  Te94  1  0.75701021  0.41772528  0.39629580  1
  Te  Te95  1  0.76355642  0.40622165  0.75269527  1
  Te  Te96  1  0.72749154  0.76934801  0.10181280  1
  Te  Te97  1  0.76150937  0.74159813  0.42085352  1
  Te  Te98  1  0.74841513  0.73823771  0.76102449  1
  Te  Te99  1  0.07501769  0.25812750  0.25155338  1
  Te  Te100  1  0.09307767  0.26641531  0.60193027  1
  Te  Te101  1  0.06118711  0.21171705  0.89534320  1
  Te  Te102  1  0.10531570  0.58744131  0.19932425  1
  Te  Te103  1  0.07570706  0.61273791  0.59281876  1
  Te  Te104  1  0.08897823  0.56920721  0.92760745  1
  Te  Te105  1  0.09368304  0.91900205  0.25864226  1
  Te  Te106  1  0.09492126  0.90840621  0.57355040  1
  Te  Te107  1  0.07808669  0.90834432  0.95713184  1
  Te  Te108  1  0.41232507  0.26726856  0.25504413  1
  Te  Te109  1  0.41377499  0.24852129  0.60933379  1
  Te  Te110  1  0.40272239  0.23709517  0.90859353  1
  Te  Te111  1  0.40219390  0.61916266  0.26321489  1
  Te  Te112  1  0.41099727  0.59416983  0.58992347  1
  Te  Te113  1  0.40088356  0.58613905  0.91106197  1
  Te  Te114  1  0.40103874  0.94601069  0.27136917  1
  Te  Te115  1  0.41558191  0.92497557  0.51368347  1
  Te  Te116  1  0.43097755  0.93480504  0.90489307  1
  Te  Te117  1  0.73164137  0.22057073  0.21616144  1
  Te  Te118  1  0.76574156  0.25378437  0.59596335  1
  Te  Te119  1  0.77512769  0.21050083  0.95740472  1
  Te  Te120  1  0.73672188  0.57390536  0.25081660  1
  Te  Te121  1  0.75218150  0.57996471  0.57104449  1
  Te  Te122  1  0.76250095  0.58199935  0.91328912  1
  Te  Te123  1  0.74777340  0.95434469  0.23956854  1
  Te  Te124  1  0.73704296  0.92675756  0.57726011  1
  Te  Te125  1  0.74706362  0.90262253  0.93255364  1
  Te  Te126  1  0.24797749  0.27739425  0.09643310  1
  Te  Te127  1  0.26769456  0.22694785  0.43930727  1
  Te  Te128  1  0.23236309  0.25878288  0.77155263  1
  Te  Te129  1  0.22170955  0.55152232  0.10197051  1
  Te  Te130  1  0.23258118  0.61982974  0.41439243  1
  Te  Te131  1  0.25525433  0.59136015  0.73619953  1
  Te  Te132  1  0.27331363  0.90544392  0.07451094  1
  Te  Te133  1  0.27411666  0.92673960  0.35676554  1
  Te  Te134  1  0.24651008  0.92223217  0.75370995  1
  Te  Te135  1  0.57694312  0.25018097  0.04669122  1
  Te  Te136  1  0.59183505  0.23806420  0.41086536  1
  Te  Te137  1  0.60124931  0.23470327  0.79390229  1
  Te  Te138  1  0.58956594  0.59248582  0.09660488  1
  Te  Te139  1  0.58150809  0.58072611  0.42446691  1
  Te  Te140  1  0.58730768  0.56420824  0.75421172  1
  Te  Te141  1  0.57437412  0.91700439  0.10235182  1
  Te  Te142  1  0.57761449  0.92537140  0.41313901  1
  Te  Te143  1  0.56838110  0.90734592  0.72902094  1
  Te  Te144  1  0.94779280  0.27131570  0.06716419  1
  Te  Te145  1  0.94236098  0.23745175  0.43410734  1
  Te  Te146  1  0.95141347  0.23264390  0.78434366  1
  Te  Te147  1  0.91386331  0.59252538  0.08362378  1
  Te  Te148  1  0.93601403  0.58286855  0.38826042  1
  Te  Te149  1  0.93208131  0.60573643  0.73032164  1
  Te  Te150  1  0.91450775  0.92596356  0.10145343  1
  Te  Te151  1  0.92933460  0.90424309  0.41113982  1
  Te  Te152  1  0.90158150  0.91705556  0.76292396  1
  Te  Te153  1  0.24223071  0.10137391  0.24082297  1
  Te  Te154  1  0.24650720  0.08494388  0.59070961  1
  Te  Te155  1  0.26441993  0.08391964  0.95191721  1
  Te  Te156  1  0.27636103  0.44715777  0.24877824  1
  Te  Te157  1  0.26398131  0.42988463  0.56285946  1
  Te  Te158  1  0.23745563  0.40891191  0.92295248  1
  Te  Te159  1  0.22395978  0.79632750  0.28613416  1
  Te  Te160  1  0.25349035  0.75240300  0.52526895  1
  Te  Te161  1  0.23872947  0.74358230  0.92126079  1
  Te  Te162  1  0.54464530  0.09501549  0.23343598  1
  Te  Te163  1  0.56100572  0.08587079  0.57461431  1
  Te  Te164  1  0.56253851  0.04779571  0.91226120  1
  Te  Te165  1  0.58315345  0.41485562  0.24523327  1
  Te  Te166  1  0.59923246  0.40346816  0.56836396  1
  Te  Te167  1  0.61413237  0.42416355  0.92865593  1
  Te  Te168  1  0.57150229  0.77968116  0.27265735  1
  Te  Te169  1  0.57097742  0.75461141  0.59381938  1
  Te  Te170  1  0.57627766  0.73747246  0.90732542  1
  Te  Te171  1  0.92423862  0.08282062  0.27728532  1
  Te  Te172  1  0.91477741  0.08824448  0.60948955  1
  Te  Te173  1  0.86564087  0.08340077  0.92726760  1
  Te  Te174  1  0.89243991  0.40812961  0.24304702  1
  Te  Te175  1  0.92907975  0.42806630  0.56709749  1
  Te  Te176  1  0.91153338  0.41113625  0.91267826  1
  Te  Te177  1  0.90674666  0.75369732  0.25558359  1
  Te  Te178  1  0.92092020  0.76699569  0.58104455  1
  Te  Te179  1  0.91262438  0.73950790  0.91220781  1
