# generated using pymatgen
data_In2Te3
_symmetry_space_group_name_H-M   'P 1'
_cell_length_a   18.86130943
_cell_length_b   18.86947108
_cell_length_c   18.87018220
_cell_angle_alpha   89.86057131
_cell_angle_beta   89.99630851
_cell_angle_gamma   90.02483334
_symmetry_Int_Tables_number   1
_chemical_formula_structural   In2Te3
_chemical_formula_sum   'In72 Te108'
_cell_volume   6715.93265638
_cell_formula_units_Z   36
loop_
 _symmetry_equiv_pos_site_id
 _symmetry_equiv_pos_as_xyz
  1  'x, y, z'
loop_
 _atom_site_type_symbol
 _atom_site_label
 _atom_site_symmetry_multiplicity
 _atom_site_fract_x
 _atom_site_fract_y
 _atom_site_fract_z
 _atom_site_occupancy
  In  In0  1  0.32074065  0.66398994  -0.02077475  1
  In  In1  1  0.65837704  0.49224738  0.18000608  1
  In  In2  1  0.00530054  0.49676670  0.81778877  1
  In  In3  1  -0.00460700  0.81615283  0.48231615  1
  In  In4  1  0.67989121  0.18747354  0.14415646  1
  In  In5  1  0.65385847  0.50571272  0.50774671  1
  In  In6  1  0.18062407  0.19510797  0.33376601  1
  In  In7  1  0.65485476  -0.00956245  0.32998760  1
  In  In8  1  0.00695794  0.35016944  0.33741842  1
  In  In9  1  0.84544307  0.66936601  0.52453924  1
  In  In10  1  0.32883834  0.15737963  0.16115381  1
  In  In11  1  0.15313896  0.31680641  0.84031935  1
  In  In12  1  0.67096199  0.18354247  0.49306724  1
  In  In13  1  0.86455455  0.33089366  0.79442169  1
  In  In14  1  0.48607620  0.65990032  0.49881323  1
  In  In15  1  0.64272797  0.35637049  0.33059772  1
  In  In16  1  0.84335515  0.32429641  0.16683804  1
  In  In17  1  0.85018483  0.51812996  -0.01638923  1
  In  In18  1  0.68180193  0.82648302  0.82335701  1
  In  In19  1  0.19026747  0.34440215  0.16266626  1
  In  In20  1  0.82852194  -0.00438995  0.18612040  1
  In  In21  1  0.29517376  0.02304898  -0.03055969  1
  In  In22  1  0.84551475  0.16098132  -0.00315028  1
  In  In23  1  0.51511414  0.67689824  0.79916011  1
  In  In24  1  0.51872273  0.32185810  0.18113640  1
  In  In25  1  0.31598057  0.32108439  0.67023668  1
  In  In26  1  0.51986046  -0.01121300  0.83097116  1
  In  In27  1  0.00548306  0.65804744  0.32516650  1
  In  In28  1  0.33851781  0.30540140  -0.00465557  1
  In  In29  1  -0.01076131  0.84238017  0.84236545  1
  In  In30  1  0.48913952  0.48950489  0.00313414  1
  In  In31  1  0.66143097  0.33251687  -0.01752049  1
  In  In32  1  0.81073085  0.50944272  0.34371624  1
  In  In33  1  0.33022600  0.81368802  0.83073655  1
  In  In34  1  0.82763651  0.84435704  -0.01877656  1
  In  In35  1  0.33630470  0.83508175  0.50728408  1
  In  In36  1  0.00444600  0.16246054  0.51864229  1
  In  In37  1  0.67432635  0.14023307  0.82983597  1
  In  In38  1  0.49985555  0.17004086  0.66800615  1
  In  In39  1  0.86785093  0.36516484  0.54687895  1
  In  In40  1  0.01180579  0.01326927  -0.01876715  1
  In  In41  1  0.66166688  0.85357200  0.50367682  1
  In  In42  1  0.47811851  0.65831860  0.19543875  1
  In  In43  1  0.17636835  0.02753059  0.50734737  1
  In  In44  1  0.17589608  0.66985007  0.82246432  1
  In  In45  1  0.34475454  0.36744581  0.37364287  1
  In  In46  1  0.67669984  0.34564081  0.66043172  1
  In  In47  1  0.47657659  0.14878332  0.34425856  1
  In  In48  1  0.34056359  -0.01256112  0.34702065  1
  In  In49  1  0.32918633  -0.00138743  0.65641436  1
  In  In50  1  0.84836944  0.15075773  0.34418401  1
  In  In51  1  -0.00105257  0.00954893  0.68527367  1
  In  In52  1  0.48792206  0.33759317  0.84614512  1
  In  In53  1  0.14378814  0.33809344  0.51067258  1
  In  In54  1  0.50334275  0.84124267  0.02371233  1
  In  In55  1  -0.01021748  -0.01245240  0.32352692  1
  In  In56  1  0.69125746  0.65735077  -0.01129484  1
  In  In57  1  0.33041507  0.50586934  0.19762158  1
  In  In58  1  0.14966940  0.48938077  -0.00500748  1
  In  In59  1  0.64872208  0.70899267  0.33384787  1
  In  In60  1  0.33546005  0.64508412  0.66172943  1
  In  In61  1  0.16632099  0.83074062  0.65718801  1
  In  In62  1  0.00282718  0.82135563  0.16569324  1
  In  In63  1  0.15539608  -0.02277310  0.15096382  1
  In  In64  1  0.14136026  0.59101461  0.48402554  1
  In  In65  1  0.68018098  -0.00045945  0.66870198  1
  In  In66  1  0.32915778  0.49448212  0.80187018  1
  In  In67  1  0.84687273  0.68003046  0.14569107  1
  In  In68  1  0.68665371  0.66788453  0.67452100  1
  In  In69  1  0.48160908  0.00065779  0.18173482  1
  In  In70  1  0.18329967  0.69433871  0.19734250  1
  In  In71  1  0.00175590  0.16767724  0.83589584  1
  Te  Te72  1  0.08608864  0.08775852  0.08430631  1
  Te  Te73  1  0.08013343  0.09712590  0.39964118  1
  Te  Te74  1  0.10426671  0.07500787  0.77232599  1
  Te  Te75  1  0.07859134  0.42013134  0.10328647  1
  Te  Te76  1  0.07776330  0.44556853  0.42798890  1
  Te  Te77  1  0.09388662  0.40653456  0.73800902  1
  Te  Te78  1  0.09522485  0.73892521  0.08772836  1
  Te  Te79  1  0.10197255  0.72952719  0.41833805  1
  Te  Te80  1  0.07355932  0.74970212  0.74454506  1
  Te  Te81  1  0.40896997  0.07258875  0.06712610  1
  Te  Te82  1  0.40330970  0.07505509  0.44801539  1
  Te  Te83  1  0.42050011  0.07524744  0.75707092  1
  Te  Te84  1  0.40569105  0.40266574  0.09830044  1
  Te  Te85  1  0.43959180  0.44112683  0.45746096  1
  Te  Te86  1  0.43190685  0.41421184  0.72850503  1
  Te  Te87  1  0.40798793  0.73443292  0.08128064  1
  Te  Te88  1  0.41827932  0.75770906  0.41010976  1
  Te  Te89  1  0.41717364  0.76084966  0.71786130  1
  Te  Te90  1  0.75053680  0.07252257  0.07848701  1
  Te  Te91  1  0.74876068  0.07080942  0.42385969  1
  Te  Te92  1  0.77047122  0.10101772  0.72773809  1
  Te  Te93  1  0.74517568  0.41452015  0.08238516  1
  Te  Te94  1  0.75088613  0.40139997  0.43229063  1
  Te  Te95  1  0.76450464  0.42708891  0.74626286  1
  Te  Te96  1  0.73953342  0.76618753  0.08189354  1
  Te  Te97  1  0.75491357  0.75249553  0.42891781  1
  Te  Te98  1  0.78016763  0.72684675  0.77464190  1
  Te  Te99  1  0.08184101  0.26080504  0.24029721  1
  Te  Te100  1  0.09323941  0.23738959  0.61126309  1
  Te  Te101  1  0.05815376  0.26021182  0.93769160  1
  Te  Te102  1  0.09532136  0.58310007  0.23638207  1
  Te  Te103  1  0.04288657  0.59064694  0.59678857  1
  Te  Te104  1  0.07723655  0.59377907  0.91190886  1
  Te  Te105  1  0.09406503  0.89504480  0.26398234  1
  Te  Te106  1  0.08095708  0.92529618  0.57376951  1
  Te  Te107  1  0.09635984  0.91299661  0.91601674  1
  Te  Te108  1  0.39790538  0.25559014  0.25639889  1
  Te  Te109  1  0.41012023  0.24807790  0.58223892  1
  Te  Te110  1  0.42145211  0.22164743  0.90781505  1
  Te  Te111  1  0.37340117  0.61074982  0.29887077  1
  Te  Te112  1  0.39784057  0.55203396  0.55995536  1
  Te  Te113  1  0.42004875  0.58502247  0.89446460  1
  Te  Te114  1  0.38676199  0.89592173  0.23671704  1
  Te  Te115  1  0.42923360  0.92891093  0.57357816  1
  Te  Te116  1  0.41441453  0.90873001  0.91579816  1
  Te  Te117  1  0.74786533  0.25271928  0.26722669  1
  Te  Te118  1  0.77000478  0.25040207  0.58740009  1
  Te  Te119  1  0.76741960  0.25685121  0.90459262  1
  Te  Te120  1  0.74257258  0.60216849  0.24258769  1
  Te  Te121  1  0.76439592  0.56055678  0.59499123  1
  Te  Te122  1  0.76360090  0.58341152  0.88345575  1
  Te  Te123  1  0.74852119  0.89970303  0.26195142  1
  Te  Te124  1  0.76290045  0.89496501  0.60363036  1
  Te  Te125  1  0.73149649  0.93350037  0.91177990  1
  Te  Te126  1  0.23030592  0.22903708  0.06915345  1
  Te  Te127  1  0.26229537  0.25772055  0.44206069  1
  Te  Te128  1  0.26876340  0.23685301  0.78769850  1
  Te  Te129  1  0.25783717  0.56574397  0.07679915  1
  Te  Te130  1  0.25778676  0.57061769  0.39708004  1
  Te  Te131  1  0.21991947  0.56421717  0.72248419  1
  Te  Te132  1  0.26277926  0.92002876  0.06912935  1
  Te  Te133  1  0.23248094  0.91392871  0.42461033  1
  Te  Te134  1  0.24520627  0.91491925  0.75518183  1
  Te  Te135  1  0.56474163  0.24274379  0.05920565  1
  Te  Te136  1  0.56293185  0.25553855  0.41308949  1
  Te  Te137  1  0.59461428  0.25439590  0.76312916  1
  Te  Te138  1  0.58032190  0.58354290  0.08192772  1
  Te  Te139  1  0.58423825  0.58924190  0.40186064  1
  Te  Te140  1  0.57735223  0.57537840  0.71551710  1
  Te  Te141  1  0.58640763  0.92953461  0.10572603  1
  Te  Te142  1  0.56053518  0.91749119  0.41562496  1
  Te  Te143  1  0.58335377  0.89578974  0.73079904  1
  Te  Te144  1  0.93190972  0.24994126  0.07676266  1
  Te  Te145  1  0.91852275  0.26059912  0.42634376  1
  Te  Te146  1  0.95730496  0.24595380  0.71528975  1
  Te  Te147  1  0.93197173  0.57558323  0.08961217  1
  Te  Te148  1  0.91756921  0.57881146  0.42429916  1
  Te  Te149  1  0.93381435  0.57220940  0.70869649  1
  Te  Te150  1  0.92236367  0.92172733  0.08362713  1
  Te  Te151  1  0.90874401  0.92251682  0.42575291  1
  Te  Te152  1  0.90299354  0.91407066  0.74545659  1
  Te  Te153  1  0.24362994  0.07656967  0.25830869  1
  Te  Te154  1  0.24112740  0.10893583  0.60972573  1
  Te  Te155  1  0.21638580  0.10872772  0.87815399  1
  Te  Te156  1  0.23355765  0.42766206  0.28677753  1
  Te  Te157  1  0.23702784  0.41989858  0.59230193  1
  Te  Te158  1  0.26456991  0.41838662  0.91721064  1
  Te  Te159  1  0.29233263  0.77146911  0.25792330  1
  Te  Te160  1  0.24335792  0.73031300  0.57381691  1
  Te  Te161  1  0.22242484  0.76856752  0.93053418  1
  Te  Te162  1  0.58509216  0.10844497  0.24363802  1
  Te  Te163  1  0.59021299  0.08650251  0.57809711  1
  Te  Te164  1  0.59864967  0.06462732  0.93057534  1
  Te  Te165  1  0.53904349  0.44720908  0.26388980  1
  Te  Te166  1  0.57171388  0.39536648  0.56540437  1
  Te  Te167  1  0.59202768  0.44073628  0.90190076  1
  Te  Te168  1  0.56436326  0.77164119  0.23177301  1
  Te  Te169  1  0.59075387  0.73757699  0.57637837  1
  Te  Te170  1  0.57870878  0.74530944  0.92002901  1
  Te  Te171  1  0.93308748  0.09721618  0.23091868  1
  Te  Te172  1  0.91291191  0.06438106  0.57665331  1
  Te  Te173  1  0.90043863  0.06658726  0.89220900  1
  Te  Te174  1  0.90745605  0.43178085  0.25314955  1
  Te  Te175  1  0.97349930  0.44822660  0.61510007  1
  Te  Te176  1  0.92694872  0.40799412  0.91429565  1
  Te  Te177  1  0.90605947  0.75619050  0.26367370  1
  Te  Te178  1  0.91689760  0.77382204  0.60072346  1
  Te  Te179  1  0.91195549  0.74134275  0.92016566  1
