# generated using pymatgen
data_In2Te3
_symmetry_space_group_name_H-M   'P 1'
_cell_length_a   18.77676233
_cell_length_b   18.77591982
_cell_length_c   18.77610148
_cell_angle_alpha   90.04829461
_cell_angle_beta   89.99407828
_cell_angle_gamma   89.89353583
_symmetry_Int_Tables_number   1
_chemical_formula_structural   In2Te3
_chemical_formula_sum   'In72 Te108'
_cell_volume   6619.51923611
_cell_formula_units_Z   36
loop_
 _symmetry_equiv_pos_site_id
 _symmetry_equiv_pos_as_xyz
  1  'x, y, z'
loop_
 _atom_site_type_symbol
 _atom_site_label
 _atom_site_symmetry_multiplicity
 _atom_site_fract_x
 _atom_site_fract_y
 _atom_site_fract_z
 _atom_site_occupancy
  In  In0  1  0.66864322  0.67475569  0.33605442  1
  In  In1  1  0.83746769  0.67638960  0.82662166  1
  In  In2  1  0.17594279  0.34802844  0.50483077  1
  In  In3  1  0.49010459  0.17806117  0.65802168  1
  In  In4  1  0.50016545  0.65443199  0.81558498  1
  In  In5  1  0.02402852  0.51780644  0.83629173  1
  In  In6  1  0.33165747  0.81868774  0.18024047  1
  In  In7  1  0.65777112  0.50028246  0.83187488  1
  In  In8  1  0.31255628  0.39139910  -0.02580522  1
  In  In9  1  0.67202190  0.17660788  0.83079227  1
  In  In10  1  0.47256024  0.49793773  0.33642525  1
  In  In11  1  -0.01128747  -0.01430919  0.34610805  1
  In  In12  1  -0.01519461  -0.01607573  0.00676431  1
  In  In13  1  0.66236028  0.50830458  0.52563406  1
  In  In14  1  0.01132158  0.34528645  0.01268897  1
  In  In15  1  0.18575556  0.65490491  0.50078208  1
  In  In16  1  -0.01260275  0.00789706  0.66413505  1
  In  In17  1  0.33395103  -0.00634372  0.63987264  1
  In  In18  1  0.50214896  0.13920713  0.35130436  1
  In  In19  1  0.64289485  0.53572694  0.13512810  1
  In  In20  1  0.83780533  0.50543452  0.01560075  1
  In  In21  1  0.66870956  0.82007770  0.18289518  1
  In  In22  1  0.68435900  0.00807029  0.01686225  1
  In  In23  1  0.83387189  0.82837394  0.65174486  1
  In  In24  1  0.32592460  0.35646898  0.65875104  1
  In  In25  1  0.86359995  0.50085018  0.33922272  1
  In  In26  1  0.81637376  0.51805041  0.66252088  1
  In  In27  1  -0.00216708  0.51049721  0.16278694  1
  In  In28  1  0.68411162  0.16686912  0.16403642  1
  In  In29  1  0.84383902  0.00414066  0.82456598  1
  In  In30  1  0.14191174  0.33477492  0.16423109  1
  In  In31  1  0.68931856  -0.01401899  0.34463120  1
  In  In32  1  0.48851126  -0.04139426  0.19383964  1
  In  In33  1  0.18198756  0.66245507  0.82218360  1
  In  In34  1  0.00327317  0.17039810  0.18577824  1
  In  In35  1  0.00017560  0.35423965  0.68024953  1
  In  In36  1  0.32935577  0.18819592  0.80846513  1
  In  In37  1  0.49922118  0.35563741  0.52009436  1
  In  In38  1  0.33055515  0.00070164  0.00629385  1
  In  In39  1  0.14578226  0.00529248  0.84217928  1
  In  In40  1  0.47896069  0.33590972  0.15179341  1
  In  In41  1  0.53500097  -0.02304646  0.80989750  1
  In  In42  1  0.18472058  -0.00640801  0.49268195  1
  In  In43  1  0.16960662  0.00619809  0.19881145  1
  In  In44  1  0.13173549  0.80248888  0.03047163  1
  In  In45  1  0.83302859  0.31578460  0.83223911  1
  In  In46  1  0.17352637  0.83079629  0.33088363  1
  In  In47  1  0.84081555  0.81593517  0.00550841  1
  In  In48  1  0.34200852  0.80793557  0.80842140  1
  In  In49  1  0.48769553  0.81542810  -0.01379922  1
  In  In50  1  0.16378081  0.50658148  0.33524870  1
  In  In51  1  0.82737410  0.33672802  0.17498449  1
  In  In52  1  0.48924862  0.36886479  0.82695990  1
  In  In53  1  0.66476287  -0.02261112  0.68834478  1
  In  In54  1  0.34012120  0.33974512  0.35592016  1
  In  In55  1  -0.00911850  0.82825617  0.49869137  1
  In  In56  1  0.17471886  0.80811835  0.66847142  1
  In  In57  1  0.84167430  0.67119327  0.18140523  1
  In  In58  1  0.49638143  -0.02042403  0.48967946  1
  In  In59  1  0.33625263  0.51903383  0.16519960  1
  In  In60  1  0.00738989  0.16765210  0.83025754  1
  In  In61  1  0.65998408  0.81215469  0.49818222  1
  In  In62  1  0.65181602  0.82291167  0.82462814  1
  In  In63  1  0.49370066  0.17573395  0.01112592  1
  In  In64  1  0.30072077  0.16414610  0.18080739  1
  In  In65  1  0.83370648  0.31155952  0.50071939  1
  In  In66  1  0.32791432  0.65140660  -0.01147874  1
  In  In67  1  0.01477239  0.52635955  0.49575131  1
  In  In68  1  0.66931893  0.33694182  0.32068460  1
  In  In69  1  0.67748021  0.16159616  0.50166384  1
  In  In70  1  0.15197365  0.19543630  0.00666547  1
  In  In71  1  -0.00844788  0.16236065  0.50314125  1
  Te  Te72  1  0.09267828  0.07496778  0.07739604  1
  Te  Te73  1  0.08695309  0.08046440  0.41346768  1
  Te  Te74  1  0.09641363  0.09503125  0.72938306  1
  Te  Te75  1  0.10932376  0.44699274  0.06757814  1
  Te  Te76  1  0.07199024  0.41232897  0.41092906  1
  Te  Te77  1  0.10999911  0.43349610  0.74580543  1
  Te  Te78  1  0.05134854  0.73169763  0.13778076  1
  Te  Te79  1  0.08665222  0.74077404  0.41927011  1
  Te  Te80  1  0.07674629  0.74244167  0.75484238  1
  Te  Te81  1  0.42064282  0.07816697  0.10428318  1
  Te  Te82  1  0.39871706  0.07949757  0.43621137  1
  Te  Te83  1  0.42162052  0.07643505  0.75378325  1
  Te  Te84  1  0.42659498  0.44632704  0.06247028  1
  Te  Te85  1  0.39260289  0.44446172  0.45494423  1
  Te  Te86  1  0.40783427  0.45700579  0.73725933  1
  Te  Te87  1  0.42587877  0.72841171  0.09416117  1
  Te  Te88  1  0.44608650  0.72461235  0.46589727  1
  Te  Te89  1  0.39707567  0.70453619  0.71377027  1
  Te  Te90  1  0.78433408  0.07760384  0.09945327  1
  Te  Te91  1  0.77052127  0.08736018  0.41528077  1
  Te  Te92  1  0.75648975  0.09170163  0.73542836  1
  Te  Te93  1  0.73574455  0.41755824  0.08429193  1
  Te  Te94  1  0.74837497  0.42405817  0.41795509  1
  Te  Te95  1  0.74868443  0.40925688  0.74541793  1
  Te  Te96  1  0.74045308  0.73042516  0.08181243  1
  Te  Te97  1  0.76684513  0.75953483  0.40761700  1
  Te  Te98  1  0.73607807  0.73831253  0.72991345  1
  Te  Te99  1  0.11537222  0.22918071  0.26322642  1
  Te  Te100  1  0.07668187  0.26121810  0.58522701  1
  Te  Te101  1  0.08991978  0.27849481  0.89649370  1
  Te  Te102  1  0.07505186  0.59829547  0.25505221  1
  Te  Te103  1  0.10901065  0.57374517  0.60109048  1
  Te  Te104  1  0.10092816  0.60002826  0.93172376  1
  Te  Te105  1  0.06864810  0.90306745  0.24240929  1
  Te  Te106  1  0.08823626  0.91610230  0.58838058  1
  Te  Te107  1  0.07365083  0.89573475  0.91891134  1
  Te  Te108  1  0.42360466  0.24155152  0.25727655  1
  Te  Te109  1  0.39745726  0.25017903  0.56448459  1
  Te  Te110  1  0.40895417  0.26338732  0.91810737  1
  Te  Te111  1  0.40322368  0.60812615  0.26477437  1
  Te  Te112  1  0.42266186  0.62209458  0.56727409  1
  Te  Te113  1  0.41871533  0.56711880  0.90593066  1
  Te  Te114  1  0.39244933  0.90145927  0.29025483  1
  Te  Te115  1  0.42004748  0.88927714  0.58048126  1
  Te  Te116  1  0.41393326  0.92168017  0.90294573  1
  Te  Te117  1  0.76981424  0.23327383  0.27292267  1
  Te  Te118  1  0.72734291  0.26668945  0.59209520  1
  Te  Te119  1  0.75580576  0.24113886  0.93305284  1
  Te  Te120  1  0.75522304  0.56095775  0.24503372  1
  Te  Te121  1  0.76383497  0.61107610  0.56003497  1
  Te  Te122  1  0.75318563  0.58611587  0.91736027  1
  Te  Te123  1  0.76691682  0.91365672  0.24029751  1
  Te  Te124  1  0.74399267  0.92190144  0.57144088  1
  Te  Te125  1  0.74606950  0.91440164  0.90504537  1
  Te  Te126  1  0.26799694  0.26983185  0.07449379  1
  Te  Te127  1  0.23936968  0.24920073  0.41202795  1
  Te  Te128  1  0.23222046  0.26932701  0.73576497  1
  Te  Te129  1  0.23228081  0.58777019  0.08259673  1
  Te  Te130  1  0.27113647  0.58646714  0.39833230  1
  Te  Te131  1  0.28435240  0.56661685  0.76980311  1
  Te  Te132  1  0.24002849  0.91014174  0.08885828  1
  Te  Te133  1  0.27086441  0.89118875  0.42698560  1
  Te  Te134  1  0.24636988  0.92468069  0.75757668  1
  Te  Te135  1  0.59618396  0.26291248  0.08291481  1
  Te  Te136  1  0.57686570  0.26264540  0.41926299  1
  Te  Te137  1  0.57538800  0.26332768  0.74975604  1
  Te  Te138  1  0.54919793  0.62320400  0.06654213  1
  Te  Te139  1  0.58280976  0.57295961  0.41212366  1
  Te  Te140  1  0.59262395  0.57997321  0.72309109  1
  Te  Te141  1  0.57706661  0.91195305  0.07169174  1
  Te  Te142  1  0.57902156  0.89394889  0.39458338  1
  Te  Te143  1  0.55863911  0.86430432  0.71018597  1
  Te  Te144  1  0.91840874  0.25046848  0.08448114  1
  Te  Te145  1  0.92487987  0.25102988  0.40344383  1
  Te  Te146  1  0.91409269  0.23627069  0.73020851  1
  Te  Te147  1  0.93401070  0.61011809  0.06442652  1
  Te  Te148  1  0.91923697  0.61131635  0.41895068  1
  Te  Te149  1  0.92832383  0.58858144  0.73926766  1
  Te  Te150  1  0.90118604  0.90918165  0.10301450  1
  Te  Te151  1  0.88908507  0.90213551  0.41991026  1
  Te  Te152  1  0.92660500  0.89912455  0.75351770  1
  Te  Te153  1  0.27362496  0.06477680  0.28584789  1
  Te  Te154  1  0.24195129  0.09431170  0.58653615  1
  Te  Te155  1  0.24773259  0.09775187  0.91820600  1
  Te  Te156  1  0.25842138  0.40811626  0.24298532  1
  Te  Te157  1  0.24198719  0.45684348  0.58287436  1
  Te  Te158  1  0.23504559  0.45102958  0.86160606  1
  Te  Te159  1  0.24315592  0.72441940  0.25144265  1
  Te  Te160  1  0.27567919  0.74851954  0.57771250  1
  Te  Te161  1  0.25288315  0.77270526  0.92847629  1
  Te  Te162  1  0.58959494  0.07282511  0.24284356  1
  Te  Te163  1  0.57975681  0.07227455  0.59065752  1
  Te  Te164  1  0.57881941  0.08224589  0.92215307  1
  Te  Te165  1  0.57324290  0.42615607  0.24071246  1
  Te  Te166  1  0.56595013  0.44364273  0.62061289  1
  Te  Te167  1  0.58671035  0.41317135  0.92783855  1
  Te  Te168  1  0.56513348  0.74749258  0.25821560  1
  Te  Te169  1  0.56325853  0.71135452  0.55787687  1
  Te  Te170  1  0.59320159  0.72395194  0.92500025  1
  Te  Te171  1  0.91512774  0.06960283  0.24535711  1
  Te  Te172  1  0.89317084  0.07617785  0.57418346  1
  Te  Te173  1  0.91341503  0.09454875  0.92568867  1
  Te  Te174  1  0.94142447  0.39981592  0.25318151  1
  Te  Te175  1  0.91428009  0.42849468  0.57599163  1
  Te  Te176  1  0.91712284  0.42189476  0.91099745  1
  Te  Te177  1  0.94454896  0.75434001  0.24554202  1
  Te  Te178  1  0.92049009  0.72850745  0.58421990  1
  Te  Te179  1  0.93386455  0.74740062  0.91411777  1
