# generated using pymatgen
data_In2Te3
_symmetry_space_group_name_H-M   'P 1'
_cell_length_a   18.97523886
_cell_length_b   18.96626354
_cell_length_c   18.96604989
_cell_angle_alpha   90.01973304
_cell_angle_beta   89.89456899
_cell_angle_gamma   90.02771736
_symmetry_Int_Tables_number   1
_chemical_formula_structural   In2Te3
_chemical_formula_sum   'In72 Te108'
_cell_volume   6825.66719747
_cell_formula_units_Z   36
loop_
 _symmetry_equiv_pos_site_id
 _symmetry_equiv_pos_as_xyz
  1  'x, y, z'
loop_
 _atom_site_type_symbol
 _atom_site_label
 _atom_site_symmetry_multiplicity
 _atom_site_fract_x
 _atom_site_fract_y
 _atom_site_fract_z
 _atom_site_occupancy
  In  In0  1  0.16665650  0.83726955  0.68585809  1
  In  In1  1  0.82956728  0.32077395  0.84210080  1
  In  In2  1  0.00443026  0.16031474  0.16565559  1
  In  In3  1  0.84511270  0.32017953  0.50490212  1
  In  In4  1  0.83368314  -0.00723143  0.13542422  1
  In  In5  1  -0.01560633  0.50125356  0.82959187  1
  In  In6  1  0.02315318  0.02909172  -0.00029042  1
  In  In7  1  0.17794914  0.49163125  0.65222303  1
  In  In8  1  0.32316823  0.87482057  0.86300301  1
  In  In9  1  0.48985132  0.31528902  0.50777533  1
  In  In10  1  0.82956231  0.83730219  0.34438598  1
  In  In11  1  -0.00554761  0.67559920  0.32658804  1
  In  In12  1  0.35204097  0.85790341  0.50785744  1
  In  In13  1  0.00367626  0.50985783  0.50360645  1
  In  In14  1  0.13800639  0.49898767  0.33548491  1
  In  In15  1  0.82434582  0.65291533  0.15741486  1
  In  In16  1  0.34731953  0.14836813  0.83362601  1
  In  In17  1  0.49789823  0.85532675  0.31735272  1
  In  In18  1  -0.00125544  0.49975658  0.15715240  1
  In  In19  1  0.63907457  0.31919697  0.02552667  1
  In  In20  1  0.34953681  0.32200305  0.00969854  1
  In  In21  1  0.67270363  0.81226409  0.52755531  1
  In  In22  1  0.68699792  0.02695838  0.35896536  1
  In  In23  1  0.18210351  0.01213267  0.84737288  1
  In  In24  1  0.67252894  -0.00434172  -0.00884581  1
  In  In25  1  0.30857307  0.47269725  0.47037587  1
  In  In26  1  0.49165524  0.51518495  0.66361271  1
  In  In27  1  0.15579075  0.50208373  0.00625495  1
  In  In28  1  0.35410704  0.30619888  0.32538521  1
  In  In29  1  -0.00750211  0.81675890  0.81556695  1
  In  In30  1  0.15098616  0.29921865  0.87340907  1
  In  In31  1  0.67051743  0.48535206  0.17487087  1
  In  In32  1  0.79058104  0.50278857  0.75173778  1
  In  In33  1  0.84434544  0.66944756  0.50806726  1
  In  In34  1  0.67572585  0.67585101  0.68175684  1
  In  In35  1  0.34292930  0.48860133  0.15128907  1
  In  In36  1  0.83334928  0.17522375  0.67331634  1
  In  In37  1  0.17369817  0.81716808  0.34844306  1
  In  In38  1  0.32314439  0.65423884  0.32845067  1
  In  In39  1  0.67605506  0.31477944  0.30779571  1
  In  In40  1  0.82887431  0.32373765  0.15849694  1
  In  In41  1  0.17426284  0.16993981  0.67388734  1
  In  In42  1  0.82376446  0.85059984  0.68683537  1
  In  In43  1  0.00779107  0.00271368  0.67545304  1
  In  In44  1  0.50597433  0.64053131  0.47457488  1
  In  In45  1  0.66539106  0.48361443  0.48660326  1
  In  In46  1  -0.02381629  0.33678040  0.34456645  1
  In  In47  1  0.17983164  0.85324807  0.01453277  1
  In  In48  1  0.49926826  0.67465626  0.83184145  1
  In  In49  1  0.33018913  0.66493395  -0.01691867  1
  In  In50  1  0.31097593  0.04386574  0.29500592  1
  In  In51  1  0.52194632  0.33241957  0.82573072  1
  In  In52  1  0.47599494  0.02156093  0.16248878  1
  In  In53  1  0.00168705  0.34966590  0.67153982  1
  In  In54  1  0.15609357  0.00756215  0.49564879  1
  In  In55  1  -0.00397820  -0.01667104  0.34518995  1
  In  In56  1  0.50449160  0.17872863  0.31694976  1
  In  In57  1  0.48176732  0.85420970  -0.00786340  1
  In  In58  1  0.67288085  0.01191365  0.68998014  1
  In  In59  1  0.00238271  0.86489786  0.14901100  1
  In  In60  1  0.33323479  0.67831431  0.66521797  1
  In  In61  1  0.52240352  0.85219283  0.68711441  1
  In  In62  1  -0.00438380  0.17022081  0.49116980  1
  In  In63  1  0.68680650  0.64846388  -0.02067475  1
  In  In64  1  0.34123164  0.16078345  0.48230952  1
  In  In65  1  -0.00254338  0.68342364  -0.00571634  1
  In  In66  1  0.16378955  0.35123470  0.16104436  1
  In  In67  1  0.34613096  0.49887080  0.83278119  1
  In  In68  1  0.49111800  0.67433081  0.15425105  1
  In  In69  1  0.67209633  0.81520880  0.15966097  1
  In  In70  1  0.64398184  0.15860693  0.84154115  1
  In  In71  1  0.53638887  0.02322271  0.50630224  1
  Te  Te72  1  0.11056161  0.06481080  0.11563188  1
  Te  Te73  1  0.08751901  0.09693812  0.39520831  1
  Te  Te74  1  0.08221587  0.09560802  0.76841693  1
  Te  Te75  1  0.05946734  0.39847158  0.06140966  1
  Te  Te76  1  0.08130212  0.39915915  0.43398544  1
  Te  Te77  1  0.10186388  0.40841891  0.76996538  1
  Te  Te78  1  0.09121794  0.75653964  0.09044085  1
  Te  Te79  1  0.06649638  0.75460721  0.42522457  1
  Te  Te80  1  0.08510273  0.73069803  0.74130487  1
  Te  Te81  1  0.38507704  0.06973282  0.05841333  1
  Te  Te82  1  0.43360723  0.06641502  0.40132581  1
  Te  Te83  1  0.43613065  0.05384345  0.76791352  1
  Te  Te84  1  0.44138305  0.42080454  0.06813459  1
  Te  Te85  1  0.43007568  0.41065358  0.40476667  1
  Te  Te86  1  0.41507570  0.40771862  0.73686741  1
  Te  Te87  1  0.39492692  0.76362858  0.07890948  1
  Te  Te88  1  0.41804864  0.75578347  0.41289959  1
  Te  Te89  1  0.40561063  0.77262315  0.76236139  1
  Te  Te90  1  0.74676214  0.09287405  0.07396932  1
  Te  Te91  1  0.77885037  0.10995667  0.42991383  1
  Te  Te92  1  0.76727863  0.08939986  0.77915678  1
  Te  Te93  1  0.75239515  0.41741784  0.06806136  1
  Te  Te94  1  0.75963159  0.39833815  0.40520007  1
  Te  Te95  1  0.73709487  0.36838278  0.73471167  1
  Te  Te96  1  0.76628189  0.75444912  0.06053250  1
  Te  Te97  1  0.74125517  0.73667891  0.41583097  1
  Te  Te98  1  0.73327549  0.77267437  0.77803904  1
  Te  Te99  1  0.07291980  0.26772682  0.25114578  1
  Te  Te100  1  0.08258912  0.25200890  0.58516917  1
  Te  Te101  1  0.07649334  0.19313706  0.94419743  1
  Te  Te102  1  0.08603260  0.59693866  0.23298171  1
  Te  Te103  1  0.08683257  0.58903664  0.59366717  1
  Te  Te104  1  0.08456660  0.59075916  0.90993196  1
  Te  Te105  1  0.09737688  0.91474371  0.25558508  1
  Te  Te106  1  0.07978098  0.90945154  0.58167006  1
  Te  Te107  1  0.08535833  0.91187524  0.90946787  1
  Te  Te108  1  0.41779989  0.23692765  0.20852320  1
  Te  Te109  1  0.41533098  0.22194403  0.59195292  1
  Te  Te110  1  0.43557439  0.24214623  0.91592181  1
  Te  Te111  1  0.42398806  0.57504356  0.24792922  1
  Te  Te112  1  0.39226974  0.57762870  0.56485389  1
  Te  Te113  1  0.43719163  0.57312730  0.92780634  1
  Te  Te114  1  0.38912970  0.92152565  0.23850321  1
  Te  Te115  1  0.44113101  0.94329221  0.59630387  1
  Te  Te116  1  0.44539078  0.96262098  0.88720698  1
  Te  Te117  1  0.74597829  0.21942633  0.22048443  1
  Te  Te118  1  0.74374077  0.26381315  0.59587604  1
  Te  Te119  1  0.73300739  0.24388392  0.93098688  1
  Te  Te120  1  0.74768470  0.58047769  0.25717460  1
  Te  Te121  1  0.73779303  0.58404215  0.57862418  1
  Te  Te122  1  0.77191553  0.57347968  0.88651161  1
  Te  Te123  1  0.74555383  0.91827605  0.24698139  1
  Te  Te124  1  0.74622330  0.93022131  0.58160801  1
  Te  Te125  1  0.72462439  0.89981082  0.89337057  1
  Te  Te126  1  0.24480958  0.25019373  0.08835412  1
  Te  Te127  1  0.24900137  0.23812243  0.39921540  1
  Te  Te128  1  0.25324530  0.25459849  0.77088683  1
  Te  Te129  1  0.24914730  0.58917793  0.08734777  1
  Te  Te130  1  0.22331215  0.58926660  0.42283561  1
  Te  Te131  1  0.25290910  0.58725713  0.75407701  1
  Te  Te132  1  0.27813948  0.95769602  0.05148076  1
  Te  Te133  1  0.26277147  0.93665163  0.41193243  1
  Te  Te134  1  0.26240099  0.94090266  0.74025093  1
  Te  Te135  1  0.55249106  0.25690193  0.12984591  1
  Te  Te136  1  0.59157640  0.24514580  0.41863729  1
  Te  Te137  1  0.56538857  0.22383336  0.73376608  1
  Te  Te138  1  0.59683304  0.58895972  0.08712398  1
  Te  Te139  1  0.59033745  0.56170126  0.38667989  1
  Te  Te140  1  0.58947191  0.57589511  0.76124644  1
  Te  Te141  1  0.57454076  0.91505833  0.09916526  1
  Te  Te142  1  0.59654968  0.90373470  0.42372954  1
  Te  Te143  1  0.61122199  0.91600323  0.79010067  1
  Te  Te144  1  0.91652515  0.23650635  0.07167696  1
  Te  Te145  1  0.88605475  0.21666403  0.38980040  1
  Te  Te146  1  0.93623205  0.24636551  0.75882644  1
  Te  Te147  1  0.91085577  0.57525660  0.06102501  1
  Te  Te148  1  0.91080374  0.57682589  0.40499701  1
  Te  Te149  1  0.90410612  0.59391490  0.74742699  1
  Te  Te150  1  0.91776448  0.91761757  0.03605925  1
  Te  Te151  1  0.91420440  0.90712876  0.43956055  1
  Te  Te152  1  0.91268233  0.94007574  0.77420207  1
  Te  Te153  1  0.23339111  0.12022225  0.19752280  1
  Te  Te154  1  0.25457584  0.07882736  0.58500581  1
  Te  Te155  1  0.26406804  0.08824204  0.94828220  1
  Te  Te156  1  0.25078944  0.42642363  0.26186593  1
  Te  Te157  1  0.25651743  0.39243923  0.57973892  1
  Te  Te158  1  0.25312404  0.41616559  0.92440012  1
  Te  Te159  1  0.25529268  0.75231136  0.24514713  1
  Te  Te160  1  0.25190660  0.76591725  0.57361206  1
  Te  Te161  1  0.23850223  0.75695387  0.90683572  1
  Te  Te162  1  0.59318893  0.07270757  0.25248017  1
  Te  Te163  1  0.60272420  0.11107582  0.60428887  1
  Te  Te164  1  0.56697296  0.08939840  0.94788808  1
  Te  Te165  1  0.57118724  0.38495468  0.22694984  1
  Te  Te166  1  0.57570022  0.41527160  0.58726220  1
  Te  Te167  1  0.59383730  0.41380853  0.92284357  1
  Te  Te168  1  0.58088947  0.74331570  0.25692134  1
  Te  Te169  1  0.55361575  0.73252811  0.59353845  1
  Te  Te170  1  0.57666100  0.74936031  0.93667035  1
  Te  Te171  1  0.91601459  0.06255720  0.24180096  1
  Te  Te172  1  0.91596912  0.08184478  0.58448911  1
  Te  Te173  1  0.93296601  0.13390523  0.94886796  1
  Te  Te174  1  0.90278115  0.42522883  0.24684865  1
  Te  Te175  1  0.90520777  0.43109269  0.58949844  1
  Te  Te176  1  0.93000243  0.39768195  0.91745919  1
  Te  Te177  1  0.91296878  0.76676429  0.23013262  1
  Te  Te178  1  0.90496353  0.75861756  0.60596825  1
  Te  Te179  1  0.90107941  0.73727243  0.89819309  1
