# generated using pymatgen
data_In2Te3
_symmetry_space_group_name_H-M   'P 1'
_cell_length_a   18.78346391
_cell_length_b   18.78278422
_cell_length_c   18.78636173
_cell_angle_alpha   90.10280201
_cell_angle_beta   89.99932294
_cell_angle_gamma   90.00333810
_symmetry_Int_Tables_number   1
_chemical_formula_structural   In2Te3
_chemical_formula_sum   'In72 Te108'
_cell_volume   6627.92575181
_cell_formula_units_Z   36
loop_
 _symmetry_equiv_pos_site_id
 _symmetry_equiv_pos_as_xyz
  1  'x, y, z'
loop_
 _atom_site_type_symbol
 _atom_site_label
 _atom_site_symmetry_multiplicity
 _atom_site_fract_x
 _atom_site_fract_y
 _atom_site_fract_z
 _atom_site_occupancy
  In  In0  1  0.32873541  -0.01584980  0.34816215  1
  In  In1  1  0.50342197  0.00191764  0.51637815  1
  In  In2  1  0.17287230  0.17421853  0.00851368  1
  In  In3  1  0.15006216  0.51473099  0.67805733  1
  In  In4  1  0.81115625  0.50670513  -0.00816135  1
  In  In5  1  0.67655606  0.66554886  -0.03099906  1
  In  In6  1  -0.01840580  0.49972132  0.17767372  1
  In  In7  1  0.00500129  0.69335838  -0.02452781  1
  In  In8  1  0.00809743  0.34903389  0.33096794  1
  In  In9  1  0.49424281  0.82745019  0.68299969  1
  In  In10  1  0.13936933  0.66026453  0.13596482  1
  In  In11  1  0.84494708  0.83902975  -0.01294747  1
  In  In12  1  0.33011388  0.52299457  0.51896693  1
  In  In13  1  0.51906571  0.49324066  0.33862727  1
  In  In14  1  0.30107845  -0.00244446  0.67500846  1
  In  In15  1  0.84321791  0.35168415  0.49939367  1
  In  In16  1  0.84780168  0.82313189  0.33660883  1
  In  In17  1  0.65121187  0.83557308  0.16384424  1
  In  In18  1  0.47438954  0.50845267  -0.00846783  1
  In  In19  1  0.14920143  0.82264190  0.68226733  1
  In  In20  1  0.49663967  0.66877659  0.48331403  1
  In  In21  1  0.84684869  0.49803832  0.66473629  1
  In  In22  1  0.33897488  -0.00530154  -0.01506491  1
  In  In23  1  0.31233423  0.69097660  -0.02554059  1
  In  In24  1  0.18586161  0.48189369  -0.01821717  1
  In  In25  1  -0.01046165  -0.00460782  0.34183875  1
  In  In26  1  0.32711850  0.16797838  0.82599944  1
  In  In27  1  0.32853672  0.65904968  0.35151070  1
  In  In28  1  0.49961448  0.17752103  -0.01885175  1
  In  In29  1  0.00170535  -0.02223594  0.67948767  1
  In  In30  1  0.66744389  0.33129052  -0.00778225  1
  In  In31  1  0.69322750  0.82320293  0.50079567  1
  In  In32  1  0.86778368  0.81049463  0.65929393  1
  In  In33  1  0.16588560  0.16438644  0.66672576  1
  In  In34  1  0.82864781  0.17330116  0.68681138  1
  In  In35  1  0.49616485  -0.00916290  0.84036416  1
  In  In36  1  -0.01235202  0.16813807  0.83064568  1
  In  In37  1  0.84325919  -0.00095856  0.13951623  1
  In  In38  1  0.66428904  0.62993961  0.67837078  1
  In  In39  1  0.51142742  0.17397757  0.63959123  1
  In  In40  1  0.32667125  0.46640391  0.16405721  1
  In  In41  1  0.84591782  0.16299593  -0.00747813  1
  In  In42  1  -0.00054983  0.32745344  0.00660188  1
  In  In43  1  0.49958268  0.80212286  0.31732997  1
  In  In44  1  0.35209764  0.34138351  0.69186129  1
  In  In45  1  0.01097098  0.15779517  0.15566887  1
  In  In46  1  0.50142481  0.14351794  0.31959439  1
  In  In47  1  0.65339546  0.16809087  0.48824275  1
  In  In48  1  0.83137861  0.65827219  0.18339004  1
  In  In49  1  0.53503970  0.00859726  0.15820882  1
  In  In50  1  0.68991228  0.32519972  0.32632258  1
  In  In51  1  -0.02698874  0.64556904  0.35215689  1
  In  In52  1  0.67706121  0.15377645  0.83109974  1
  In  In53  1  -0.00239925  0.51178821  0.82875785  1
  In  In54  1  0.50187275  0.68106457  0.17151940  1
  In  In55  1  0.50319455  0.34233809  0.53368151  1
  In  In56  1  0.65796684  0.00853517  0.33737237  1
  In  In57  1  0.67994559  0.50559823  0.17252782  1
  In  In58  1  0.14704827  0.34230570  0.49256102  1
  In  In59  1  0.31881957  0.18827736  0.15310074  1
  In  In60  1  0.16125282  0.01758424  0.15135414  1
  In  In61  1  0.13280327  0.16729838  0.33411093  1
  In  In62  1  0.33162127  0.83709952  0.15371700  1
  In  In63  1  0.17153193  0.83831833  0.33344096  1
  In  In64  1  0.50413152  0.35047465  0.84849064  1
  In  In65  1  0.67278722  0.36701047  0.67327498  1
  In  In66  1  0.15261578  0.65645971  0.51325958  1
  In  In67  1  0.00648219  0.16956027  0.49248324  1
  In  In68  1  0.82462857  -0.00349087  0.49674183  1
  In  In69  1  0.68025177  0.83222952  0.84016327  1
  In  In70  1  0.32270372  0.33127718  0.33065071  1
  In  In71  1  0.31702974  0.67331597  0.69937445  1
  Te  Te72  1  0.06470756  0.06839970  0.04434513  1
  Te  Te73  1  0.09439236  0.05900975  0.43396010  1
  Te  Te74  1  0.08899874  0.07312389  0.76110036  1
  Te  Te75  1  0.08106608  0.43089313  0.08319034  1
  Te  Te76  1  0.04637215  0.44194159  0.44339341  1
  Te  Te77  1  0.08393890  0.41172731  0.76053596  1
  Te  Te78  1  0.08309323  0.77935433  0.06977701  1
  Te  Te79  1  0.07939786  0.74267600  0.41026156  1
  Te  Te80  1  0.07027580  0.74081789  0.77973448  1
  Te  Te81  1  0.41248512  0.08396192  0.08779594  1
  Te  Te82  1  0.41107689  0.08683259  0.42893825  1
  Te  Te83  1  0.42572406  0.08711753  0.74069240  1
  Te  Te84  1  0.44052544  0.40612667  0.09292834  1
  Te  Te85  1  0.40939358  0.42503804  0.42673395  1
  Te  Te86  1  0.44577605  0.44588360  0.74508519  1
  Te  Te87  1  0.42448615  0.75632026  0.06434488  1
  Te  Te88  1  0.39731497  0.77220009  0.42696823  1
  Te  Te89  1  0.41702055  0.74939553  0.78342958  1
  Te  Te90  1  0.74522482  0.08019376  0.06566681  1
  Te  Te91  1  0.76177441  0.10028358  0.40430657  1
  Te  Te92  1  0.77333058  0.06196652  0.76676579  1
  Te  Te93  1  0.76095273  0.40372282  0.09183435  1
  Te  Te94  1  0.73124879  0.41942748  0.43122980  1
  Te  Te95  1  0.76127635  0.43408568  0.77032691  1
  Te  Te96  1  0.75245648  0.74660154  0.08549429  1
  Te  Te97  1  0.76447683  0.72705838  0.41370331  1
  Te  Te98  1  0.74745727  0.74398126  0.73336345  1
  Te  Te99  1  0.09128373  0.26690016  0.22927551  1
  Te  Te100  1  0.06921981  0.26032514  0.59661877  1
  Te  Te101  1  0.08986011  0.25525142  0.90937608  1
  Te  Te102  1  0.08169432  0.58541383  0.25494223  1
  Te  Te103  1  0.05166979  0.61832726  0.62171856  1
  Te  Te104  1  0.10181921  0.58754343  0.91542577  1
  Te  Te105  1  0.08214546  0.92352306  0.24301421  1
  Te  Te106  1  0.08467820  0.90677447  0.58002684  1
  Te  Te107  1  0.09813287  0.86629788  0.85783123  1
  Te  Te108  1  0.42247825  0.25309669  0.24473754  1
  Te  Te109  1  0.39222448  0.24662081  0.57818767  1
  Te  Te110  1  0.38905742  0.27065366  0.92576441  1
  Te  Te111  1  0.41748197  0.58088655  0.25257610  1
  Te  Te112  1  0.42439736  0.60461410  0.60110561  1
  Te  Te113  1  0.39264959  0.59049673  0.89770309  1
  Te  Te114  1  0.43096304  0.92353783  0.24469863  1
  Te  Te115  1  0.40556433  0.91563614  0.59460606  1
  Te  Te116  1  0.40476611  0.89127451  0.90104259  1
  Te  Te117  1  0.74680029  0.21739695  0.24803259  1
  Te  Te118  1  0.74079397  0.25440816  0.58173116  1
  Te  Te119  1  0.76442422  0.25759730  0.90108959  1
  Te  Te120  1  0.78239995  0.54987305  0.27390855  1
  Te  Te121  1  0.76102069  0.58404198  0.57355110  1
  Te  Te122  1  0.76265515  0.58672583  0.87699430  1
  Te  Te123  1  0.75265134  0.91698693  0.25396756  1
  Te  Te124  1  0.75974040  0.91280645  0.60427510  1
  Te  Te125  1  0.74850091  0.93306760  0.92535885  1
  Te  Te126  1  0.24361286  0.28882339  0.07452210  1
  Te  Te127  1  0.23640361  0.24119887  0.41947397  1
  Te  Te128  1  0.23550423  0.26850822  0.75744273  1
  Te  Te129  1  0.26448437  0.58720536  0.08430768  1
  Te  Te130  1  0.22731831  0.56437557  0.41404734  1
  Te  Te131  1  0.25594970  0.56042265  0.77356277  1
  Te  Te132  1  0.23477598  0.91349453  0.06517994  1
  Te  Te133  1  0.24271210  0.91049877  0.44147553  1
  Te  Te134  1  0.24638785  0.90027268  0.77423887  1
  Te  Te135  1  0.57300388  0.25821458  0.07975787  1
  Te  Te136  1  0.55776896  0.25949950  0.41349152  1
  Te  Te137  1  0.57999980  0.25382523  0.75277776  1
  Te  Te138  1  0.58821525  0.58874788  0.08142236  1
  Te  Te139  1  0.60017252  0.58932991  0.41479781  1
  Te  Te140  1  0.56429612  0.55019803  0.74796230  1
  Te  Te141  1  0.57212696  0.90455794  0.06090180  1
  Te  Te142  1  0.57775295  0.90460025  0.41730942  1
  Te  Te143  1  0.59391806  0.92351571  0.74581717  1
  Te  Te144  1  0.90625939  0.25500145  0.10202041  1
  Te  Te145  1  0.91446563  0.25141342  0.40503412  1
  Te  Te146  1  0.91916199  0.27064242  0.74874841  1
  Te  Te147  1  0.91831907  0.59215629  0.06863697  1
  Te  Te148  1  0.88733591  0.60356471  0.46822225  1
  Te  Te149  1  0.92574726  0.60615607  0.73672821  1
  Te  Te150  1  0.94082141  0.90485974  0.08048485  1
  Te  Te151  1  0.92841442  0.89849924  0.44274914  1
  Te  Te152  1  0.91992797  0.89476544  0.77287927  1
  Te  Te153  1  0.25241990  0.08638657  0.25526001  1
  Te  Te154  1  0.25139059  0.09009465  0.57213677  1
  Te  Te155  1  0.23654876  0.07639056  0.90694338  1
  Te  Te156  1  0.22790257  0.42218722  0.26357730  1
  Te  Te157  1  0.24961392  0.41395866  0.58946001  1
  Te  Te158  1  0.28735244  0.39236730  0.92699315  1
  Te  Te159  1  0.25318396  0.73971038  0.24174213  1
  Te  Te160  1  0.25136617  0.74701578  0.58456598  1
  Te  Te161  1  0.21133839  0.76731716  0.89046015  1
  Te  Te162  1  0.62331058  0.11633391  0.22590125  1
  Te  Te163  1  0.61465211  0.06861498  0.59765982  1
  Te  Te164  1  0.59284283  0.07045638  0.92845974  1
  Te  Te165  1  0.58699623  0.40351204  0.23748649  1
  Te  Te166  1  0.58994697  0.45091836  0.58251964  1
  Te  Te167  1  0.59832950  0.44626211  0.91909228  1
  Te  Te168  1  0.61823106  0.72357613  0.26451957  1
  Te  Te169  1  0.58689976  0.75030243  0.58482880  1
  Te  Te170  1  0.57528115  0.74304847  0.89653038  1
  Te  Te171  1  0.91288218  0.08635867  0.24846136  1
  Te  Te172  1  0.91634243  0.08496977  0.58525333  1
  Te  Te173  1  0.91767220  0.06348779  0.90875327  1
  Te  Te174  1  0.89248640  0.42356354  0.27025555  1
  Te  Te175  1  0.94736749  0.42238082  0.57984939  1
  Te  Te176  1  0.91428157  0.41828205  0.91974985  1
  Te  Te177  1  0.93985388  0.74862392  0.24046863  1
  Te  Te178  1  0.93733581  0.71748222  0.56400602  1
  Te  Te179  1  0.90404304  0.75083954  0.88209266  1
