# generated using pymatgen
data_In2Te3
_symmetry_space_group_name_H-M   'P 1'
_cell_length_a   18.77789248
_cell_length_b   18.77165752
_cell_length_c   18.77234435
_cell_angle_alpha   89.95278900
_cell_angle_beta   89.90783244
_cell_angle_gamma   90.01385049
_symmetry_Int_Tables_number   1
_chemical_formula_structural   In2Te3
_chemical_formula_sum   'In72 Te108'
_cell_volume   6617.09332811
_cell_formula_units_Z   36
loop_
 _symmetry_equiv_pos_site_id
 _symmetry_equiv_pos_as_xyz
  1  'x, y, z'
loop_
 _atom_site_type_symbol
 _atom_site_label
 _atom_site_symmetry_multiplicity
 _atom_site_fract_x
 _atom_site_fract_y
 _atom_site_fract_z
 _atom_site_occupancy
  In  In0  1  0.32640768  0.34463182  0.31430554  1
  In  In1  1  0.84195580  0.63366882  0.14785479  1
  In  In2  1  0.67522708  0.65926269  0.34965507  1
  In  In3  1  0.83988243  0.82462979  0.64891748  1
  In  In4  1  0.01174847  0.01891713  0.68538111  1
  In  In5  1  0.49278518  0.49288294  0.31132945  1
  In  In6  1  0.33339416  0.15642644  0.49431141  1
  In  In7  1  0.65970963  0.02075895  0.32531963  1
  In  In8  1  0.34721056  0.68056991  0.67087040  1
  In  In9  1  0.16506563  0.83133268  0.67971633  1
  In  In10  1  0.15166729  0.48777737  0.34118234  1
  In  In11  1  0.83175704  0.19984608  0.00551493  1
  In  In12  1  0.16459865  0.16670917  -0.01744593  1
  In  In13  1  0.48663923  0.66077371  0.81536811  1
  In  In14  1  0.12901134  0.52066494  0.64670809  1
  In  In15  1  0.31511045  0.31870738  0.68512178  1
  In  In16  1  -0.00727755  0.47350038  0.82480221  1
  In  In17  1  0.17718953  0.00587262  0.50942087  1
  In  In18  1  0.48845157  0.84295208  0.33532834  1
  In  In19  1  0.33822967  0.16303893  0.83133971  1
  In  In20  1  0.01065375  0.66499456  0.34600292  1
  In  In21  1  0.80949748  0.01036195  0.83227860  1
  In  In22  1  0.00361977  0.83059226  0.16368249  1
  In  In23  1  0.67461813  0.84441627  0.82963705  1
  In  In24  1  0.51516118  0.49865098  -0.01113269  1
  In  In25  1  0.83688186  0.65468124  0.50896805  1
  In  In26  1  0.84305967  0.02018534  0.15363139  1
  In  In27  1  0.00334345  0.18028583  0.49703214  1
  In  In28  1  0.53350746  0.18576210  0.67910949  1
  In  In29  1  0.31018215  0.52638213  0.48115927  1
  In  In30  1  0.31732954  0.68669789  0.02419980  1
  In  In31  1  0.31420851  0.47687102  0.85071101  1
  In  In32  1  0.16917357  0.83919220  0.00320705  1
  In  In33  1  0.33480027  0.82852769  0.17760970  1
  In  In34  1  -0.00038687  0.00086008  0.33195848  1
  In  In35  1  0.16863171  0.32118003  0.52045723  1
  In  In36  1  0.48877034  0.64398723  0.16007707  1
  In  In37  1  0.85062161  0.48722966  0.31667205  1
  In  In38  1  0.00191818  0.82253146  0.84482801  1
  In  In39  1  0.70337227  0.46740716  0.81188801  1
  In  In40  1  0.67901811  0.49381693  0.51892984  1
  In  In41  1  0.68542361  0.31611101  0.33591771  1
  In  In42  1  0.63572902  0.83370759  0.13758978  1
  In  In43  1  0.84669764  0.86454780  0.32059942  1
  In  In44  1  0.15933209  0.65288007  0.16942272  1
  In  In45  1  0.81926378  0.16628722  0.68263089  1
  In  In46  1  0.01046001  0.18358843  0.82069855  1
  In  In47  1  0.16807164  -0.00996676  0.17823121  1
  In  In48  1  0.31257023  0.50217556  0.17274335  1
  In  In49  1  0.34701592  0.15230423  0.14665467  1
  In  In50  1  0.15851387  0.64474533  0.84967204  1
  In  In51  1  0.66016697  0.66778168  -0.00103042  1
  In  In52  1  0.52514525  0.33370014  0.50001391  1
  In  In53  1  0.67279571  0.17056847  0.51827982  1
  In  In54  1  0.82176366  -0.01428237  0.49278373  1
  In  In55  1  0.32598088  0.31971350  -0.01476420  1
  In  In56  1  -0.00013157  0.33065064  0.33416722  1
  In  In57  1  0.68581728  0.33512391  -0.01310433  1
  In  In58  1  0.50905406  0.70485635  0.49624978  1
  In  In59  1  0.49161517  0.89232551  -0.03582924  1
  In  In60  1  0.49544603  0.48623392  0.67149037  1
  In  In61  1  0.34203032  0.00475549  0.33293880  1
  In  In62  1  -0.01198961  0.18547235  0.17066650  1
  In  In63  1  0.50078206  0.31235229  0.15041725  1
  In  In64  1  0.51651096  0.84895952  0.66764508  1
  In  In65  1  -0.00012265  -0.00919527  -0.01322540  1
  In  In66  1  0.31942801  0.83787397  0.52347467  1
  In  In67  1  0.66754838  0.83847501  0.52370008  1
  In  In68  1  0.83654269  0.47605424  0.00265441  1
  In  In69  1  0.67277268  0.16733837  0.16917743  1
  In  In70  1  0.33566829  0.00843524  0.66088213  1
  In  In71  1  0.86407278  0.65998780  0.82871894  1
  Te  Te72  1  0.07317207  0.07499796  0.09204688  1
  Te  Te73  1  0.09388427  0.09024446  0.41202737  1
  Te  Te74  1  0.11132726  0.08736994  0.76956399  1
  Te  Te75  1  0.13716349  0.43898284  0.05318467  1
  Te  Te76  1  0.07277558  0.41463051  0.44786269  1
  Te  Te77  1  0.09277917  0.40781136  0.73367465  1
  Te  Te78  1  0.07735631  0.73656107  0.06914578  1
  Te  Te79  1  0.10289162  0.72595415  0.44433102  1
  Te  Te80  1  0.07545904  0.72837026  0.75085748  1
  Te  Te81  1  0.42975504  0.07902146  0.03716552  1
  Te  Te82  1  0.43398745  0.07685942  0.42281466  1
  Te  Te83  1  0.43794718  0.08432015  0.74558863  1
  Te  Te84  1  0.41026440  0.42188657  0.08147317  1
  Te  Te85  1  0.41381576  0.41305544  0.42433259  1
  Te  Te86  1  0.41777880  0.39653331  0.76815441  1
  Te  Te87  1  0.43888447  0.76349912  0.07749326  1
  Te  Te88  1  0.39308488  0.75248087  0.41286372  1
  Te  Te89  1  0.41195988  0.78317397  0.76068138  1
  Te  Te90  1  0.74517567  0.08476718  0.05948090  1
  Te  Te91  1  0.75930086  0.09741241  0.41139306  1
  Te  Te92  1  0.70896745  0.10131377  0.76565274  1
  Te  Te93  1  0.74889458  0.40614482  0.10044473  1
  Te  Te94  1  0.76548932  0.41259770  0.42329008  1
  Te  Te95  1  0.80054524  0.38939105  0.72496933  1
  Te  Te96  1  0.75214509  0.74888117  0.08892079  1
  Te  Te97  1  0.75890710  0.76683619  0.41914133  1
  Te  Te98  1  0.75982666  0.74464573  0.75202002  1
  Te  Te99  1  0.09188040  0.24019022  0.25930786  1
  Te  Te100  1  0.06748286  0.25668460  0.60747804  1
  Te  Te101  1  0.05735877  0.26152778  0.94050411  1
  Te  Te102  1  0.05959288  0.56361725  0.24166825  1
  Te  Te103  1  0.06270201  0.61544768  0.55494424  1
  Te  Te104  1  0.05451638  0.56896185  0.92536200  1
  Te  Te105  1  0.09131676  0.89329957  0.27021983  1
  Te  Te106  1  0.07898390  0.91949447  0.58881228  1
  Te  Te107  1  0.10294779  0.92590654  0.89545575  1
  Te  Te108  1  0.41850237  0.23838192  0.25565172  1
  Te  Te109  1  0.41785674  0.25689149  0.58490782  1
  Te  Te110  1  0.43636833  0.23654205  0.92276331  1
  Te  Te111  1  0.38930111  0.59703452  0.26594299  1
  Te  Te112  1  0.42804072  0.58834949  0.57764671  1
  Te  Te113  1  0.40534951  0.58665297  0.92432688  1
  Te  Te114  1  0.43196691  0.93549682  0.22863937  1
  Te  Te115  1  0.43128509  0.92900506  0.56873106  1
  Te  Te116  1  0.37403350  0.95496525  0.90402235  1
  Te  Te117  1  0.77058376  0.26141230  0.22772525  1
  Te  Te118  1  0.76339527  0.26606681  0.58563168  1
  Te  Te119  1  0.74245006  0.23617945  0.88561293  1
  Te  Te120  1  0.74138983  0.56931594  0.24708946  1
  Te  Te121  1  0.75513297  0.58247632  0.61306188  1
  Te  Te122  1  0.74985105  0.57965265  0.91156118  1
  Te  Te123  1  0.73792797  0.92022505  0.23005504  1
  Te  Te124  1  0.73991502  0.93778484  0.61269911  1
  Te  Te125  1  0.74968711  0.91949844  0.93233011  1
  Te  Te126  1  0.24103359  0.24602330  0.08909518  1
  Te  Te127  1  0.24804078  0.25200967  0.41035479  1
  Te  Te128  1  0.22688971  0.24879776  0.78043456  1
  Te  Te129  1  0.22776149  0.56050578  0.05350736  1
  Te  Te130  1  0.21825668  0.61010562  0.39970830  1
  Te  Te131  1  0.25819376  0.57781148  0.74681251  1
  Te  Te132  1  0.26673387  0.92645693  0.08106596  1
  Te  Te133  1  0.24689857  0.91248374  0.41085117  1
  Te  Te134  1  0.25952931  0.91936203  0.75270897  1
  Te  Te135  1  0.58660575  0.23519811  0.05235700  1
  Te  Te136  1  0.57846239  0.23145191  0.40339991  1
  Te  Te137  1  0.62780746  0.24775931  0.77622570  1
  Te  Te138  1  0.60147731  0.56414773  0.09665918  1
  Te  Te139  1  0.57456963  0.57013973  0.42323478  1
  Te  Te140  1  0.59182538  0.56776240  0.75904771  1
  Te  Te141  1  0.58525216  0.95054196  0.06245494  1
  Te  Te142  1  0.58989219  0.92013659  0.41948751  1
  Te  Te143  1  0.57465531  0.93637045  0.77167940  1
  Te  Te144  1  0.93784840  0.28500327  0.07015626  1
  Te  Te145  1  0.90450361  0.26371284  0.42708987  1
  Te  Te146  1  0.91542923  0.26775769  0.74052760  1
  Te  Te147  1  0.94135269  0.56428094  0.06385258  1
  Te  Te148  1  0.92631985  0.56334023  0.42489436  1
  Te  Te149  1  0.92611656  0.57033769  0.72561586  1
  Te  Te150  1  0.90649282  0.90574115  0.07361490  1
  Te  Te151  1  0.93753199  0.90277442  0.43581146  1
  Te  Te152  1  0.91321079  0.91671042  0.75667599  1
  Te  Te153  1  0.24796530  0.09493930  0.25346984  1
  Te  Te154  1  0.23600854  0.11040368  0.60301115  1
  Te  Te155  1  0.26691522  0.06849706  0.93051346  1
  Te  Te156  1  0.21304815  0.39994778  0.22861015  1
  Te  Te157  1  0.26025145  0.43138608  0.58944049  1
  Te  Te158  1  0.20747992  0.39479885  0.92213841  1
  Te  Te159  1  0.23450621  0.75007132  0.25176019  1
  Te  Te160  1  0.23177134  0.72851509  0.58504610  1
  Te  Te161  1  0.25321308  0.75457381  0.90478999  1
  Te  Te162  1  0.56610873  0.08765716  0.23401272  1
  Te  Te163  1  0.57970751  0.07963457  0.58758246  1
  Te  Te164  1  0.53600669  0.10990437  0.93985901  1
  Te  Te165  1  0.58771264  0.39902385  0.24349308  1
  Te  Te166  1  0.60512652  0.39623755  0.61295608  1
  Te  Te167  1  0.58385073  0.40696815  0.89281588  1
  Te  Te168  1  0.58126164  0.74145014  0.25762558  1
  Te  Te169  1  0.60181289  0.73221686  0.61224539  1
  Te  Te170  1  0.56663824  0.75204361  0.91324134  1
  Te  Te171  1  0.90247603  0.09932787  0.26791646  1
  Te  Te172  1  0.91063645  0.07804564  0.58531276  1
  Te  Te173  1  0.91468042  0.09505350  0.91431531  1
  Te  Te174  1  0.93913243  0.41301187  0.22511736  1
  Te  Te175  1  0.87585840  0.46631829  0.61778854  1
  Te  Te176  1  0.91132344  0.38328736  0.91282671  1
  Te  Te177  1  0.90421063  0.73945609  0.25144216  1
  Te  Te178  1  0.94028259  0.73487378  0.58380196  1
  Te  Te179  1  0.91191131  0.74906325  0.93544207  1
