# generated using pymatgen
data_In2Te3
_symmetry_space_group_name_H-M   'P 1'
_cell_length_a   18.93956731
_cell_length_b   18.92056774
_cell_length_c   18.92363055
_cell_angle_alpha   90.10389281
_cell_angle_beta   89.94841345
_cell_angle_gamma   89.91915996
_symmetry_Int_Tables_number   1
_chemical_formula_structural   In2Te3
_chemical_formula_sum   'In72 Te108'
_cell_volume   6781.21250566
_cell_formula_units_Z   36
loop_
 _symmetry_equiv_pos_site_id
 _symmetry_equiv_pos_as_xyz
  1  'x, y, z'
loop_
 _atom_site_type_symbol
 _atom_site_label
 _atom_site_symmetry_multiplicity
 _atom_site_fract_x
 _atom_site_fract_y
 _atom_site_fract_z
 _atom_site_occupancy
  In  In0  1  0.15842669  0.50141034  0.68714741  1
  In  In1  1  -0.01158207  0.15653420  0.48535123  1
  In  In2  1  0.33096546  0.82727227  0.51273610  1
  In  In3  1  0.62084628  0.18423577  0.85254917  1
  In  In4  1  0.82720027  0.83214914  0.00378493  1
  In  In5  1  0.82585264  0.33299753  0.17914941  1
  In  In6  1  0.17260389  0.18970206  0.66665968  1
  In  In7  1  0.33653106  0.85762388  0.85039657  1
  In  In8  1  0.86422815  0.48303880  0.34324129  1
  In  In9  1  0.17333225  0.83379796  0.31472165  1
  In  In10  1  0.47187289  0.65260737  0.85313175  1
  In  In11  1  0.30969167  0.50768044  0.14090580  1
  In  In12  1  0.33724837  0.35048121  0.68997874  1
  In  In13  1  0.49123111  0.50941859  0.66446035  1
  In  In14  1  0.66672619  0.50516886  0.16274703  1
  In  In15  1  0.64970974  0.37518650  -0.00195330  1
  In  In16  1  0.81986799  0.61645922  0.53140580  1
  In  In17  1  0.50174926  0.70649036  0.15064983  1
  In  In18  1  0.00975248  0.33243084  0.34311659  1
  In  In19  1  0.50165858  0.83109936  0.66931364  1
  In  In20  1  0.83749124  0.64176430  0.79950619  1
  In  In21  1  0.32456947  0.33650315  -0.02135998  1
  In  In22  1  0.19669931  0.15420587  0.01285021  1
  In  In23  1  0.01475722  0.65065424  0.66546310  1
  In  In24  1  0.33701746  0.00331931  0.68914778  1
  In  In25  1  0.67107823  0.67064084  0.34008925  1
  In  In26  1  0.81020118  0.01421014  0.47153381  1
  In  In27  1  0.32665756  0.68536997  0.31633038  1
  In  In28  1  0.46252895  0.13211846  0.01036743  1
  In  In29  1  0.83651102  -0.00706998  0.17027986  1
  In  In30  1  0.34550779  0.31147750  0.33045364  1
  In  In31  1  0.32069836  0.17012170  0.48247262  1
  In  In32  1  0.33538066  0.01216887  0.31737924  1
  In  In33  1  0.62272270  -0.03654578  0.05181940  1
  In  In34  1  0.03008531  0.68687394  0.01568716  1
  In  In35  1  0.66901687  0.69312231  -0.01768396  1
  In  In36  1  0.81773094  0.82782959  0.33139524  1
  In  In37  1  0.49875308  0.14932638  0.66650040  1
  In  In38  1  0.18777973  0.67028297  0.84575804  1
  In  In39  1  0.65942850  0.52582809  0.81256891  1
  In  In40  1  0.00785025  0.33785772  0.68320765  1
  In  In41  1  0.84845739  0.83392651  0.67267097  1
  In  In42  1  0.50794600  0.33941991  0.50639736  1
  In  In43  1  0.46809045  0.33186616  0.14445707  1
  In  In44  1  0.66146020  0.31943717  0.33874340  1
  In  In45  1  0.16470711  -0.00862925  0.84566456  1
  In  In46  1  0.84400729  0.34367056  0.52019846  1
  In  In47  1  0.32746589  0.48689511  0.48921505  1
  In  In48  1  0.17131101  0.01102981  0.17209884  1
  In  In49  1  0.83567483  -0.02479537  0.81922330  1
  In  In50  1  0.52603768  0.53073863  0.31830154  1
  In  In51  1  0.02419607  0.82510197  0.85772957  1
  In  In52  1  0.32154412  0.84260636  0.17411569  1
  In  In53  1  0.15891662  0.50245162  0.33251893  1
  In  In54  1  0.83846813  0.35068831  0.83286569  1
  In  In55  1  0.50006545  0.70062686  0.48316330  1
  In  In56  1  0.00565041  -0.00829857  0.33832429  1
  In  In57  1  0.14186568  -0.02501038  0.51832764  1
  In  In58  1  0.00979952  0.14627524  0.84061732  1
  In  In59  1  0.01254677  0.16724828  0.18395257  1
  In  In60  1  0.82111722  0.15866444  0.64986815  1
  In  In61  1  0.54580592  -0.02089568  0.46748749  1
  In  In62  1  0.14830753  0.49265478  -0.01576959  1
  In  In63  1  0.51259815  0.17995821  0.32413721  1
  In  In64  1  0.84115166  0.16065394  -0.03018322  1
  In  In65  1  0.84561152  0.65866789  0.15187275  1
  In  In66  1  0.65771689  0.14647750  0.15930289  1
  In  In67  1  0.01550850  0.67436829  0.32358367  1
  In  In68  1  0.30171088  0.66960516  0.65383742  1
  In  In69  1  0.00646297  0.33502652  -0.00137505  1
  In  In70  1  0.67476578  -0.01493745  0.68223856  1
  In  In71  1  0.65035578  0.83319439  0.82233799  1
  Te  Te72  1  0.07581373  0.08308355  0.07536380  1
  Te  Te73  1  0.10064500  0.08068515  0.41659591  1
  Te  Te74  1  0.09572563  0.07944069  0.73648693  1
  Te  Te75  1  0.10961752  0.39281474  0.08662271  1
  Te  Te76  1  0.07181919  0.43378875  0.42898626  1
  Te  Te77  1  0.10622506  0.39467643  0.77848440  1
  Te  Te78  1  0.11059184  0.76293435  0.10847939  1
  Te  Te79  1  0.08905976  0.76631063  0.41322458  1
  Te  Te80  1  0.09805825  0.74694677  0.75086919  1
  Te  Te81  1  0.38568493  0.03140979  0.08867133  1
  Te  Te82  1  0.43313942  0.08421272  0.42262999  1
  Te  Te83  1  0.40872799  0.10031133  0.77297572  1
  Te  Te84  1  0.43044231  0.45209258  0.06151752  1
  Te  Te85  1  0.43679011  0.42222901  0.39858501  1
  Te  Te86  1  0.43628723  0.42336520  0.77127852  1
  Te  Te87  1  0.38501260  0.75430435  0.07197346  1
  Te  Te88  1  0.41355865  0.78486612  0.39110833  1
  Te  Te89  1  0.39655937  0.75202850  0.74500941  1
  Te  Te90  1  0.75639810  0.07556910  0.06594413  1
  Te  Te91  1  0.71582793  0.11452942  0.42687872  1
  Te  Te92  1  0.74514033  0.08950560  0.77081857  1
  Te  Te93  1  0.76763544  0.43057187  0.07738789  1
  Te  Te94  1  0.74951946  0.41515358  0.41564435  1
  Te  Te95  1  0.74734530  0.42466088  0.73944116  1
  Te  Te96  1  0.74025088  0.75565279  0.10237733  1
  Te  Te97  1  0.76702242  0.73149236  0.43810681  1
  Te  Te98  1  0.74236361  0.74711754  0.73880788  1
  Te  Te99  1  0.10252989  0.25129131  0.26157507  1
  Te  Te100  1  0.07007995  0.25190009  0.57357274  1
  Te  Te101  1  0.09512384  0.23455807  0.92514936  1
  Te  Te102  1  0.08485899  0.58116436  0.23265490  1
  Te  Te103  1  0.10668488  0.57896577  0.57420716  1
  Te  Te104  1  0.06822823  0.59554031  0.90047060  1
  Te  Te105  1  0.07244087  0.91006946  0.22978585  1
  Te  Te106  1  0.04442673  0.91864509  0.60866631  1
  Te  Te107  1  0.11439627  0.89720559  0.94874388  1
  Te  Te108  1  0.40487831  0.22054205  0.22316187  1
  Te  Te109  1  0.40851425  0.25277493  0.58130636  1
  Te  Te110  1  0.44196780  0.25670567  0.93535244  1
  Te  Te111  1  0.41404408  0.58701035  0.23480894  1
  Te  Te112  1  0.40871765  0.60125727  0.56122107  1
  Te  Te113  1  0.41235045  0.55857414  0.94801294  1
  Te  Te114  1  0.42737499  0.93308112  0.23092957  1
  Te  Te115  1  0.42319595  0.92879325  0.57898199  1
  Te  Te116  1  0.38620914  0.95869002  0.95491505  1
  Te  Te117  1  0.74739443  0.22707087  0.25347279  1
  Te  Te118  1  0.74214804  0.26814494  0.59634335  1
  Te  Te119  1  0.73787532  0.26395665  0.92172159  1
  Te  Te120  1  0.76205193  0.57318069  0.26045997  1
  Te  Te121  1  0.74505052  0.53941716  0.63212628  1
  Te  Te122  1  0.75408228  0.58624576  0.91593597  1
  Te  Te123  1  0.73241685  0.92962274  0.25880923  1
  Te  Te124  1  0.75907735  0.91373916  0.57965972  1
  Te  Te125  1  0.72981021  0.91782538  0.92059533  1
  Te  Te126  1  0.25182644  0.26974153  0.08726289  1
  Te  Te127  1  0.23970558  0.27755711  0.42595503  1
  Te  Te128  1  0.27148194  0.23952650  0.76150627  1
  Te  Te129  1  0.25367313  0.58880833  0.03086131  1
  Te  Te130  1  0.25387837  0.59758319  0.41472329  1
  Te  Te131  1  0.27021692  0.57173545  0.76418806  1
  Te  Te132  1  0.24902607  0.92898824  0.07302544  1
  Te  Te133  1  0.25339954  0.92568071  0.41487533  1
  Te  Te134  1  0.23861794  0.90266033  0.74300384  1
  Te  Te135  1  0.59243137  0.26393007  0.08634059  1
  Te  Te136  1  0.60507393  0.22504251  0.44507491  1
  Te  Te137  1  0.58507652  0.25128952  0.72977337  1
  Te  Te138  1  0.59025735  0.60046629  0.07730673  1
  Te  Te139  1  0.59446500  0.58377172  0.44021061  1
  Te  Te140  1  0.56610464  0.62045788  0.73844869  1
  Te  Te141  1  0.55714729  0.85130618  0.12296807  1
  Te  Te142  1  0.63217842  0.90393985  0.37701421  1
  Te  Te143  1  0.55527487  0.93694690  0.76469443  1
  Te  Te144  1  0.90679235  0.23810593  0.08345598  1
  Te  Te145  1  0.89908275  0.25200559  0.41077302  1
  Te  Te146  1  0.91606349  0.23274261  0.75698333  1
  Te  Te147  1  0.93598390  0.58515542  0.06501027  1
  Te  Te148  1  0.92826954  0.59046372  0.42383923  1
  Te  Te149  1  0.92635945  0.54668544  0.72719539  1
  Te  Te150  1  0.92065526  0.91075964  0.08294969  1
  Te  Te151  1  0.91145031  0.90838355  0.42110847  1
  Te  Te152  1  0.95796074  0.91640654  0.74173210  1
  Te  Te153  1  0.23857714  0.10682945  0.26163104  1
  Te  Te154  1  0.25160943  0.07634383  0.58206150  1
  Te  Te155  1  0.26968733  0.07875208  0.90594995  1
  Te  Te156  1  0.26590105  0.42242333  0.25676455  1
  Te  Te157  1  0.24331388  0.41311071  0.58884709  1
  Te  Te158  1  0.22826984  0.40601606  0.88974754  1
  Te  Te159  1  0.21907637  0.71916649  0.21224651  1
  Te  Te160  1  0.21698813  0.75461742  0.56901763  1
  Te  Te161  1  0.27808597  0.74961643  0.93480522  1
  Te  Te162  1  0.56746775  0.06864251  0.24409918  1
  Te  Te163  1  0.59696057  0.06720697  0.58125046  1
  Te  Te164  1  0.58289878  0.06923469  0.94269842  1
  Te  Te165  1  0.57983721  0.40222830  0.23580268  1
  Te  Te166  1  0.58974116  0.42938870  0.58760352  1
  Te  Te167  1  0.56952664  0.43727735  0.89232065  1
  Te  Te168  1  0.57949025  0.76316295  0.26909648  1
  Te  Te169  1  0.59207020  0.77690843  0.56764578  1
  Te  Te170  1  0.55238238  0.76592566  0.91780990  1
  Te  Te171  1  0.91199273  0.08573186  0.26465809  1
  Te  Te172  1  0.91536168  0.06522071  0.58062885  1
  Te  Te173  1  0.92782176  0.04592489  0.91945170  1
  Te  Te174  1  0.93886723  0.41805331  0.22991949  1
  Te  Te175  1  0.93341867  0.43421101  0.59835462  1
  Te  Te176  1  0.92384626  0.42869500  0.92084700  1
  Te  Te177  1  0.91778620  0.75824036  0.23986993  1
  Te  Te178  1  0.91343402  0.72990994  0.58446522  1
  Te  Te179  1  0.89557415  0.75343031  0.89269961  1
