# generated using pymatgen
data_In2Te3
_symmetry_space_group_name_H-M   'P 1'
_cell_length_a   18.76179932
_cell_length_b   18.76888763
_cell_length_c   18.76004351
_cell_angle_alpha   89.96284473
_cell_angle_beta   90.07141302
_cell_angle_gamma   89.93583671
_symmetry_Int_Tables_number   1
_chemical_formula_structural   In2Te3
_chemical_formula_sum   'In72 Te108'
_cell_volume   6606.11546515
_cell_formula_units_Z   36
loop_
 _symmetry_equiv_pos_site_id
 _symmetry_equiv_pos_as_xyz
  1  'x, y, z'
loop_
 _atom_site_type_symbol
 _atom_site_label
 _atom_site_symmetry_multiplicity
 _atom_site_fract_x
 _atom_site_fract_y
 _atom_site_fract_z
 _atom_site_occupancy
  In  In0  1  0.16787633  0.50237699  0.64797919  1
  In  In1  1  0.28996710  0.50114959  0.17508325  1
  In  In2  1  0.65366125  0.66515206  -0.01122170  1
  In  In3  1  -0.00737862  0.20383347  0.47939406  1
  In  In4  1  0.64651782  0.84027317  0.18277590  1
  In  In5  1  0.46652655  0.14577832  0.33867375  1
  In  In6  1  0.70403582  0.50123978  0.16746857  1
  In  In7  1  0.34936674  0.65773617  0.67745083  1
  In  In8  1  0.33604847  0.32754815  0.33512633  1
  In  In9  1  0.18723068  -0.01730436  0.49231114  1
  In  In10  1  0.15924086  0.68253441  0.15736803  1
  In  In11  1  0.84716653  0.52199877  0.32989019  1
  In  In12  1  0.01786367  0.15573330  0.17229662  1
  In  In13  1  0.66514103  0.32074948  0.65804200  1
  In  In14  1  -0.00324379  0.65830706  0.66723937  1
  In  In15  1  0.02666326  -0.00219566  0.31738108  1
  In  In16  1  0.68602585  0.80390620  0.79966122  1
  In  In17  1  0.81587258  0.16951472  0.65891606  1
  In  In18  1  0.01102683  0.34335008  0.01227609  1
  In  In19  1  0.30560725  0.14169020  0.86302647  1
  In  In20  1  0.32922679  0.49853501  0.82315594  1
  In  In21  1  0.16329796  0.83748999  0.67924727  1
  In  In22  1  -0.00248130  0.67777365  0.33253304  1
  In  In23  1  0.49067238  0.49925800  -0.01132604  1
  In  In24  1  -0.01392996  0.34763720  0.64851298  1
  In  In25  1  0.50029937  0.16856140  0.66692685  1
  In  In26  1  0.67646257  -0.00538938  0.66227972  1
  In  In27  1  0.48996170  0.83429606  0.64589916  1
  In  In28  1  0.45902305  0.00470520  0.15652797  1
  In  In29  1  0.00947330  0.47935168  0.18515576  1
  In  In30  1  0.84177567  0.17023624  -0.01249340  1
  In  In31  1  0.49537497  0.68641959  0.17943777  1
  In  In32  1  0.46991519  -0.01882201  0.85245397  1
  In  In33  1  0.84175475  0.52341578  0.64133339  1
  In  In34  1  0.16445166  0.33699086  0.83119381  1
  In  In35  1  0.17819317  -0.00968570  0.16023558  1
  In  In36  1  0.50890977  0.67002554  0.50107432  1
  In  In37  1  0.02558778  0.67314605  -0.01108476  1
  In  In38  1  0.33172307  -0.03137339  0.65162443  1
  In  In39  1  0.85480312  0.37843626  0.18458895  1
  In  In40  1  -0.00764781  0.79835192  0.50091440  1
  In  In41  1  0.14451160  0.18109409  0.64772629  1
  In  In42  1  0.82794710  0.50404916  -0.00345058  1
  In  In43  1  -0.00303463  -0.00024547  0.69176997  1
  In  In44  1  0.50354000  0.50697833  0.66342019  1
  In  In45  1  0.01417360  0.16261814  0.85331706  1
  In  In46  1  0.01164404  0.84992196  0.86027520  1
  In  In47  1  0.84614787  0.84090114  0.00930310  1
  In  In48  1  0.84549151  0.33845786  0.84651817  1
  In  In49  1  0.18358565  0.16891969  0.32562181  1
  In  In50  1  0.65581534  -0.00367390  0.00792021  1
  In  In51  1  0.50349781  0.66085522  0.83450443  1
  In  In52  1  0.17360766  0.64807742  0.47655581  1
  In  In53  1  0.32358651  0.35616584  0.64937711  1
  In  In54  1  0.32425824  0.82191078  0.47801244  1
  In  In55  1  0.66327800  0.50115082  0.82115621  1
  In  In56  1  0.82738538  -0.00081942  0.50012951  1
  In  In57  1  0.49988945  0.52610049  0.32132514  1
  In  In58  1  0.65773595  0.17984923  0.17423637  1
  In  In59  1  0.83601020  0.66597159  0.18103561  1
  In  In60  1  0.47633022  0.15347256  0.00618469  1
  In  In61  1  0.81737023  0.81022088  0.35598515  1
  In  In62  1  0.64536569  -0.01301875  0.36485348  1
  In  In63  1  0.33167124  0.82221586  0.17158478  1
  In  In64  1  0.51246968  0.33540340  0.50988148  1
  In  In65  1  0.67319995  0.18740292  0.49356373  1
  In  In66  1  0.32209706  0.30971938  0.01395794  1
  In  In67  1  0.86227623  -0.01134556  0.16508632  1
  In  In68  1  0.83566485  0.01024606  0.82631701  1
  In  In69  1  0.29567180  0.80977267  0.87447541  1
  In  In70  1  0.49528022  0.31790938  0.17144619  1
  In  In71  1  0.69293867  0.35191924  0.34318098  1
  Te  Te72  1  0.09860249  0.08363379  0.07031059  1
  Te  Te73  1  0.08202085  0.08639623  0.43169432  1
  Te  Te74  1  0.10491871  0.08250625  0.75866528  1
  Te  Te75  1  0.10891076  0.41714324  0.09501834  1
  Te  Te76  1  0.09091030  0.45272800  0.35801759  1
  Te  Te77  1  0.07602108  0.42655681  0.74558915  1
  Te  Te78  1  0.06655599  0.77796519  0.08749035  1
  Te  Te79  1  0.10573145  0.76620638  0.40714632  1
  Te  Te80  1  0.07717939  0.74786461  0.76451655  1
  Te  Te81  1  0.35843580  0.08956948  0.07748876  1
  Te  Te82  1  0.40883111  0.06189728  0.44240904  1
  Te  Te83  1  0.40579097  0.07498998  0.74705666  1
  Te  Te84  1  0.40588880  0.41995025  0.09817073  1
  Te  Te85  1  0.43175298  0.41956636  0.41102930  1
  Te  Te86  1  0.42905075  0.40750360  0.75071506  1
  Te  Te87  1  0.41497863  0.74502295  0.07228214  1
  Te  Te88  1  0.42220103  0.74195617  0.40260300  1
  Te  Te89  1  0.40646858  0.77073223  0.76356916  1
  Te  Te90  1  0.75392766  0.08090613  0.09047923  1
  Te  Te91  1  0.75203256  0.09191459  0.40406224  1
  Te  Te92  1  0.72997921  0.10004459  0.76293052  1
  Te  Te93  1  0.75049824  0.39473720  0.06819860  1
  Te  Te94  1  0.75818627  0.45146424  0.42847797  1
  Te  Te95  1  0.76518570  0.41489255  0.73867897  1
  Te  Te96  1  0.74150800  0.74935791  0.08614176  1
  Te  Te97  1  0.75212248  0.72030932  0.45044941  1
  Te  Te98  1  0.77455872  0.72448275  0.71214656  1
  Te  Te99  1  0.09206941  0.25744580  0.24935081  1
  Te  Te100  1  0.09499986  0.29063238  0.55265520  1
  Te  Te101  1  0.10641408  0.24676839  0.94043566  1
  Te  Te102  1  0.09746570  0.57698841  0.27014970  1
  Te  Te103  1  0.06660414  0.57499858  0.55782108  1
  Te  Te104  1  0.12340302  0.58323744  0.92541920  1
  Te  Te105  1  0.09760993  0.89391905  0.24227570  1
  Te  Te106  1  0.07351036  0.91583775  0.58173714  1
  Te  Te107  1  0.12656356  0.93229623  0.90181612  1
  Te  Te108  1  0.39049506  0.22334296  0.22833117  1
  Te  Te109  1  0.40644308  0.24787197  0.57467531  1
  Te  Te110  1  0.40874875  0.24773119  0.90421490  1
  Te  Te111  1  0.38742780  0.59601744  0.24647434  1
  Te  Te112  1  0.40257308  0.56965014  0.56870049  1
  Te  Te113  1  0.39546126  0.59840292  0.92148822  1
  Te  Te114  1  0.41888107  0.90822123  0.25947338  1
  Te  Te115  1  0.44047549  0.93714777  0.53570107  1
  Te  Te116  1  0.38013730  0.91094535  0.94976779  1
  Te  Te117  1  0.76493648  0.26157034  0.24325555  1
  Te  Te118  1  0.77744792  0.27712859  0.55945636  1
  Te  Te119  1  0.74605427  0.24739863  0.90638401  1
  Te  Te120  1  0.72843188  0.60923834  0.27087291  1
  Te  Te121  1  0.75366929  0.62842761  0.57911255  1
  Te  Te122  1  0.75607747  0.59709714  0.89882452  1
  Te  Te123  1  0.75428283  0.92200443  0.25553804  1
  Te  Te124  1  0.74665275  0.90017869  0.57326165  1
  Te  Te125  1  0.74617218  0.91292707  0.91353928  1
  Te  Te126  1  0.26500714  0.21185508  0.10736267  1
  Te  Te127  1  0.26065110  0.24169526  0.42952485  1
  Te  Te128  1  0.25322097  0.24988033  0.74229195  1
  Te  Te129  1  0.23921486  0.59272589  0.06667360  1
  Te  Te130  1  0.26487454  0.54294204  0.43108344  1
  Te  Te131  1  0.23269250  0.59448461  0.75215506  1
  Te  Te132  1  0.25769560  0.90250483  0.06577954  1
  Te  Te133  1  0.27258360  0.92739155  0.38142350  1
  Te  Te134  1  0.24838171  0.92158546  0.77342777  1
  Te  Te135  1  0.58125648  0.25198808  0.06357329  1
  Te  Te136  1  0.57520699  0.25181533  0.38952862  1
  Te  Te137  1  0.58066417  0.25330947  0.75702646  1
  Te  Te138  1  0.58453395  0.57452423  0.09107251  1
  Te  Te139  1  0.59202738  0.56845033  0.42796652  1
  Te  Te140  1  0.59805726  0.60681803  0.72944669  1
  Te  Te141  1  0.55629784  0.90825145  0.08004913  1
  Te  Te142  1  0.56806544  0.89577123  0.44776840  1
  Te  Te143  1  0.57725208  0.91730939  0.75157301  1
  Te  Te144  1  0.91504502  0.25531792  0.09297786  1
  Te  Te145  1  0.89259060  0.26855767  0.39540535  1
  Te  Te146  1  0.92842554  0.23878884  0.75055809  1
  Te  Te147  1  0.92434332  0.57986234  0.09128512  1
  Te  Te148  1  0.91651528  0.60464986  0.43236166  1
  Te  Te149  1  0.92523243  0.56452142  0.75759440  1
  Te  Te150  1  0.95695346  0.91424430  0.07784989  1
  Te  Te151  1  0.92497892  0.91492482  0.41503597  1
  Te  Te152  1  0.90412569  0.89761049  0.75167009  1
  Te  Te153  1  0.25735172  0.04735336  0.27751877  1
  Te  Te154  1  0.25005446  0.08319889  0.58753598  1
  Te  Te155  1  0.20854548  0.06114346  0.94149047  1
  Te  Te156  1  0.22290171  0.39826887  0.26251639  1
  Te  Te157  1  0.24948392  0.43315499  0.53911851  1
  Te  Te158  1  0.25172488  0.41729113  0.92736256  1
  Te  Te159  1  0.24790252  0.73726151  0.26208296  1
  Te  Te160  1  0.24871247  0.74694958  0.58924062  1
  Te  Te161  1  0.19428744  0.71930637  0.94009614  1
  Te  Te162  1  0.57692778  0.07143475  0.24483616  1
  Te  Te163  1  0.59099782  0.08810201  0.57345863  1
  Te  Te164  1  0.57267031  0.07983515  0.91091590  1
  Te  Te165  1  0.58962312  0.41753462  0.24013836  1
  Te  Te166  1  0.60683735  0.43595871  0.57572682  1
  Te  Te167  1  0.58295163  0.41551294  0.91062165  1
  Te  Te168  1  0.57843722  0.75456410  0.28171957  1
  Te  Te169  1  0.59984648  0.75933575  0.58083229  1
  Te  Te170  1  0.57723654  0.77017034  0.91084618  1
  Te  Te171  1  0.91547097  0.09078975  0.26552122  1
  Te  Te172  1  0.92565677  0.08972652  0.58688496  1
  Te  Te173  1  0.93324298  0.05996060  0.93289994  1
  Te  Te174  1  0.95098798  0.39018148  0.31525267  1
  Te  Te175  1  0.92086505  0.43509909  0.54939249  1
  Te  Te176  1  0.94018155  0.43746281  0.91504913  1
  Te  Te177  1  0.91832817  0.77573051  0.24510255  1
  Te  Te178  1  0.89549097  0.75569787  0.60658313  1
  Te  Te179  1  0.91066177  0.74120452  0.91411998  1
