# generated using pymatgen
data_In2Te3
_symmetry_space_group_name_H-M   'P 1'
_cell_length_a   18.78039390
_cell_length_b   18.77534665
_cell_length_c   18.77131755
_cell_angle_alpha   90.05854581
_cell_angle_beta   90.01019162
_cell_angle_gamma   90.07662671
_symmetry_Int_Tables_number   1
_chemical_formula_structural   In2Te3
_chemical_formula_sum   'In72 Te108'
_cell_volume   6618.91487411
_cell_formula_units_Z   36
loop_
 _symmetry_equiv_pos_site_id
 _symmetry_equiv_pos_as_xyz
  1  'x, y, z'
loop_
 _atom_site_type_symbol
 _atom_site_label
 _atom_site_symmetry_multiplicity
 _atom_site_fract_x
 _atom_site_fract_y
 _atom_site_fract_z
 _atom_site_occupancy
  In  In0  1  0.50570902  0.35069439  0.52569829  1
  In  In1  1  0.49027246  0.17111281  -0.02903660  1
  In  In2  1  0.83689067  0.48524731  0.67175959  1
  In  In3  1  0.31985333  0.48430186  0.15103157  1
  In  In4  1  0.00367659  0.01143831  0.67026807  1
  In  In5  1  0.68104640  0.52678944  0.15669425  1
  In  In6  1  0.34438276  0.83765131  0.51473975  1
  In  In7  1  0.16018422  -0.00716261  0.49745482  1
  In  In8  1  0.66411401  0.65575309  -0.01223799  1
  In  In9  1  0.30415419  0.80170453  0.18461650  1
  In  In10  1  0.64989193  0.85616501  0.16788526  1
  In  In11  1  0.15673582  0.31385947  0.14133227  1
  In  In12  1  0.66933623  -0.00311304  0.34851005  1
  In  In13  1  0.02641049  0.33073063  0.33364431  1
  In  In14  1  0.51454193  0.69787061  0.53105163  1
  In  In15  1  0.01290206  0.83246847  0.51061673  1
  In  In16  1  0.86697169  0.31271949  0.14045125  1
  In  In17  1  -0.00251618  0.64793137  0.68849050  1
  In  In18  1  0.68990414  0.16879565  0.84292206  1
  In  In19  1  0.66951256  0.83025236  0.84252771  1
  In  In20  1  0.83596252  0.33233890  0.52938924  1
  In  In21  1  -0.00316771  -0.00472652  0.30517645  1
  In  In22  1  0.50061964  0.67086053  0.14876358  1
  In  In23  1  0.70115744  0.17692742  0.51372690  1
  In  In24  1  0.84322891  0.48447661  0.32412013  1
  In  In25  1  0.30078157  0.34879566  0.31091376  1
  In  In26  1  0.48098551  -0.02948087  0.52515728  1
  In  In27  1  0.01610087  0.64032926  0.30516194  1
  In  In28  1  0.50135637  0.13712411  0.69135420  1
  In  In29  1  0.47759856  0.36040870  0.13532707  1
  In  In30  1  -0.01267832  0.68457036  0.00889434  1
  In  In31  1  0.82713804  0.64130616  0.15578368  1
  In  In32  1  -0.00305734  0.17384858  0.84125793  1
  In  In33  1  0.34614985  0.67723765  -0.00874066  1
  In  In34  1  0.18286812  0.84244657  -0.00581201  1
  In  In35  1  0.17182921  0.66316437  0.84475637  1
  In  In36  1  0.34275128  0.65847882  0.66294505  1
  In  In37  1  0.70343146  0.17330367  0.13198430  1
  In  In38  1  0.16640946  0.34637350  0.49140205  1
  In  In39  1  -0.00865902  0.16238368  0.49231902  1
  In  In40  1  0.64744152  0.51146294  0.51945645  1
  In  In41  1  0.17140753  0.67700195  0.48839895  1
  In  In42  1  0.82280517  0.83859835  0.68980965  1
  In  In43  1  0.67283808  0.33959860  0.31789982  1
  In  In44  1  0.85924679  0.01994664  0.14448225  1
  In  In45  1  0.00512110  0.83223006  0.84891554  1
  In  In46  1  0.16811736  0.33380572  0.83295230  1
  In  In47  1  0.51032134  0.00884397  0.13956877  1
  In  In48  1  0.48632040  0.34159740  0.84421714  1
  In  In49  1  0.50860091  0.50514812  0.69722922  1
  In  In50  1  0.50410437  0.16550098  0.33289294  1
  In  In51  1  0.84916952  0.48363881  -0.01529308  1
  In  In52  1  0.48240066  0.81337007  0.32744551  1
  In  In53  1  0.30144521  0.50794978  0.50578489  1
  In  In54  1  0.32614816  0.18498114  0.51235643  1
  In  In55  1  0.47760357  -0.01188694  0.83848004  1
  In  In56  1  0.16182214  0.49004396  0.67808318  1
  In  In57  1  0.66107855  0.33275834  -0.02112756  1
  In  In58  1  0.15748407  0.48518868  0.00552258  1
  In  In59  1  0.01150888  0.83214731  0.16719330  1
  In  In60  1  0.83486108  0.83201204  0.35639708  1
  In  In61  1  0.32337531  0.17247565  0.14707949  1
  In  In62  1  0.31842090  0.00483012  0.32444371  1
  In  In63  1  -0.00968535  0.32173422  0.68231227  1
  In  In64  1  0.13683201  0.01996136  0.13517210  1
  In  In65  1  0.81724485  0.00678829  0.53205420  1
  In  In66  1  0.82209391  0.66195098  0.49310022  1
  In  In67  1  0.66473416  0.00929688  0.68118441  1
  In  In68  1  0.17720361  0.14885636  0.67970195  1
  In  In69  1  0.49281513  0.67081671  0.83054989  1
  In  In70  1  0.47957082  0.51100127  0.34055981  1
  In  In71  1  0.82751023  0.84491217  -0.01043584  1
  Te  Te72  1  0.06265631  0.11702487  0.04443220  1
  Te  Te73  1  0.08490393  0.08360486  0.40262154  1
  Te  Te74  1  0.09444052  0.06992901  0.77926847  1
  Te  Te75  1  0.05656202  0.39375297  0.06520922  1
  Te  Te76  1  0.08151358  0.44030606  0.41792266  1
  Te  Te77  1  0.05801177  0.43047191  0.77566656  1
  Te  Te78  1  0.10414234  0.74383375  0.08558641  1
  Te  Te79  1  0.07399529  0.75343378  0.39734970  1
  Te  Te80  1  0.09096959  0.75239925  0.75011614  1
  Te  Te81  1  0.40235341  0.07747968  0.05715858  1
  Te  Te82  1  0.41140438  0.08052766  0.42263207  1
  Te  Te83  1  0.38244293  0.08504824  0.76864705  1
  Te  Te84  1  0.38700156  0.41909055  0.03348085  1
  Te  Te85  1  0.40460573  0.40102917  0.41993390  1
  Te  Te86  1  0.40359648  0.41463591  0.74372898  1
  Te  Te87  1  0.41659259  0.77971077  0.08415119  1
  Te  Te88  1  0.40560962  0.72832545  0.42646633  1
  Te  Te89  1  0.41999003  0.76292744  0.73620360  1
  Te  Te90  1  0.75428361  0.06386179  0.04810811  1
  Te  Te91  1  0.77385103  0.09078575  0.40940064  1
  Te  Te92  1  0.77099514  0.07543319  0.75869851  1
  Te  Te93  1  0.75136869  0.40802746  0.09302597  1
  Te  Te94  1  0.74361641  0.42245179  0.43133570  1
  Te  Te95  1  0.74645815  0.38321554  0.72862581  1
  Te  Te96  1  0.74630722  0.75164831  0.08730640  1
  Te  Te97  1  0.73002513  0.75415362  0.42359019  1
  Te  Te98  1  0.74947924  0.73302454  0.76266361  1
  Te  Te99  1  0.08008224  0.23093261  0.23809947  1
  Te  Te100  1  0.08897396  0.24112784  0.58595310  1
  Te  Te101  1  0.09308318  0.24828332  0.93225485  1
  Te  Te102  1  0.12284111  0.58058626  0.22359731  1
  Te  Te103  1  0.08907323  0.58530820  0.58310937  1
  Te  Te104  1  0.07013530  0.58668016  0.92348295  1
  Te  Te105  1  0.11021511  0.91204074  0.24979046  1
  Te  Te106  1  0.09987011  0.90868649  0.61071161  1
  Te  Te107  1  0.08931560  0.93089767  0.92145526  1
  Te  Te108  1  0.41471605  0.25887335  0.24480710  1
  Te  Te109  1  0.42742562  0.24744466  0.60662147  1
  Te  Te110  1  0.38414898  0.24678995  0.90138163  1
  Te  Te111  1  0.40376826  0.58730009  0.23294241  1
  Te  Te112  1  0.42723353  0.56635127  0.57111568  1
  Te  Te113  1  0.41562887  0.57363109  0.91255672  1
  Te  Te114  1  0.42544928  0.92924667  0.24450510  1
  Te  Te115  1  0.40560620  0.90297303  0.63496651  1
  Te  Te116  1  0.37421279  0.91270768  0.91741112  1
  Te  Te117  1  0.77139233  0.24775051  0.24756779  1
  Te  Te118  1  0.75216512  0.25755900  0.63065613  1
  Te  Te119  1  0.77811566  0.26408503  0.91966567  1
  Te  Te120  1  0.74688856  0.59404883  0.27758079  1
  Te  Te121  1  0.74547211  0.59153612  0.60407653  1
  Te  Te122  1  0.74370612  0.55733264  0.91133832  1
  Te  Te123  1  0.76618696  0.92464704  0.24590394  1
  Te  Te124  1  0.72485867  0.89422250  0.57877200  1
  Te  Te125  1  0.75452463  0.93825915  0.90181328  1
  Te  Te126  1  0.25219463  0.25161253  0.04487561  1
  Te  Te127  1  0.23678385  0.24233945  0.40256586  1
  Te  Te128  1  0.26088197  0.23985972  0.76168502  1
  Te  Te129  1  0.24639640  0.59574906  0.07173162  1
  Te  Te130  1  0.25105460  0.59100858  0.39312648  1
  Te  Te131  1  0.26130471  0.57251919  0.75992974  1
  Te  Te132  1  0.25380746  0.92302856  0.10394076  1
  Te  Te133  1  0.24823093  0.90087688  0.41173769  1
  Te  Te134  1  0.27801194  0.95599310  0.78939871  1
  Te  Te135  1  0.57530111  0.24647630  0.08674046  1
  Te  Te136  1  0.59253192  0.26174017  0.42665198  1
  Te  Te137  1  0.57967680  0.24134290  0.76752113  1
  Te  Te138  1  0.56593158  0.56293453  0.06361970  1
  Te  Te139  1  0.57555270  0.59938190  0.41934890  1
  Te  Te140  1  0.60144811  0.60572312  0.75055066  1
  Te  Te141  1  0.58751398  0.91917154  0.05067877  1
  Te  Te142  1  0.56917609  0.90515442  0.41709687  1
  Te  Te143  1  0.57451588  0.90810944  0.74841756  1
  Te  Te144  1  0.93259589  0.20897315  0.05357351  1
  Te  Te145  1  0.91010344  0.26397505  0.41442894  1
  Te  Te146  1  0.89432100  0.27349531  0.78912831  1
  Te  Te147  1  0.93625219  0.56349182  0.08854862  1
  Te  Te148  1  0.92460585  0.58022432  0.41394505  1
  Te  Te149  1  0.90905465  0.56681307  0.77687550  1
  Te  Te150  1  0.94086816  0.91834006  0.06379119  1
  Te  Te151  1  0.92475631  0.93559723  0.43715444  1
  Te  Te152  1  0.91701900  0.92985987  0.76700904  1
  Te  Te153  1  0.23080917  0.09467509  0.23956754  1
  Te  Te154  1  0.26377837  0.06549078  0.58442909  1
  Te  Te155  1  0.27231389  0.03319414  0.91238428  1
  Te  Te156  1  0.20156005  0.44161634  0.24363935  1
  Te  Te157  1  0.25872863  0.39756141  0.60191209  1
  Te  Te158  1  0.25648139  0.42791082  0.91022760  1
  Te  Te159  1  0.23492871  0.70095768  0.26580119  1
  Te  Te160  1  0.24274349  0.75450432  0.59812032  1
  Te  Te161  1  0.27246773  0.76869314  0.88993969  1
  Te  Te162  1  0.60273536  0.08504277  0.23947110  1
  Te  Te163  1  0.58652429  0.08444544  0.56414374  1
  Te  Te164  1  0.58594740  0.07300823  0.90789864  1
  Te  Te165  1  0.57238573  0.42936471  0.24539122  1
  Te  Te166  1  0.61081616  0.40420503  0.62264621  1
  Te  Te167  1  0.58796422  0.43459397  0.90362604  1
  Te  Te168  1  0.59248887  0.74042326  0.24958429  1
  Te  Te169  1  0.60864809  0.78755386  0.59675504  1
  Te  Te170  1  0.56772165  0.75939373  0.93333484  1
  Te  Te171  1  0.93510385  0.11006622  0.23551256  1
  Te  Te172  1  0.90519412  0.10896360  0.60675123  1
  Te  Te173  1  0.92871543  0.09154161  0.94811127  1
  Te  Te174  1  0.93971640  0.41235385  0.23309758  1
  Te  Te175  1  0.94504198  0.42607180  0.57909976  1
  Te  Te176  1  0.92818741  0.42317311  0.87241638  1
  Te  Te177  1  0.90978326  0.74940602  0.24633571  1
  Te  Te178  1  0.91468566  0.74924568  0.59321255  1
  Te  Te179  1  0.89429514  0.73871074  0.90169666  1
