# generated using pymatgen
data_In2Te3
_symmetry_space_group_name_H-M   'P 1'
_cell_length_a   19.02411434
_cell_length_b   18.95551407
_cell_length_c   19.00204525
_cell_angle_alpha   89.85070191
_cell_angle_beta   90.11455491
_cell_angle_gamma   89.71061708
_symmetry_Int_Tables_number   1
_chemical_formula_structural   In2Te3
_chemical_formula_sum   'In72 Te108'
_cell_volume   6852.23847345
_cell_formula_units_Z   36
loop_
 _symmetry_equiv_pos_site_id
 _symmetry_equiv_pos_as_xyz
  1  'x, y, z'
loop_
 _atom_site_type_symbol
 _atom_site_label
 _atom_site_symmetry_multiplicity
 _atom_site_fract_x
 _atom_site_fract_y
 _atom_site_fract_z
 _atom_site_occupancy
  In  In0  1  0.84437586  0.66522150  0.51437276  1
  In  In1  1  0.00973504  0.66360526  0.64878041  1
  In  In2  1  0.50035478  -0.01177677  0.83058426  1
  In  In3  1  0.48891778  0.81653056  -0.03663189  1
  In  In4  1  0.52779263  0.18928397  0.66855903  1
  In  In5  1  0.32688045  0.33378157  0.66716735  1
  In  In6  1  0.65651597  0.64836157  0.66623980  1
  In  In7  1  0.17332931  0.48958287  -0.00827176  1
  In  In8  1  0.68248801  0.82872909  0.17236315  1
  In  In9  1  0.69174926  0.33733985  0.33826211  1
  In  In10  1  0.00613861  0.83375108  0.16661724  1
  In  In11  1  0.83364080  0.01377148  0.47836307  1
  In  In12  1  0.44432647  0.04358391  0.14082163  1
  In  In13  1  0.90711434  0.17451670  0.37542081  1
  In  In14  1  0.16362073  0.33417962  0.16543915  1
  In  In15  1  0.84893883  0.01428183  0.17904922  1
  In  In16  1  0.67219396  0.16672277  0.16636284  1
  In  In17  1  0.15327965  0.03619384  0.47247359  1
  In  In18  1  0.64766549  0.33811607  0.01809472  1
  In  In19  1  0.66499789  0.48711762  0.16234051  1
  In  In20  1  0.67228202  0.81718331  0.49229570  1
  In  In21  1  0.33356438  0.81609095  0.81136207  1
  In  In22  1  0.30551740  0.81257283  0.50959309  1
  In  In23  1  0.84347163  0.82248355  0.66949306  1
  In  In24  1  -0.01538091  0.01439085  0.00688354  1
  In  In25  1  0.32946351  0.49702042  0.13568856  1
  In  In26  1  0.85130125  0.46805170  0.65541259  1
  In  In27  1  0.49630345  0.68021343  0.16599488  1
  In  In28  1  0.16825159  0.65012694  0.51509691  1
  In  In29  1  0.33546125  0.82944658  0.16569735  1
  In  In30  1  0.46417162  0.51866692  -0.02361702  1
  In  In31  1  0.85220379  0.37206049  0.13609498  1
  In  In32  1  0.16899377  0.82697637  0.64420546  1
  In  In33  1  0.66984584  0.80197808  0.83546318  1
  In  In34  1  0.29555235  0.65206133  0.32529370  1
  In  In35  1  0.32319459  -0.01197308  0.65830451  1
  In  In36  1  0.83058154  0.79882547  -0.02010875  1
  In  In37  1  0.65384182  0.15532758  0.84842399  1
  In  In38  1  0.15523319  0.20642962  0.67808937  1
  In  In39  1  0.00866932  0.21073885  0.83034668  1
  In  In40  1  0.34417376  0.33982597  0.34836519  1
  In  In41  1  0.86800103  0.20998986  -0.00726331  1
  In  In42  1  0.83352768  0.57278752  0.85311048  1
  In  In43  1  0.15992663  0.84069269  0.01449859  1
  In  In44  1  0.84735312  0.83542409  0.32674441  1
  In  In45  1  0.49549750  0.49051335  0.34791282  1
  In  In46  1  0.84589378  0.63535709  0.12052345  1
  In  In47  1  0.16552885  0.17539392  -0.02068866  1
  In  In48  1  0.17313464  0.64676890  0.82904900  1
  In  In49  1  0.53028817  0.48022642  0.65206671  1
  In  In50  1  0.83903340  0.51712609  0.34548825  1
  In  In51  1  0.48807443  -0.02404934  0.50946487  1
  In  In52  1  0.64934552  -0.00432387  0.66435263  1
  In  In53  1  0.50532438  0.82285298  0.36086042  1
  In  In54  1  0.49250072  0.31424256  0.84926070  1
  In  In55  1  0.69086454  0.19560301  0.49319594  1
  In  In56  1  0.15893891  0.34172847  0.51878692  1
  In  In57  1  0.32139714  0.00520778  0.30802069  1
  In  In58  1  0.79522325  0.19122742  0.64509553  1
  In  In59  1  0.46743931  0.32667083  0.15200037  1
  In  In60  1  0.68226190  -0.03267993  0.02118672  1
  In  In61  1  0.01550248  0.35091731  0.35957770  1
  In  In62  1  0.15449253  0.00719140  0.17800214  1
  In  In63  1  0.52029888  0.15947967  0.31837650  1
  In  In64  1  -0.01546812  0.82369854  0.85111519  1
  In  In65  1  0.00000294  0.01318286  0.66454692  1
  In  In66  1  0.50407138  0.63327238  0.50684116  1
  In  In67  1  0.89265046  0.37770870  0.84132226  1
  In  In68  1  0.15528498  0.67003192  0.16531155  1
  In  In69  1  0.01661816  0.66701543  0.35103457  1
  In  In70  1  0.32600888  0.15304647  0.82327375  1
  In  In71  1  0.34261097  0.17486099  0.50525421  1
  Te  Te72  1  0.07928814  0.10019080  0.08285245  1
  Te  Te73  1  0.04278096  0.11042556  0.41296377  1
  Te  Te74  1  0.08524199  0.09724867  0.75540807  1
  Te  Te75  1  0.08812377  0.45288159  0.10997651  1
  Te  Te76  1  0.11694538  0.44261926  0.41734843  1
  Te  Te77  1  0.03674367  0.35886962  0.79727641  1
  Te  Te78  1  0.06222508  0.73725145  0.06398753  1
  Te  Te79  1  0.10380854  0.75183387  0.43057209  1
  Te  Te80  1  0.07956273  0.75654864  0.75177703  1
  Te  Te81  1  0.36187410  0.13464082  0.06278676  1
  Te  Te82  1  0.42268942  0.07941523  0.41702603  1
  Te  Te83  1  0.43384719  0.07995904  0.72225160  1
  Te  Te84  1  0.39165992  0.39617609  0.03928423  1
  Te  Te85  1  0.40163959  0.43478456  0.44463043  1
  Te  Te86  1  0.43027430  0.40686728  0.74860553  1
  Te  Te87  1  0.40102440  0.73985494  0.06446508  1
  Te  Te88  1  0.39768295  0.73157505  0.41600969  1
  Te  Te89  1  0.44425061  0.71894569  0.80085262  1
  Te  Te90  1  0.76462154  0.08879706  0.07356162  1
  Te  Te91  1  0.76344656  0.11437563  0.38914070  1
  Te  Te92  1  0.73899531  0.08433133  0.74499566  1
  Te  Te93  1  0.75769786  0.44431612  0.03852112  1
  Te  Te94  1  0.72588959  0.45493871  0.42151963  1
  Te  Te95  1  0.76952516  0.44932178  0.78393741  1
  Te  Te96  1  0.72864926  0.72891986  0.06811165  1
  Te  Te97  1  0.76274160  0.73406455  0.40640134  1
  Te  Te98  1  0.76570715  0.72180145  0.74831155  1
  Te  Te99  1  0.08551525  0.26102102  0.26586506  1
  Te  Te100  1  0.05134711  0.26585815  0.59038647  1
  Te  Te101  1  0.08209422  0.29247048  0.93431096  1
  Te  Te102  1  0.08329887  0.57994053  0.25486133  1
  Te  Te103  1  0.10830788  0.55793337  0.61562675  1
  Te  Te104  1  0.07692223  0.55553218  0.89579577  1
  Te  Te105  1  0.07320656  0.91876787  0.26258087  1
  Te  Te106  1  0.09066076  0.93681701  0.57091111  1
  Te  Te107  1  0.07257853  0.92417162  0.92214373  1
  Te  Te108  1  0.40511924  0.23454222  0.25458232  1
  Te  Te109  1  0.43514243  0.26839378  0.57789339  1
  Te  Te110  1  0.42692090  0.20212008  0.92086129  1
  Te  Te111  1  0.40730774  0.58310337  0.24494103  1
  Te  Te112  1  0.41788670  0.56090767  0.59766561  1
  Te  Te113  1  0.38276961  0.60264858  0.88321358  1
  Te  Te114  1  0.42961444  0.90700411  0.25592886  1
  Te  Te115  1  0.41243641  0.88127089  0.59748932  1
  Te  Te116  1  0.39237776  0.92181850  0.90954225  1
  Te  Te117  1  0.76050510  0.27659479  0.21902655  1
  Te  Te118  1  0.71865606  0.31051919  0.58654256  1
  Te  Te119  1  0.73858264  0.25420491  0.92849355  1
  Te  Te120  1  0.75604168  0.58294501  0.23175264  1
  Te  Te121  1  0.75614716  0.56764436  0.58545313  1
  Te  Te122  1  0.75109848  0.58639741  0.97422227  1
  Te  Te123  1  0.75011232  0.93215808  0.25879707  1
  Te  Te124  1  0.75509375  0.91395428  0.58249034  1
  Te  Te125  1  0.75575127  0.90779311  0.90250040  1
  Te  Te126  1  0.25291763  0.24721605  0.07946189  1
  Te  Te127  1  0.24440981  0.25414494  0.42426756  1
  Te  Te128  1  0.24438006  0.27335482  0.77991001  1
  Te  Te129  1  0.24872535  0.60342333  0.06661056  1
  Te  Te130  1  0.24070053  0.55690046  0.42331285  1
  Te  Te131  1  0.26886575  0.53427923  0.79733702  1
  Te  Te132  1  0.25431607  0.93181528  0.08854194  1
  Te  Te133  1  0.25902781  0.93507829  0.42679629  1
  Te  Te134  1  0.23073677  0.91594598  0.75053035  1
  Te  Te135  1  0.56328791  0.23101523  0.08110799  1
  Te  Te136  1  0.57956122  0.26278551  0.40900284  1
  Te  Te137  1  0.61122117  0.27311983  0.75983139  1
  Te  Te138  1  0.56013088  0.56818391  0.08636435  1
  Te  Te139  1  0.59157195  0.58767774  0.39965880  1
  Te  Te140  1  0.58644978  0.56300586  0.76028761  1
  Te  Te141  1  0.57429283  0.88027896  0.07720209  1
  Te  Te142  1  0.59926274  0.92858371  0.41731348  1
  Te  Te143  1  0.57904965  0.89061398  0.74609898  1
  Te  Te144  1  0.95229336  0.27376301  0.09093407  1
  Te  Te145  1  0.89616670  0.30724564  0.44439288  1
  Te  Te146  1  0.88372984  0.25470809  0.74712206  1
  Te  Te147  1  0.95599554  0.54503997  0.08163204  1
  Te  Te148  1  0.94091371  0.57275618  0.44336529  1
  Te  Te149  1  0.93443391  0.56707138  0.73465803  1
  Te  Te150  1  0.89831876  0.90302561  0.07537126  1
  Te  Te151  1  0.92629726  0.92284283  0.41197664  1
  Te  Te152  1  0.91622674  0.92216325  0.75522091  1
  Te  Te153  1  0.22581462  0.10411794  0.26283889  1
  Te  Te154  1  0.24418960  0.10327127  0.59671623  1
  Te  Te155  1  0.23187042  0.07196022  0.89854869  1
  Te  Te156  1  0.26347857  0.42010177  0.24558802  1
  Te  Te157  1  0.22387008  0.43013378  0.61949414  1
  Te  Te158  1  0.27757029  0.42776327  0.90763253  1
  Te  Te159  1  0.22999994  0.76970494  0.25433025  1
  Te  Te160  1  0.26740696  0.71615312  0.61919335  1
  Te  Te161  1  0.23635304  0.75691244  0.91189357  1
  Te  Te162  1  0.57800145  0.06132885  0.22004038  1
  Te  Te163  1  0.58997994  0.09160177  0.56208716  1
  Te  Te164  1  0.58493292  0.05393611  0.93717472  1
  Te  Te165  1  0.56891091  0.39840523  0.24069417  1
  Te  Te166  1  0.61508651  0.41950777  0.54804238  1
  Te  Te167  1  0.57128821  0.42476438  0.92018727  1
  Te  Te168  1  0.59234863  0.74531444  0.26264476  1
  Te  Te169  1  0.57576950  0.74671216  0.58237438  1
  Te  Te170  1  0.57716773  0.71105293  0.90627224  1
  Te  Te171  1  0.94214457  0.09839562  0.25240073  1
  Te  Te172  1  0.90167460  0.09740677  0.58509844  1
  Te  Te173  1  0.91799559  0.10117495  0.90325455  1
  Te  Te174  1  0.92091198  0.42563854  0.26013451  1
  Te  Te175  1  0.94055383  0.38623899  0.57112479  1
  Te  Te176  1  0.94736256  0.46839466  0.94727805  1
  Te  Te177  1  0.91005111  0.73459858  0.23126367  1
  Te  Te178  1  0.93971349  0.77067535  0.56602686  1
  Te  Te179  1  0.91412258  0.70198307  0.90312677  1
