# generated using pymatgen
data_In2Te3
_symmetry_space_group_name_H-M   'P 1'
_cell_length_a   18.99833490
_cell_length_b   19.00001399
_cell_length_c   18.99439594
_cell_angle_alpha   90.12514878
_cell_angle_beta   90.12424189
_cell_angle_gamma   90.06674198
_symmetry_Int_Tables_number   1
_chemical_formula_structural   In2Te3
_chemical_formula_sum   'In72 Te108'
_cell_volume   6856.34389351
_cell_formula_units_Z   36
loop_
 _symmetry_equiv_pos_site_id
 _symmetry_equiv_pos_as_xyz
  1  'x, y, z'
loop_
 _atom_site_type_symbol
 _atom_site_label
 _atom_site_symmetry_multiplicity
 _atom_site_fract_x
 _atom_site_fract_y
 _atom_site_fract_z
 _atom_site_occupancy
  In  In0  1  0.14489790  0.67617072  0.83260304  1
  In  In1  1  0.51222439  0.14145702  0.64885969  1
  In  In2  1  0.00770515  0.35327172  -0.01674541  1
  In  In3  1  0.83932240  0.53202671  0.01471655  1
  In  In4  1  0.33548425  0.16870738  0.16515679  1
  In  In5  1  0.80675278  0.33654133  0.83854282  1
  In  In6  1  0.83559363  0.34246949  0.14775320  1
  In  In7  1  0.49725035  0.33905447  0.50825011  1
  In  In8  1  0.32530782  0.52010765  0.82548676  1
  In  In9  1  0.68143004  0.51303543  0.84199865  1
  In  In10  1  0.31944507  0.01933532  0.33578894  1
  In  In11  1  0.33199436  0.17571579  0.50229432  1
  In  In12  1  0.18667780  0.34429494  0.81856772  1
  In  In13  1  0.13539145  0.14054064  0.39210582  1
  In  In14  1  0.48853002  -0.00440873  0.18339939  1
  In  In15  1  0.15744132  0.68567775  0.52169579  1
  In  In16  1  0.67278923  0.82917018  0.17298587  1
  In  In17  1  -0.01704111  0.84324438  0.82754725  1
  In  In18  1  0.15174032  0.48989288  0.65401302  1
  In  In19  1  0.84540265  0.51760151  0.69470861  1
  In  In20  1  -0.00417225  0.33424728  0.33680852  1
  In  In21  1  0.81451579  0.31918711  0.49382306  1
  In  In22  1  0.85050693  0.52504972  0.30514751  1
  In  In23  1  0.49369680  0.33498519  0.14159585  1
  In  In24  1  0.83302938  0.81262372  0.01963461  1
  In  In25  1  0.67186999  0.32735319  0.32887167  1
  In  In26  1  0.14534903  0.77873679  0.01733528  1
  In  In27  1  0.34758713  0.83491506  0.49095467  1
  In  In28  1  0.84527624  0.16157641  0.65367885  1
  In  In29  1  0.33812315  0.65295277  0.01819336  1
  In  In30  1  -0.02878651  -0.01706016  -0.01995593  1
  In  In31  1  0.33572268  0.19639684  0.83514393  1
  In  In32  1  0.50735867  0.17291582  0.31960330  1
  In  In33  1  0.51786049  0.34064550  0.83380314  1
  In  In34  1  -0.01920514  0.83294411  0.51140665  1
  In  In35  1  0.17509664  0.82206291  0.33913308  1
  In  In36  1  0.15058616  -0.02779184  0.15663075  1
  In  In37  1  0.51329182  0.65244488  0.17765039  1
  In  In38  1  0.00032910  0.14986710  0.84097838  1
  In  In39  1  0.00500304  0.33845987  0.66230536  1
  In  In40  1  0.51365492  0.64085112  0.51106904  1
  In  In41  1  -0.01702483  0.51472289  0.47901965  1
  In  In42  1  0.66630533  0.18684896  0.17051296  1
  In  In43  1  0.33414359  0.82553446  0.16681204  1
  In  In44  1  0.32718346  0.01442056  0.66764433  1
  In  In45  1  0.84369827  0.13620280  0.35604959  1
  In  In46  1  0.65619201  0.49449907  0.16018355  1
  In  In47  1  0.17425418  0.16967935  0.02621238  1
  In  In48  1  0.34168185  0.50747603  0.50171512  1
  In  In49  1  0.15067383  0.53394689  0.30207691  1
  In  In50  1  0.83677266  0.79935363  0.30977698  1
  In  In51  1  0.18295341  0.35307980  0.17967532  1
  In  In52  1  0.17379430  0.32677972  0.49770003  1
  In  In53  1  0.53846728  -0.02360239  0.48709306  1
  In  In54  1  0.33734724  0.65354555  0.31684966  1
  In  In55  1  -0.01797240  0.18200884  0.16186507  1
  In  In56  1  0.17478825  0.86353489  0.66085982  1
  In  In57  1  0.67823022  0.15089377  0.80029968  1
  In  In58  1  0.68498489  0.67439368  0.66184050  1
  In  In59  1  0.50414243  0.67874060  0.85043728  1
  In  In60  1  0.65465832  0.66133524  0.34239255  1
  In  In61  1  0.82689905  -0.01720155  0.49583944  1
  In  In62  1  0.66772687  0.82617630  0.83096233  1
  In  In63  1  0.15153026  -0.00247131  0.83194354  1
  In  In64  1  0.13733272  0.53910841  -0.00386822  1
  In  In65  1  0.50531873  0.48279121  0.66805116  1
  In  In66  1  0.83844815  -0.00278528  0.17752227  1
  In  In67  1  0.51855639  -0.02018967  0.83871915  1
  In  In68  1  0.36917540  0.01258733  -0.01454017  1
  In  In69  1  0.83554071  0.85581873  0.66531204  1
  In  In70  1  0.67982979  0.00229417  0.00731216  1
  In  In71  1  0.50921542  0.81728901  0.67785762  1
  Te  Te72  1  0.05944591  0.08265438  0.07250296  1
  Te  Te73  1  0.04595651  0.04951715  0.46089682  1
  Te  Te74  1  0.07676399  0.07986614  0.73869362  1
  Te  Te75  1  0.08389537  0.42682249  0.08992892  1
  Te  Te76  1  0.09196110  0.42790340  0.41312898  1
  Te  Te77  1  0.07050581  0.42747786  0.76690008  1
  Te  Te78  1  0.04915687  0.70927498  0.10308216  1
  Te  Te79  1  0.06898285  0.74728151  0.41791642  1
  Te  Te80  1  0.07847606  0.77131393  0.73537918  1
  Te  Te81  1  0.44279884  0.10211784  0.08253250  1
  Te  Te82  1  0.42959337  0.08269552  0.41997003  1
  Te  Te83  1  0.42421656  0.08480477  0.76638069  1
  Te  Te84  1  0.38821098  0.38642193  0.05486989  1
  Te  Te85  1  0.40916427  0.41133191  0.41667605  1
  Te  Te86  1  0.40468527  0.41210386  0.75566311  1
  Te  Te87  1  0.43408872  0.74897400  0.08682092  1
  Te  Te88  1  0.42179653  0.72486957  0.41979212  1
  Te  Te89  1  0.41199227  0.75109615  0.76220347  1
  Te  Te90  1  0.76371752  0.09583892  0.09222625  1
  Te  Te91  1  0.73273219  0.07871252  0.43074660  1
  Te  Te92  1  0.77976560  0.06069787  0.74084681  1
  Te  Te93  1  0.74255175  0.41893896  0.06102653  1
  Te  Te94  1  0.77113589  0.42174451  0.39143864  1
  Te  Te95  1  0.73470319  0.41916533  0.73563118  1
  Te  Te96  1  0.73349216  0.72753593  0.08710400  1
  Te  Te97  1  0.75870453  0.73480824  0.41709917  1
  Te  Te98  1  0.77351004  0.74669478  0.75936183  1
  Te  Te99  1  0.08749041  0.25225333  0.24546113  1
  Te  Te100  1  0.08306306  0.24738259  0.57943782  1
  Te  Te101  1  0.10187355  0.24994877  0.91739569  1
  Te  Te102  1  0.03987026  0.61607279  0.25124364  1
  Te  Te103  1  0.05991230  0.58972143  0.58723274  1
  Te  Te104  1  0.03468974  0.59988592  0.90080601  1
  Te  Te105  1  0.07852468  0.89411374  0.25409671  1
  Te  Te106  1  0.07752224  0.93154328  0.57241349  1
  Te  Te107  1  0.09751896  0.90513754  0.94053550  1
  Te  Te108  1  0.40938281  0.26466831  0.25451032  1
  Te  Te109  1  0.41708117  0.24987845  0.60224356  1
  Te  Te110  1  0.41180721  0.28385918  0.92661299  1
  Te  Te111  1  0.41266866  0.56111288  0.23308473  1
  Te  Te112  1  0.41168031  0.58802911  0.60898369  1
  Te  Te113  1  0.42599271  0.57110339  0.92546817  1
  Te  Te114  1  0.40303391  0.90877742  0.27407141  1
  Te  Te115  1  0.42464334  0.92561813  0.58847283  1
  Te  Te116  1  0.43623906  0.89821372  0.92612820  1
  Te  Te117  1  0.78444011  0.24572340  0.25667148  1
  Te  Te118  1  0.74084684  0.24544931  0.59432493  1
  Te  Te119  1  0.72319300  0.24047651  0.90853461  1
  Te  Te120  1  0.73950727  0.59752376  0.23276333  1
  Te  Te121  1  0.76455473  0.57640089  0.58843284  1
  Te  Te122  1  0.76420499  0.60938061  0.91554070  1
  Te  Te123  1  0.74830674  0.91908170  0.26828072  1
  Te  Te124  1  0.73418152  0.89339985  0.56622697  1
  Te  Te125  1  0.76025492  0.90744276  0.92318319  1
  Te  Te126  1  0.26910687  0.27810302  0.07210325  1
  Te  Te127  1  0.24708385  0.24187951  0.39493752  1
  Te  Te128  1  0.23896614  0.23760537  0.73488808  1
  Te  Te129  1  0.23658603  0.58206653  0.09509948  1
  Te  Te130  1  0.23469664  0.59473509  0.42643102  1
  Te  Te131  1  0.22839801  0.59389782  0.73581148  1
  Te  Te132  1  0.27431085  0.93374692  0.08036828  1
  Te  Te133  1  0.24358098  0.92502013  0.42752749  1
  Te  Te134  1  0.26573183  0.92027584  0.76967634  1
  Te  Te135  1  0.58827473  0.25179385  0.06731296  1
  Te  Te136  1  0.58841763  0.24652363  0.42396439  1
  Te  Te137  1  0.58335613  0.24874833  0.73105355  1
  Te  Te138  1  0.56666227  0.56762991  0.07015932  1
  Te  Te139  1  0.58652772  0.55430903  0.41810934  1
  Te  Te140  1  0.58302799  0.59314201  0.74328443  1
  Te  Te141  1  0.58302891  0.92060168  0.09029117  1
  Te  Te142  1  0.56742609  0.88415291  0.38115048  1
  Te  Te143  1  0.60501543  0.92192554  0.73064279  1
  Te  Te144  1  0.91179063  0.25525196  0.04957026  1
  Te  Te145  1  0.92836234  0.24047244  0.43181544  1
  Te  Te146  1  0.91647657  0.26013457  0.76045955  1
  Te  Te147  1  0.93763115  0.59955926  0.10621392  1
  Te  Te148  1  0.88890819  0.61151141  0.41986474  1
  Te  Te149  1  0.95735689  0.57480258  0.76726408  1
  Te  Te150  1  0.92728475  0.90346116  0.10036620  1
  Te  Te151  1  0.91081987  0.90190881  0.39613073  1
  Te  Te152  1  0.91106441  0.94893830  0.75492038  1
  Te  Te153  1  0.22942872  0.08330682  0.23300801  1
  Te  Te154  1  0.24353944  0.07997216  0.56808315  1
  Te  Te155  1  0.24871155  0.08978834  0.92012845  1
  Te  Te156  1  0.25903356  0.44141074  0.26876672  1
  Te  Te157  1  0.26145141  0.40976437  0.58875272  1
  Te  Te158  1  0.23439508  0.44502113  0.91985009  1
  Te  Te159  1  0.23704787  0.73175707  0.23378552  1
  Te  Te160  1  0.26619331  0.76105062  0.59513418  1
  Te  Te161  1  0.25312379  0.73790925  0.92064881  1
  Te  Te162  1  0.60024186  0.07677034  0.25063045  1
  Te  Te163  1  0.61406064  0.07174296  0.56903606  1
  Te  Te164  1  0.59379735  0.08557077  0.91494169  1
  Te  Te165  1  0.57305559  0.40899022  0.25185274  1
  Te  Te166  1  0.59440178  0.43805495  0.55985068  1
  Te  Te167  1  0.58527157  0.43671219  0.92225958  1
  Te  Te168  1  0.56735339  0.77234604  0.27176567  1
  Te  Te169  1  0.59371641  0.75526556  0.56944394  1
  Te  Te170  1  0.59939159  0.75049731  0.93472313  1
  Te  Te171  1  0.94241853  0.07356251  0.25969166  1
  Te  Te172  1  0.92700874  0.07599216  0.56049851  1
  Te  Te173  1  0.89321058  0.08796803  0.91764701  1
  Te  Te174  1  0.93427093  0.42191147  0.23003401  1
  Te  Te175  1  0.91125238  0.41673617  0.57295501  1
  Te  Te176  1  0.89972710  0.43131984  0.91426528  1
  Te  Te177  1  0.92011840  0.71286338  0.21851943  1
  Te  Te178  1  0.92292248  0.74854792  0.61536029  1
  Te  Te179  1  0.93059269  0.74935850  0.92697267  1
