# generated using pymatgen
data_In2Te3
_symmetry_space_group_name_H-M   'P 1'
_cell_length_a   18.77716310
_cell_length_b   18.77287706
_cell_length_c   18.77110716
_cell_angle_alpha   90.06372325
_cell_angle_beta   90.01928898
_cell_angle_gamma   90.01784697
_symmetry_Int_Tables_number   1
_chemical_formula_structural   In2Te3
_chemical_formula_sum   'In72 Te108'
_cell_volume   6616.83628366
_cell_formula_units_Z   36
loop_
 _symmetry_equiv_pos_site_id
 _symmetry_equiv_pos_as_xyz
  1  'x, y, z'
loop_
 _atom_site_type_symbol
 _atom_site_label
 _atom_site_symmetry_multiplicity
 _atom_site_fract_x
 _atom_site_fract_y
 _atom_site_fract_z
 _atom_site_occupancy
  In  In0  1  -0.00848741  0.67724357  0.00834210  1
  In  In1  1  0.53116967  0.32433997  0.16391146  1
  In  In2  1  0.67689743  0.31940587  0.67848694  1
  In  In3  1  0.67238640  0.69057486  0.66997957  1
  In  In4  1  0.00445719  0.49948334  0.51418914  1
  In  In5  1  -0.02162775  0.66740794  0.31428026  1
  In  In6  1  0.13537033  -0.02596086  0.86107291  1
  In  In7  1  0.15271220  0.83212471  0.67934111  1
  In  In8  1  0.52174289  0.35165669  0.87144776  1
  In  In9  1  0.49595788  0.82625364  0.67612796  1
  In  In10  1  0.32337404  0.83431521  0.84753284  1
  In  In11  1  0.68563415  0.13623633  0.46046525  1
  In  In12  1  0.51046706  -0.00845351  0.84027193  1
  In  In13  1  0.49613013  0.64570043  0.47513933  1
  In  In14  1  0.50747791  0.00331065  0.16613444  1
  In  In15  1  0.85355442  0.33201264  0.48307861  1
  In  In16  1  0.49318908  0.67478449  0.84288204  1
  In  In17  1  0.17078206  0.02358600  0.48546844  1
  In  In18  1  0.85898135  -0.01108708  0.16846648  1
  In  In19  1  0.00666650  0.48256817  0.16573210  1
  In  In20  1  0.86666307  0.00561068  0.84024846  1
  In  In21  1  -0.01821610  0.01650690  0.33416213  1
  In  In22  1  0.51661016  -0.02515211  0.49489531  1
  In  In23  1  0.85447388  0.31804261  0.85921840  1
  In  In24  1  0.32072665  0.32701710  0.01999046  1
  In  In25  1  0.51409309  0.29298941  0.48102159  1
  In  In26  1  0.36387102  -0.00191432  0.31263942  1
  In  In27  1  0.16849288  0.82633627  0.32069630  1
  In  In28  1  0.34261242  0.17663880  0.84742895  1
  In  In29  1  0.83576095  0.67965826  0.17407438  1
  In  In30  1  0.35844799  0.69496541  0.00884697  1
  In  In31  1  0.82988507  0.69646361  0.49553536  1
  In  In32  1  0.69274055  0.14846440  0.85162776  1
  In  In33  1  0.16322566  0.64405179  0.49960413  1
  In  In34  1  0.15647254  0.00045305  0.14766119  1
  In  In35  1  0.52217440  0.16700911  0.31206578  1
  In  In36  1  0.13493550  0.32609722  0.84992797  1
  In  In37  1  0.69292698  0.85893626  0.47540833  1
  In  In38  1  0.67785933  0.00942910  -0.00353745  1
  In  In39  1  0.84265172  0.51159535  0.66567580  1
  In  In40  1  0.34957104  0.67272174  0.33641921  1
  In  In41  1  0.48470004  0.49968859  0.66191329  1
  In  In42  1  0.32663327  0.49788140  0.19109999  1
  In  In43  1  -0.00520000  0.01257152  0.66663140  1
  In  In44  1  0.66778544  0.66253524  0.02032860  1
  In  In45  1  0.51521523  0.50379624  0.31847232  1
  In  In46  1  0.34557936  0.82271010  0.50128625  1
  In  In47  1  0.00192301  0.30777034  0.33920823  1
  In  In48  1  0.81874546  0.51460546  0.30216208  1
  In  In49  1  0.34496415  0.35606602  0.30518578  1
  In  In50  1  0.14936635  0.15450942  0.31771528  1
  In  In51  1  0.81744707  0.67935341  0.84568882  1
  In  In52  1  0.51792679  0.14100677  0.65981703  1
  In  In53  1  0.32316220  0.49207176  0.50372861  1
  In  In54  1  0.15665495  0.48407012  0.01251391  1
  In  In55  1  0.32390104  0.54171748  0.84823497  1
  In  In56  1  0.65952545  0.49603530  0.86158060  1
  In  In57  1  0.34000333  -0.00445726  0.02567651  1
  In  In58  1  -0.01335496  0.48395109  0.83583636  1
  In  In59  1  0.15182637  0.67109272  0.14895790  1
  In  In60  1  0.68387172  0.82292934  0.83847285  1
  In  In61  1  0.82151668  0.17981224  0.00828925  1
  In  In62  1  0.14505163  0.16506108  0.65695599  1
  In  In63  1  0.17027764  0.67876681  0.82579511  1
  In  In64  1  0.31121959  0.15760302  0.49506683  1
  In  In65  1  0.32342952  0.34769363  0.66183597  1
  In  In66  1  0.66844497  0.82975191  0.17434149  1
  In  In67  1  0.84296378  0.16909414  0.67120395  1
  In  In68  1  -0.02651491  0.84635429  0.48832347  1
  In  In69  1  0.15148622  0.31959452  0.49955777  1
  In  In70  1  0.15528247  0.16138121  0.01030796  1
  In  In71  1  0.64990070  0.49823978  0.47690098  1
  Te  Te72  1  0.04791605  0.07574926  0.07671357  1
  Te  Te73  1  0.05846507  0.10940049  0.43176497  1
  Te  Te74  1  0.07946926  0.08635044  0.77049858  1
  Te  Te75  1  0.07716054  0.38147152  0.08131769  1
  Te  Te76  1  0.08207090  0.42142142  0.40903404  1
  Te  Te77  1  0.08484237  0.41780612  0.74707568  1
  Te  Te78  1  0.05988918  0.77573709  0.09908694  1
  Te  Te79  1  0.07696763  0.74654153  0.41478865  1
  Te  Te80  1  0.06199661  0.76962740  0.77778849  1
  Te  Te81  1  0.42378167  0.09878784  0.08815561  1
  Te  Te82  1  0.42995935  0.09192485  0.42432325  1
  Te  Te83  1  0.41572745  0.07621198  0.75510879  1
  Te  Te84  1  0.41706124  0.41324007  0.10117583  1
  Te  Te85  1  0.43309365  0.41756274  0.42560412  1
  Te  Te86  1  0.41926978  0.40987103  0.76723475  1
  Te  Te87  1  0.45179870  0.76280945  0.10283305  1
  Te  Te88  1  0.44627158  0.77254130  0.39934579  1
  Te  Te89  1  0.39239475  0.73948165  0.74871835  1
  Te  Te90  1  0.75371577  0.08315297  0.10458408  1
  Te  Te91  1  0.76026891  0.04003528  0.37359634  1
  Te  Te92  1  0.75711604  0.06475771  0.74540085  1
  Te  Te93  1  0.75973783  0.37153954  0.08532914  1
  Te  Te94  1  0.75226476  0.41565723  0.40207103  1
  Te  Te95  1  0.75655155  0.42231805  0.75893069  1
  Te  Te96  1  0.76528964  0.76916789  0.07168985  1
  Te  Te97  1  0.74975474  0.75375821  0.38732291  1
  Te  Te98  1  0.78058714  0.77692331  0.72772637  1
  Te  Te99  1  0.07797009  0.24552651  0.22674904  1
  Te  Te100  1  0.05030555  0.24187369  0.57415336  1
  Te  Te101  1  0.05071650  0.23800082  0.93296980  1
  Te  Te102  1  0.08732829  0.58032717  0.25336233  1
  Te  Te103  1  0.06436881  0.60310238  0.60130493  1
  Te  Te104  1  0.08572757  0.58348758  0.92129837  1
  Te  Te105  1  0.07242098  0.92206965  0.25373061  1
  Te  Te106  1  0.08924247  0.91959451  0.56503409  1
  Te  Te107  1  0.04911388  0.89285189  0.94940385  1
  Te  Te108  1  0.41520252  0.24080591  0.23412016  1
  Te  Te109  1  0.41446092  0.24381656  0.59398711  1
  Te  Te110  1  0.43354377  0.25068573  0.94577041  1
  Te  Te111  1  0.43697670  0.60209307  0.23082562  1
  Te  Te112  1  0.39893555  0.59858555  0.58421934  1
  Te  Te113  1  0.43712696  0.57338441  0.94198967  1
  Te  Te114  1  0.41473012  0.89528260  0.21810343  1
  Te  Te115  1  0.41056568  0.92502184  0.59491041  1
  Te  Te116  1  0.42683122  0.90505442  0.93329406  1
  Te  Te117  1  0.71631901  0.27649753  0.19486837  1
  Te  Te118  1  0.74482747  0.24478246  0.56551704  1
  Te  Te119  1  0.72320983  0.27685571  0.92556674  1
  Te  Te120  1  0.72638591  0.58231553  0.20745382  1
  Te  Te121  1  0.73804553  0.58020295  0.57552571  1
  Te  Te122  1  0.76671462  0.57032826  0.93921530  1
  Te  Te123  1  0.74773135  0.93086593  0.25591930  1
  Te  Te124  1  0.72990129  0.93465206  0.59320732  1
  Te  Te125  1  0.77161467  0.91611239  0.92294263  1
  Te  Te126  1  0.23623143  0.24195820  0.10539535  1
  Te  Te127  1  0.25648998  0.26263734  0.40107380  1
  Te  Te128  1  0.24452025  0.24863540  0.75098464  1
  Te  Te129  1  0.25952738  0.58136753  0.07384945  1
  Te  Te130  1  0.25112302  0.57158376  0.39509114  1
  Te  Te131  1  0.24044447  0.58291996  0.73595065  1
  Te  Te132  1  0.24385868  0.89978882  0.08328093  1
  Te  Te133  1  0.25819803  0.92087540  0.40871926  1
  Te  Te134  1  0.24255141  0.92729526  0.75889475  1
  Te  Te135  1  0.61940208  0.23157855  0.08816970  1
  Te  Te136  1  0.62482853  0.25568976  0.38526634  1
  Te  Te137  1  0.57285638  0.24420847  0.76124778  1
  Te  Te138  1  0.58341765  0.55571371  0.07701922  1
  Te  Te139  1  0.61208582  0.61121343  0.38270763  1
  Te  Te140  1  0.58594143  0.58370939  0.75076768  1
  Te  Te141  1  0.58878872  0.91266649  0.07096253  1
  Te  Te142  1  0.58735485  0.91069969  0.38326496  1
  Te  Te143  1  0.60046089  0.91353007  0.74537498  1
  Te  Te144  1  0.88150440  0.28636798  0.09707737  1
  Te  Te145  1  0.88198529  0.22750875  0.38063402  1
  Te  Te146  1  0.93343577  0.25187009  0.75332425  1
  Te  Te147  1  0.91238996  0.57450205  0.08950329  1
  Te  Te148  1  0.90646786  0.57554573  0.42074779  1
  Te  Te149  1  0.91971881  0.59997682  0.76027079  1
  Te  Te150  1  0.94874680  0.93562669  0.06182499  1
  Te  Te151  1  0.87948706  0.94178447  0.42036007  1
  Te  Te152  1  0.93702669  0.90690063  0.75297541  1
  Te  Te153  1  0.25591182  0.07856851  0.24070698  1
  Te  Te154  1  0.25435478  0.07053794  0.60538365  1
  Te  Te155  1  0.24942959  0.07561890  0.91698223  1
  Te  Te156  1  0.22211917  0.40501659  0.23987750  1
  Te  Te157  1  0.21550204  0.42766293  0.59040693  1
  Te  Te158  1  0.25698548  0.41418747  0.90690842  1
  Te  Te159  1  0.25999377  0.74367344  0.23290985  1
  Te  Te160  1  0.24176027  0.74901781  0.58275392  1
  Te  Te161  1  0.23398754  0.75714673  0.94280905  1
  Te  Te162  1  0.61307760  0.06838302  0.25135367  1
  Te  Te163  1  0.62003305  0.05793957  0.57819099  1
  Te  Te164  1  0.57198984  0.09784234  0.93029876  1
  Te  Te165  1  0.61387091  0.41984765  0.24579481  1
  Te  Te166  1  0.58257079  0.40706630  0.58742235  1
  Te  Te167  1  0.59086755  0.43405791  0.98356466  1
  Te  Te168  1  0.56011327  0.73313986  0.20606662  1
  Te  Te169  1  0.57292440  0.74647840  0.56988142  1
  Te  Te170  1  0.58292329  0.75741670  0.93198188  1
  Te  Te171  1  0.91203995  0.10991967  0.24143463  1
  Te  Te172  1  0.90006861  0.07487060  0.57190069  1
  Te  Te173  1  0.92836395  0.10833996  0.92993144  1
  Te  Te174  1  0.91095754  0.40385388  0.25463501  1
  Te  Te175  1  0.92491430  0.40073784  0.60056603  1
  Te  Te176  1  0.91800050  0.41806758  0.94874452  1
  Te  Te177  1  0.90666342  0.78130941  0.25630259  1
  Te  Te178  1  0.92802504  0.74943932  0.59079136  1
  Te  Te179  1  0.91341950  0.76766696  0.91928172  1
