# generated using pymatgen
data_In2Te3
_symmetry_space_group_name_H-M   'P 1'
_cell_length_a   18.93998529
_cell_length_b   18.94397801
_cell_length_c   18.92563329
_cell_angle_alpha   89.92464655
_cell_angle_beta   90.11626632
_cell_angle_gamma   90.02071988
_symmetry_Int_Tables_number   1
_chemical_formula_structural   In2Te3
_chemical_formula_sum   'In72 Te108'
_cell_volume   6790.47166561
_cell_formula_units_Z   36
loop_
 _symmetry_equiv_pos_site_id
 _symmetry_equiv_pos_as_xyz
  1  'x, y, z'
loop_
 _atom_site_type_symbol
 _atom_site_label
 _atom_site_symmetry_multiplicity
 _atom_site_fract_x
 _atom_site_fract_y
 _atom_site_fract_z
 _atom_site_occupancy
  In  In0  1  0.81053842  0.48084812  0.65449202  1
  In  In1  1  0.51649318  0.37420431  0.16682496  1
  In  In2  1  0.84157662  -0.00422247  0.15157534  1
  In  In3  1  0.51002441  0.18754360  0.32421849  1
  In  In4  1  0.68633176  0.02433080  0.34680582  1
  In  In5  1  0.83333294  0.31565535  0.50022312  1
  In  In6  1  0.31329787  0.01993211  0.35467524  1
  In  In7  1  0.33805496  0.67592474  0.33457342  1
  In  In8  1  0.68564961  0.81451983  0.16750615  1
  In  In9  1  0.52726871  0.60190187  0.17477841  1
  In  In10  1  0.33865625  0.68924246  -0.02744610  1
  In  In11  1  0.84080012  0.16673894  0.65372723  1
  In  In12  1  0.03219091  0.33469785  0.61000127  1
  In  In13  1  0.65176784  0.17631048  0.83204064  1
  In  In14  1  0.00901755  0.16774263  0.16572224  1
  In  In15  1  0.18829506  0.47082719  -0.04965310  1
  In  In16  1  0.80830147  0.65605355  0.84789980  1
  In  In17  1  0.83693394  0.17599723  0.32687119  1
  In  In18  1  0.49124068  -0.00875296  0.52970434  1
  In  In19  1  0.44827436  0.34250943  0.83106656  1
  In  In20  1  -0.01517956  0.51779097  0.16036721  1
  In  In21  1  0.50300604  0.65636038  0.49385853  1
  In  In22  1  0.32776585  0.47566216  0.51027903  1
  In  In23  1  0.32208609  0.68349188  0.68244327  1
  In  In24  1  0.48013740  0.31542733  0.52516309  1
  In  In25  1  0.18831138  0.66755234  0.15225282  1
  In  In26  1  0.19323126  0.50641401  0.67681581  1
  In  In27  1  0.51063879  0.82851202  0.35242860  1
  In  In28  1  0.68719401  0.15157397  0.15992856  1
  In  In29  1  0.02028253  0.84732959  0.82035764  1
  In  In30  1  0.63372412  0.62203675  0.69791898  1
  In  In31  1  0.84448354  0.51335175  0.32834805  1
  In  In32  1  0.17172398  0.16953345  0.36428277  1
  In  In33  1  0.01330501  0.65570543  -0.00123172  1
  In  In34  1  0.66721390  0.16560257  0.48904867  1
  In  In35  1  0.00035201  0.49583622  0.83445092  1
  In  In36  1  0.67398294  0.83060292  0.83377087  1
  In  In37  1  0.46608445  0.00378371  0.82374955  1
  In  In38  1  0.01603338  0.67612520  0.31860923  1
  In  In39  1  0.66566216  0.48336856  0.49441215  1
  In  In40  1  0.51367130  0.80252955  0.00835292  1
  In  In41  1  0.48503348  0.50136172  -0.01698557  1
  In  In42  1  0.49029474  0.16727409  -0.00998695  1
  In  In43  1  0.01557819  0.65922269  0.68279543  1
  In  In44  1  0.31452420  0.00249347  -0.00265955  1
  In  In45  1  0.67560287  0.81587193  0.52694807  1
  In  In46  1  0.63330987  0.35722855  0.68948292  1
  In  In47  1  0.00211201  0.01002015  -0.03597933  1
  In  In48  1  0.50348151  -0.03655070  0.15368042  1
  In  In49  1  0.32490145  -0.00091530  0.65076286  1
  In  In50  1  0.31964911  0.17789047  0.17598230  1
  In  In51  1  0.31331682  0.84647627  0.82910986  1
  In  In52  1  0.02933602  0.16981114  0.79386690  1
  In  In53  1  0.67016802  0.34196128  0.01541866  1
  In  In54  1  0.83315486  0.34124092  0.18268785  1
  In  In55  1  0.33129212  0.16607094  0.51311073  1
  In  In56  1  0.32557960  0.84595527  0.15660185  1
  In  In57  1  0.12354209  0.89699394  0.40520169  1
  In  In58  1  0.66517153  -0.00357111  0.67410032  1
  In  In59  1  0.84535484  0.68627982  0.49229943  1
  In  In60  1  0.66520160  0.63396673  0.34055285  1
  In  In61  1  0.17083926  0.18445187  -0.04660625  1
  In  In62  1  0.13781845  0.46779799  0.36578835  1
  In  In63  1  -0.01248294  0.32441165  0.00009132  1
  In  In64  1  0.31300861  0.47780607  0.15966133  1
  In  In65  1  0.85347645  0.84427863  0.68887890  1
  In  In66  1  0.15104252  0.32911964  0.15591480  1
  In  In67  1  0.18862073  0.66573447  0.51735668  1
  In  In68  1  0.83386617  0.83193566  -0.01928068  1
  In  In69  1  0.95171873  0.86234739  0.31384809  1
  In  In70  1  0.83316759  0.33131258  0.83078520  1
  In  In71  1  0.01460718  0.14685981  0.51725548  1
  Te  Te72  1  0.08706765  0.10207515  0.05724978  1
  Te  Te73  1  0.07710325  0.06175702  0.40925111  1
  Te  Te74  1  0.13406493  0.06630454  0.77226766  1
  Te  Te75  1  0.08477586  0.43157715  0.06333440  1
  Te  Te76  1  0.09410795  0.38708289  0.47792761  1
  Te  Te77  1  0.07884102  0.41974744  0.73268031  1
  Te  Te78  1  0.07812757  0.74411152  0.09543783  1
  Te  Te79  1  0.09396464  0.74344650  0.42917313  1
  Te  Te80  1  0.10729116  0.76545177  0.73002610  1
  Te  Te81  1  0.41380985  0.07815779  0.09912861  1
  Te  Te82  1  0.44008062  0.09215570  0.41966588  1
  Te  Te83  1  0.40581415  0.09638930  0.72879988  1
  Te  Te84  1  0.40551948  0.40066332  0.06721927  1
  Te  Te85  1  0.39913559  0.38297695  0.41869659  1
  Te  Te86  1  0.40677697  0.44780153  0.73428817  1
  Te  Te87  1  0.41440270  0.73571829  0.10212381  1
  Te  Te88  1  0.40593373  0.76177061  0.43949286  1
  Te  Te89  1  0.41610855  0.77038727  0.75728191  1
  Te  Te90  1  0.75686145  0.07358028  0.06004119  1
  Te  Te91  1  0.78693427  0.08502135  0.44247396  1
  Te  Te92  1  0.75221542  0.09254047  0.75294984  1
  Te  Te93  1  0.76093072  0.42876006  0.08993846  1
  Te  Te94  1  0.76011680  0.40969222  0.40336725  1
  Te  Te95  1  0.73173787  0.43298077  0.77608339  1
  Te  Te96  1  0.74994721  0.73986998  0.05991235  1
  Te  Te97  1  0.73866434  0.75125150  0.40514556  1
  Te  Te98  1  0.74844891  0.73557496  0.73142275  1
  Te  Te99  1  0.08255873  0.25214414  0.26675255  1
  Te  Te100  1  0.12115491  0.21338440  0.59864438  1
  Te  Te101  1  0.07847201  0.28639381  0.88562364  1
  Te  Te102  1  0.10501599  0.57133300  0.24163450  1
  Te  Te103  1  0.08956365  0.57269679  0.58344160  1
  Te  Te104  1  0.10439055  0.58884794  0.89511983  1
  Te  Te105  1  0.08293289  0.89779343  0.26194931  1
  Te  Te106  1  0.04201092  0.93869263  0.52518358  1
  Te  Te107  1  0.10267727  0.90685382  0.92784663  1
  Te  Te108  1  0.42064616  0.27272166  0.23769782  1
  Te  Te109  1  0.37926881  0.25914008  0.61944115  1
  Te  Te110  1  0.38463565  0.22066710  0.89951421  1
  Te  Te111  1  0.39830697  0.56554931  0.24994268  1
  Te  Te112  1  0.39464515  0.59335662  0.57838534  1
  Te  Te113  1  0.43190136  0.60704936  0.89039407  1
  Te  Te114  1  0.41559751  0.91714742  0.27059233  1
  Te  Te115  1  0.42096301  0.89230977  0.60971585  1
  Te  Te116  1  0.42248359  0.90796571  0.94106128  1
  Te  Te117  1  0.72881523  0.25784441  0.25887151  1
  Te  Te118  1  0.72762027  0.26670697  0.59966983  1
  Te  Te119  1  0.74895559  0.24710859  0.92490584  1
  Te  Te120  1  0.75815582  0.58914369  0.23727789  1
  Te  Te121  1  0.74455065  0.59028883  0.56781983  1
  Te  Te122  1  0.69032818  0.59968523  0.91564689  1
  Te  Te123  1  0.75146793  0.92410449  0.25298842  1
  Te  Te124  1  0.76500759  0.92100550  0.58846024  1
  Te  Te125  1  0.77160989  0.92554415  0.88624606  1
  Te  Te126  1  0.24894177  0.25633456  0.06731189  1
  Te  Te127  1  0.27964993  0.26020464  0.40997461  1
  Te  Te128  1  0.25022839  0.27651097  0.83690085  1
  Te  Te129  1  0.26127385  0.57039083  0.04895287  1
  Te  Te130  1  0.24853538  0.57212660  0.40662840  1
  Te  Te131  1  0.24007630  0.60376050  0.77694503  1
  Te  Te132  1  0.22750212  0.93350934  0.09315984  1
  Te  Te133  1  0.26504925  0.91970086  0.44683963  1
  Te  Te134  1  0.22487686  0.93661256  0.74673909  1
  Te  Te135  1  0.57547433  0.24146543  0.09262707  1
  Te  Te136  1  0.58866033  0.27483243  0.41895712  1
  Te  Te137  1  0.54845655  0.24992594  0.75145002  1
  Te  Te138  1  0.60084293  0.57262370  0.04876291  1
  Te  Te139  1  0.55647891  0.54739405  0.40597852  1
  Te  Te140  1  0.52041907  0.54862776  0.76209987  1
  Te  Te141  1  0.61066635  0.90606275  0.06624993  1
  Te  Te142  1  0.60001958  0.92388675  0.43241616  1
  Te  Te143  1  0.57124016  0.91167715  0.75518509  1
  Te  Te144  1  0.89929061  0.24048224  0.08937789  1
  Te  Te145  1  0.93653227  0.24098167  0.42068918  1
  Te  Te146  1  0.92187358  0.27541522  0.72197725  1
  Te  Te147  1  0.89991437  0.58869497  0.06493829  1
  Te  Te148  1  0.93695219  0.58998242  0.42045562  1
  Te  Te149  1  0.89967035  0.57250878  0.74150302  1
  Te  Te150  1  0.93107353  0.91106432  0.06587806  1
  Te  Te151  1  0.92070265  0.88822894  0.45568161  1
  Te  Te152  1  0.93761849  0.94940991  0.75046382  1
  Te  Te153  1  0.22740334  0.08186974  0.24697208  1
  Te  Te154  1  0.22450693  0.08376785  0.57528612  1
  Te  Te155  1  0.24422235  0.07054217  0.88294533  1
  Te  Te156  1  0.23221073  0.40159964  0.26229864  1
  Te  Te157  1  0.26769016  0.39057373  0.61723588  1
  Te  Te158  1  0.29968044  0.41893593  0.86056121  1
  Te  Te159  1  0.24322380  0.76422476  0.25741744  1
  Te  Te160  1  0.22570942  0.77424091  0.61053410  1
  Te  Te161  1  0.23124495  0.78379682  0.93630426  1
  Te  Te162  1  0.57880098  0.06866105  0.24550759  1
  Te  Te163  1  0.58147373  0.09603754  0.59360001  1
  Te  Te164  1  0.57637897  0.07166466  0.91253919  1
  Te  Te165  1  0.59199840  0.47880117  0.23614282  1
  Te  Te166  1  0.55573513  0.43519918  0.58679233  1
  Te  Te167  1  0.56901559  0.39292308  0.91580393  1
  Te  Te168  1  0.57309076  0.73777179  0.24827741  1
  Te  Te169  1  0.57649642  0.73212579  0.60254869  1
  Te  Te170  1  0.59286994  0.72635401  0.90623625  1
  Te  Te171  1  0.92342221  0.07683012  0.25192750  1
  Te  Te172  1  0.94302977  0.06392290  0.61956355  1
  Te  Te173  1  0.93327428  0.11759526  0.89127129  1
  Te  Te174  1  0.94116414  0.41332026  0.26153007  1
  Te  Te175  1  0.91289569  0.43008056  0.55839165  1
  Te  Te176  1  0.90130427  0.42802582  0.92770484  1
  Te  Te177  1  0.90050112  0.73899807  0.25317832  1
  Te  Te178  1  0.93497447  0.75639131  0.59372201  1
  Te  Te179  1  0.92909804  0.73860485  0.88879238  1
