# generated using pymatgen
data_In2Te3
_symmetry_space_group_name_H-M   'P 1'
_cell_length_a   18.79132555
_cell_length_b   18.78896944
_cell_length_c   18.79104858
_cell_angle_alpha   89.99087129
_cell_angle_beta   89.94664566
_cell_angle_gamma   90.02250357
_symmetry_Int_Tables_number   1
_chemical_formula_structural   In2Te3
_chemical_formula_sum   'In72 Te108'
_cell_volume   6634.54531050
_cell_formula_units_Z   36
loop_
 _symmetry_equiv_pos_site_id
 _symmetry_equiv_pos_as_xyz
  1  'x, y, z'
loop_
 _atom_site_type_symbol
 _atom_site_label
 _atom_site_symmetry_multiplicity
 _atom_site_fract_x
 _atom_site_fract_y
 _atom_site_fract_z
 _atom_site_occupancy
  In  In0  1  -0.01080261  0.66555421  -0.01465431  1
  In  In1  1  0.01030729  0.51977238  0.17212370  1
  In  In2  1  0.33134474  0.16464534  0.16014148  1
  In  In3  1  0.67873187  -0.02398815  -0.00546790  1
  In  In4  1  0.01540941  -0.00446118  -0.01896727  1
  In  In5  1  0.49454135  0.30847366  0.83089690  1
  In  In6  1  0.16953094  0.66930652  0.18305322  1
  In  In7  1  0.37019277  -0.00521116  0.32731696  1
  In  In8  1  0.33707432  0.52555027  0.18022714  1
  In  In9  1  0.15820135  0.80071395  0.69305540  1
  In  In10  1  0.66970783  0.52446922  0.83024666  1
  In  In11  1  0.85526875  0.51166197  0.32952961  1
  In  In12  1  0.33993059  0.68073024  0.00807844  1
  In  In13  1  0.36393205  0.00700830  0.68596926  1
  In  In14  1  0.00824029  -0.02857310  0.33767194  1
  In  In15  1  0.81620351  0.02365503  0.16208045  1
  In  In16  1  0.64679909  0.15119362  0.50928196  1
  In  In17  1  -0.02726624  0.34183401  0.00459399  1
  In  In18  1  0.68854924  0.33798570  -0.01783821  1
  In  In19  1  0.80602044  0.16187096  0.33744568  1
  In  In20  1  0.55664857  0.68815720  0.82240760  1
  In  In21  1  0.15751850  0.34042049  0.15646240  1
  In  In22  1  0.64764129  0.48738159  0.15105639  1
  In  In23  1  -0.00139534  0.35221280  0.35696930  1
  In  In24  1  0.65891981  0.16045085  0.82138825  1
  In  In25  1  0.33117910  0.66802383  0.66452048  1
  In  In26  1  0.48878087  0.51026891  0.00722745  1
  In  In27  1  0.83705018  0.82077788  0.35474841  1
  In  In28  1  0.82105939  0.51722583  0.67937618  1
  In  In29  1  0.82337654  -0.00480699  0.83251214  1
  In  In30  1  0.53294141  0.84884033  0.66758970  1
  In  In31  1  0.50070328  0.33325615  0.18392829  1
  In  In32  1  0.18747135  0.82266452  0.33824741  1
  In  In33  1  0.16659217  0.32664988  0.51134165  1
  In  In34  1  0.33812105  0.84061028  0.83779661  1
  In  In35  1  0.18960588  0.16328469  0.33759858  1
  In  In36  1  0.50989111  0.15663135  0.00351195  1
  In  In37  1  0.33571047  0.34396022  0.32941699  1
  In  In38  1  0.63972852  0.34633805  0.67401155  1
  In  In39  1  0.17550975  0.14891114  -0.01566341  1
  In  In40  1  0.83488699  0.15958727  0.68231277  1
  In  In41  1  0.64625820  0.31812584  0.34605331  1
  In  In42  1  0.33779091  0.48971107  0.81784108  1
  In  In43  1  0.82810190  0.85238202  -0.03438535  1
  In  In44  1  0.66438483  0.14741115  0.18770592  1
  In  In45  1  0.18196681  0.17206332  0.66076724  1
  In  In46  1  0.17316973  0.66774649  0.48959749  1
  In  In47  1  -0.01219990  0.00077108  0.66587114  1
  In  In48  1  0.00032257  0.52509640  0.49897995  1
  In  In49  1  0.83702016  0.68558244  0.16193272  1
  In  In50  1  0.65247349  -0.01216262  0.34210618  1
  In  In51  1  0.16999145  0.84947252  -0.00843377  1
  In  In52  1  0.18806484  0.32223171  0.82227174  1
  In  In53  1  0.16814199  0.52050962  0.63844888  1
  In  In54  1  -0.01235656  0.83584319  0.18242263  1
  In  In55  1  0.65398245  0.50842733  0.52365823  1
  In  In56  1  -0.02574767  0.81514975  0.52141957  1
  In  In57  1  0.82514853  0.33797574  0.49446146  1
  In  In58  1  0.17505688  0.00464236  0.50883363  1
  In  In59  1  0.01095628  0.32071970  0.66488428  1
  In  In60  1  -0.00156566  0.50306903  0.84896926  1
  In  In61  1  0.49370810  -0.01244018  0.49522981  1
  In  In62  1  0.49258698  0.67856771  0.17283799  1
  In  In63  1  0.65976017  0.82939793  0.15407885  1
  In  In64  1  0.36180918  0.33295480  -0.04471249  1
  In  In65  1  0.00626734  0.16678967  0.14704840  1
  In  In66  1  0.81553794  0.68620315  0.82033157  1
  In  In67  1  0.67955683  0.67532974  0.35245847  1
  In  In68  1  -0.00497259  0.15550202  0.82342673  1
  In  In69  1  0.47846017  0.70000607  0.48858292  1
  In  In70  1  0.33776254  -0.00943448  -0.01450120  1
  In  In71  1  0.33078816  0.49790227  0.49231705  1
  Te  Te72  1  0.10079406  0.06431069  0.08886658  1
  Te  Te73  1  0.08348606  0.08121715  0.41338217  1
  Te  Te74  1  0.09772618  0.07633521  0.74635322  1
  Te  Te75  1  0.07985421  0.43355997  0.06587006  1
  Te  Te76  1  0.10345202  0.43736333  0.42607636  1
  Te  Te77  1  0.09477153  0.42216094  0.74118454  1
  Te  Te78  1  0.07351209  0.75204356  0.08682420  1
  Te  Te79  1  0.07281851  0.75732279  0.41628197  1
  Te  Te80  1  0.05316310  0.71968174  0.75420251  1
  Te  Te81  1  0.42723120  0.06724536  0.09463283  1
  Te  Te82  1  0.41512319  0.09411873  0.42712351  1
  Te  Te83  1  0.44165990  0.09957563  0.76940661  1
  Te  Te84  1  0.40367133  0.40812783  0.09185256  1
  Te  Te85  1  0.42902793  0.40900332  0.42485984  1
  Te  Te86  1  0.43523308  0.41241546  0.73279712  1
  Te  Te87  1  0.42880275  0.77403315  0.07855145  1
  Te  Te88  1  0.39622409  0.77061124  0.38227097  1
  Te  Te89  1  0.42855957  0.75008155  0.74982269  1
  Te  Te90  1  0.73838269  0.10403296  0.06150271  1
  Te  Te91  1  0.74806419  0.06204408  0.43662641  1
  Te  Te92  1  0.73160731  0.05477550  0.72497981  1
  Te  Te93  1  0.75885484  0.42394204  0.07964925  1
  Te  Te94  1  0.74533001  0.42989142  0.40305227  1
  Te  Te95  1  0.74725143  0.41114103  0.76035684  1
  Te  Te96  1  0.75076563  0.75453284  0.05751874  1
  Te  Te97  1  0.72914515  0.78017670  0.45230168  1
  Te  Te98  1  0.73205288  0.75065477  0.71205409  1
  Te  Te99  1  0.08593023  0.25165940  0.26030528  1
  Te  Te100  1  0.07034156  0.22124231  0.56753343  1
  Te  Te101  1  0.08125703  0.25139819  0.91464670  1
  Te  Te102  1  0.08584571  0.59063615  0.27654069  1
  Te  Te103  1  0.06492046  0.62449369  0.59611297  1
  Te  Te104  1  0.09676002  0.58932666  0.91825282  1
  Te  Te105  1  0.10720097  0.91135018  0.23942476  1
  Te  Te106  1  0.08674480  0.90370054  0.58498031  1
  Te  Te107  1  0.08904591  0.91306788  0.88526587  1
  Te  Te108  1  0.42058160  0.23291147  0.26360089  1
  Te  Te109  1  0.38265446  0.30321290  0.63343887  1
  Te  Te110  1  0.40206792  0.19431204  0.89936625  1
  Te  Te111  1  0.43672902  0.58222355  0.27078923  1
  Te  Te112  1  0.42223650  0.58237983  0.58050634  1
  Te  Te113  1  0.41789988  0.59237699  0.90093474  1
  Te  Te114  1  0.42217877  0.86951744  0.26861283  1
  Te  Te115  1  0.41044747  0.89774317  0.59041405  1
  Te  Te116  1  0.44231895  0.90879149  0.91641736  1
  Te  Te117  1  0.74636597  0.26539673  0.24310569  1
  Te  Te118  1  0.74378259  0.25395669  0.59196327  1
  Te  Te119  1  0.75779705  0.23915336  0.89716067  1
  Te  Te120  1  0.74535166  0.58868545  0.24146094  1
  Te  Te121  1  0.77058456  0.59299966  0.56197732  1
  Te  Te122  1  0.75752314  0.59661517  0.92251020  1
  Te  Te123  1  0.76344821  0.90842755  0.24914381  1
  Te  Te124  1  0.75896604  0.85935721  0.60526979  1
  Te  Te125  1  0.69577248  0.86684994  0.87471785  1
  Te  Te126  1  0.25113862  0.25625265  0.06677888  1
  Te  Te127  1  0.27136678  0.24791938  0.43370432  1
  Te  Te128  1  0.28836072  0.24233341  0.74424532  1
  Te  Te129  1  0.24250470  0.58463244  0.07718698  1
  Te  Te130  1  0.25759669  0.58664958  0.40018578  1
  Te  Te131  1  0.23850502  0.58871211  0.75565918  1
  Te  Te132  1  0.26417550  0.90952574  0.08597526  1
  Te  Te133  1  0.26712903  0.92133779  0.42195243  1
  Te  Te134  1  0.24897812  0.91533949  0.73985262  1
  Te  Te135  1  0.58903240  0.26148784  0.08281211  1
  Te  Te136  1  0.55618765  0.24005921  0.43256538  1
  Te  Te137  1  0.56006864  0.22130171  0.71942405  1
  Te  Te138  1  0.58841298  0.60292023  0.07249069  1
  Te  Te139  1  0.57415905  0.59263505  0.42437305  1
  Te  Te140  1  0.58217204  0.57967639  0.72560623  1
  Te  Te141  1  0.57907286  0.93859900  0.09732202  1
  Te  Te142  1  0.58865269  0.88989448  0.43230781  1
  Te  Te143  1  0.60915591  0.93318334  0.76147771  1
  Te  Te144  1  0.89827173  0.24269742  0.08525043  1
  Te  Te145  1  0.91304790  0.24019786  0.41701448  1
  Te  Te146  1  0.90900476  0.26698988  0.76382806  1
  Te  Te147  1  0.90465773  0.57764916  0.07795323  1
  Te  Te148  1  0.88937543  0.60621828  0.44037322  1
  Te  Te149  1  0.93036782  0.59882748  0.74862215  1
  Te  Te150  1  0.91104306  0.92270527  0.08183747  1
  Te  Te151  1  0.90620999  0.92685298  0.44195567  1
  Te  Te152  1  0.90445015  0.90632429  0.74556261  1
  Te  Te153  1  0.25359178  0.06431769  0.24468878  1
  Te  Te154  1  0.28084017  0.08811993  0.58036774  1
  Te  Te155  1  0.24532387  0.06041120  0.89098535  1
  Te  Te156  1  0.23714279  0.42954715  0.25076763  1
  Te  Te157  1  0.26312020  0.40096574  0.60644936  1
  Te  Te158  1  0.24437680  0.42437731  0.92159160  1
  Te  Te159  1  0.28166149  0.74468987  0.25109359  1
  Te  Te160  1  0.25353127  0.76339906  0.57607049  1
  Te  Te161  1  0.24257290  0.74369478  0.90795161  1
  Te  Te162  1  0.56229437  0.07286315  0.26197526  1
  Te  Te163  1  0.57218853  0.06109339  0.59929748  1
  Te  Te164  1  0.58185398  0.06121551  0.90831481  1
  Te  Te165  1  0.57195027  0.43365766  0.27169320  1
  Te  Te166  1  0.56418517  0.39482424  0.55527893  1
  Te  Te167  1  0.56997994  0.41719122  0.91512177  1
  Te  Te168  1  0.58486227  0.76112417  0.26710025  1
  Te  Te169  1  0.58946983  0.74162843  0.58073808  1
  Te  Te170  1  0.58588773  0.77615176  0.93552124  1
  Te  Te171  1  0.92219735  0.08018933  0.25733710  1
  Te  Te172  1  0.91153040  0.09039847  0.57730544  1
  Te  Te173  1  0.90489144  0.08519788  0.92504650  1
  Te  Te174  1  0.92217454  0.40803710  0.23883456  1
  Te  Te175  1  0.92102913  0.41880145  0.58519127  1
  Te  Te176  1  0.89215267  0.42173322  0.91068305  1
  Te  Te177  1  0.93035893  0.72868790  0.27459589  1
  Te  Te178  1  0.87768267  0.76857285  0.62839698  1
  Te  Te179  1  0.93264973  0.77075090  0.88971486  1
