# generated using pymatgen
data_In2Te3
_symmetry_space_group_name_H-M   'P 1'
_cell_length_a   18.97594079
_cell_length_b   18.99037151
_cell_length_c   18.99280190
_cell_angle_alpha   90.18482378
_cell_angle_beta   89.89844289
_cell_angle_gamma   89.94060739
_symmetry_Int_Tables_number   1
_chemical_formula_structural   In2Te3
_chemical_formula_sum   'In72 Te108'
_cell_volume   6844.19915237
_cell_formula_units_Z   36
loop_
 _symmetry_equiv_pos_site_id
 _symmetry_equiv_pos_as_xyz
  1  'x, y, z'
loop_
 _atom_site_type_symbol
 _atom_site_label
 _atom_site_symmetry_multiplicity
 _atom_site_fract_x
 _atom_site_fract_y
 _atom_site_fract_z
 _atom_site_occupancy
  In  In0  1  0.03799209  -0.02300354  -0.01956699  1
  In  In1  1  0.83058823  0.50641325  0.37442462  1
  In  In2  1  -0.02118367  -0.02612478  0.68323400  1
  In  In3  1  0.68232426  -0.00432283  0.67771198  1
  In  In4  1  0.49603799  0.65821459  0.82415414  1
  In  In5  1  0.32951747  0.14141500  0.49990403  1
  In  In6  1  0.36602145  0.86279717  0.13271328  1
  In  In7  1  0.65232430  0.47770527  0.50439410  1
  In  In8  1  0.33081560  0.49589449  0.51016009  1
  In  In9  1  0.86539213  0.16013735  0.33978309  1
  In  In10  1  0.33107035  -0.01867529  0.31092311  1
  In  In11  1  0.66169077  0.31957828  -0.01911492  1
  In  In12  1  0.68110732  0.20519284  0.12773838  1
  In  In13  1  0.82905224  0.68008347  0.50412569  1
  In  In14  1  0.32596517  0.50243684  0.16260156  1
  In  In15  1  0.02225586  0.84469741  0.15719781  1
  In  In16  1  0.14840483  -0.01172008  0.53970505  1
  In  In17  1  -0.01896543  0.34743205  0.01647265  1
  In  In18  1  0.69257216  0.17130834  0.51661139  1
  In  In19  1  0.83163887  0.67903800  0.82958783  1
  In  In20  1  0.84811301  0.47123805  0.64092291  1
  In  In21  1  0.51162267  0.81747734  0.34882793  1
  In  In22  1  0.66600874  0.51194879  0.17645706  1
  In  In23  1  0.27815053  0.01258877  -0.03132385  1
  In  In24  1  0.33533558  0.32140672  0.34923147  1
  In  In25  1  0.32286396  0.49939130  0.80151474  1
  In  In26  1  0.68991498  0.67989845  -0.01256344  1
  In  In27  1  0.35754099  0.85416693  0.52696234  1
  In  In28  1  0.01377821  0.69149267  0.71287539  1
  In  In29  1  -0.03259698  -0.02716250  0.36937521  1
  In  In30  1  0.32024904  0.31803516  0.66301192  1
  In  In31  1  0.14207392  0.18001901  0.36352274  1
  In  In32  1  0.16669768  0.68550005  0.16585266  1
  In  In33  1  0.46959144  0.84027924  -0.02861948  1
  In  In34  1  0.65229180  0.84762218  0.16043701  1
  In  In35  1  0.51947921  0.02918557  0.13635638  1
  In  In36  1  0.84324168  0.16861360  0.00441613  1
  In  In37  1  0.84004806  0.01836759  0.16390470  1
  In  In38  1  0.17146279  0.81063806  0.34643452  1
  In  In39  1  0.53561317  0.00853391  0.53086717  1
  In  In40  1  0.67108586  0.35635096  0.33842253  1
  In  In41  1  0.48808933  0.16762134  0.35191247  1
  In  In42  1  0.33580757  0.65362784  0.31676902  1
  In  In43  1  0.50261551  0.69443185  0.15339840  1
  In  In44  1  0.16802165  0.48563746  0.32830949  1
  In  In45  1  0.32375776  0.87154717  0.80422257  1
  In  In46  1  0.00879271  0.15251789  0.84399332  1
  In  In47  1  0.15981339  0.68333937  0.52400008  1
  In  In48  1  0.84136705  0.14906411  0.66948789  1
  In  In49  1  0.14457882  0.49905510  -0.01668411  1
  In  In50  1  0.81680490  0.54212418  0.00635393  1
  In  In51  1  -0.02634325  0.66836912  0.35025902  1
  In  In52  1  0.86409304  0.34205075  0.80271708  1
  In  In53  1  0.33215356  0.30721461  -0.01106167  1
  In  In54  1  0.65733482  -0.00389609  0.34094532  1
  In  In55  1  0.82074945  0.83650160  0.68002634  1
  In  In56  1  0.48205873  0.50651865  -0.01808410  1
  In  In57  1  -0.01228000  0.51834956  0.15502195  1
  In  In58  1  0.48579507  0.32156648  0.85052446  1
  In  In59  1  0.51571067  0.64486153  0.50796212  1
  In  In60  1  0.01174903  0.48965619  0.81775387  1
  In  In61  1  0.01089959  0.32087581  0.40206352  1
  In  In62  1  0.64446726  0.65956786  0.66761276  1
  In  In63  1  0.31524536  0.68081234  0.68801768  1
  In  In64  1  0.32144430  0.18614277  0.16377513  1
  In  In65  1  0.16102916  0.31790076  0.81268550  1
  In  In66  1  0.83699171  0.34389375  0.17692341  1
  In  In67  1  0.47183805  0.33151564  0.50922106  1
  In  In68  1  0.47952883  0.15179538  -0.02964316  1
  In  In69  1  0.67591253  -0.02249797  -0.13807801  1
  In  In70  1  0.84625328  0.67339000  0.17221305  1
  In  In71  1  0.18087575  0.00114647  0.15563085  1
  Te  Te72  1  0.09514532  0.08056823  0.06959043  1
  Te  Te73  1  0.07229431  0.06282978  0.43328682  1
  Te  Te74  1  0.08382659  0.05873828  0.75244961  1
  Te  Te75  1  0.08649983  0.41868132  0.09916287  1
  Te  Te76  1  0.09496199  0.43756352  0.44396503  1
  Te  Te77  1  0.08191299  0.40416978  0.71864287  1
  Te  Te78  1  0.08801632  0.75276569  0.06355378  1
  Te  Te79  1  0.06122459  0.76063193  0.43507436  1
  Te  Te80  1  0.11455168  0.78493261  0.76869986  1
  Te  Te81  1  0.38656588  0.07596085  0.08017841  1
  Te  Te82  1  0.42839244  0.04589103  0.41919623  1
  Te  Te83  1  0.46262835  0.01061061  0.76530766  1
  Te  Te84  1  0.40834271  0.41160980  0.07285134  1
  Te  Te85  1  0.42113101  0.43260968  0.40632831  1
  Te  Te86  1  0.42030020  0.40343976  0.74019067  1
  Te  Te87  1  0.39628907  0.73560615  0.05486289  1
  Te  Te88  1  0.40080351  0.74560604  0.42277434  1
  Te  Te89  1  0.42320904  0.76768791  0.74808244  1
  Te  Te90  1  0.73748631  0.07859155  0.06848282  1
  Te  Te91  1  0.75877906  0.07968831  0.41595902  1
  Te  Te92  1  0.76997976  0.06856576  0.77463515  1
  Te  Te93  1  0.75032800  0.41929769  0.07840268  1
  Te  Te94  1  0.77045355  0.38899586  0.44558902  1
  Te  Te95  1  0.75211158  0.40246597  0.72914069  1
  Te  Te96  1  0.76038552  0.76687867  0.08850307  1
  Te  Te97  1  0.78983647  0.76912168  0.39708196  1
  Te  Te98  1  0.72096662  0.75437262  0.75775112  1
  Te  Te99  1  0.06717467  0.26783844  0.27581393  1
  Te  Te100  1  0.04382243  0.26991863  0.54088176  1
  Te  Te101  1  0.07039033  0.26570974  0.92459661  1
  Te  Te102  1  0.08076104  0.59813596  0.25711350  1
  Te  Te103  1  0.09123563  0.59888531  0.62331447  1
  Te  Te104  1  0.07625719  0.59478304  0.89744455  1
  Te  Te105  1  0.10666247  0.91929188  0.26050654  1
  Te  Te106  1  0.06289142  0.88598758  0.59745870  1
  Te  Te107  1  0.11151824  0.88211211  0.89157436  1
  Te  Te108  1  0.42806176  0.25694262  0.24632471  1
  Te  Te109  1  0.42026139  0.21771754  0.59363192  1
  Te  Te110  1  0.37816185  0.21360479  0.87837599  1
  Te  Te111  1  0.43655858  0.58000756  0.23316251  1
  Te  Te112  1  0.40639204  0.59184682  0.59745384  1
  Te  Te113  1  0.38434587  0.59162166  0.90488684  1
  Te  Te114  1  0.45762627  0.91809534  0.24221156  1
  Te  Te115  1  0.43163889  0.94519510  0.61899068  1
  Te  Te116  1  0.41255329  0.96553454  0.90259095  1
  Te  Te117  1  0.75739971  0.24276560  0.26076634  1
  Te  Te118  1  0.75395625  0.25852076  0.61836594  1
  Te  Te119  1  0.77928212  0.26179522  0.90559168  1
  Te  Te120  1  0.76216027  0.58763980  0.26419742  1
  Te  Te121  1  0.74551795  0.57960630  0.58340848  1
  Te  Te122  1  0.73192330  0.57461373  0.88690945  1
  Te  Te123  1  0.75176789  0.92487083  0.24562799  1
  Te  Te124  1  0.76737655  0.92785978  0.57524345  1
  Te  Te125  1  0.78153642  0.88086402  0.90305358  1
  Te  Te126  1  0.22766771  0.24290437  0.06813716  1
  Te  Te127  1  0.24400858  0.25505522  0.44884613  1
  Te  Te128  1  0.21725321  0.22579526  0.71362957  1
  Te  Te129  1  0.23621549  0.58470101  0.07512572  1
  Te  Te130  1  0.23866274  0.59795173  0.41844840  1
  Te  Te131  1  0.21744719  0.58079394  0.73704613  1
  Te  Te132  1  0.23892835  0.89851785  0.06016307  1
  Te  Te133  1  0.25209423  0.91578313  0.42433657  1
  Te  Te134  1  0.23235986  0.97524390  0.74791471  1
  Te  Te135  1  0.55416105  0.25112431  0.06276948  1
  Te  Te136  1  0.58751337  0.25171658  0.42816827  1
  Te  Te137  1  0.58583075  0.22789966  0.80023345  1
  Te  Te138  1  0.58495104  0.58987323  0.06792028  1
  Te  Te139  1  0.59617472  0.57342927  0.40926566  1
  Te  Te140  1  0.56232400  0.56121565  0.73800498  1
  Te  Te141  1  0.57840118  0.92027134  0.05005278  1
  Te  Te142  1  0.59950546  0.89874014  0.44133265  1
  Te  Te143  1  0.58179190  0.91478463  0.76103447  1
  Te  Te144  1  0.92582695  0.24082706  0.10914327  1
  Te  Te145  1  0.91674552  0.21834163  0.46691527  1
  Te  Te146  1  0.94978754  0.23836594  0.73558830  1
  Te  Te147  1  0.93501252  0.62154697  0.05929769  1
  Te  Te148  1  0.93575856  0.57225659  0.45913317  1
  Te  Te149  1  0.90433824  0.57762459  0.74162347  1
  Te  Te150  1  0.92425775  0.92682588  0.07733846  1
  Te  Te151  1  0.86990639  0.89198757  0.44340964  1
  Te  Te152  1  0.90575646  0.89471548  0.79252977  1
  Te  Te153  1  0.25002731  0.10299886  0.27274622  1
  Te  Te154  1  0.26174296  0.05898721  0.60368417  1
  Te  Te155  1  0.20829186  0.08112137  0.85855903  1
  Te  Te156  1  0.25351440  0.39565887  0.24338884  1
  Te  Te157  1  0.23865861  0.41193870  0.58377227  1
  Te  Te158  1  0.24981013  0.41163042  0.90662241  1
  Te  Te159  1  0.27908951  0.76993940  0.23732171  1
  Te  Te160  1  0.24590514  0.78377902  0.60054959  1
  Te  Te161  1  0.23244475  0.77799937  0.87346041  1
  Te  Te162  1  0.58768903  0.09951932  0.25277335  1
  Te  Te163  1  0.59854379  0.11184002  0.62061612  1
  Te  Te164  1  0.60239964  0.11040754  0.89537232  1
  Te  Te165  1  0.58529536  0.40394276  0.23164706  1
  Te  Te166  1  0.56871487  0.39950122  0.59421395  1
  Te  Te167  1  0.58483778  0.42626557  0.90545057  1
  Te  Te168  1  0.60399786  0.73978437  0.25684822  1
  Te  Te169  1  0.57934392  0.75568427  0.57743582  1
  Te  Te170  1  0.57830891  0.75092793  0.91326686  1
  Te  Te171  1  0.95127692  0.06985941  0.25315812  1
  Te  Te172  1  0.92084252  0.06194340  0.57958795  1
  Te  Te173  1  0.92040283  0.06492019  0.92688990  1
  Te  Te174  1  0.91612961  0.43969735  0.26219810  1
  Te  Te175  1  0.96498512  0.38923229  0.60463472  1
  Te  Te176  1  0.90530964  0.44020954  0.92490667  1
  Te  Te177  1  0.92570471  0.77362513  0.25260375  1
  Te  Te178  1  0.91869729  0.74669795  0.60658752  1
  Te  Te179  1  0.90268750  0.78182532  0.90715848  1
