# generated using pymatgen
data_In2Te3
_symmetry_space_group_name_H-M   'P 1'
_cell_length_a   18.80276855
_cell_length_b   18.80779295
_cell_length_c   18.81435857
_cell_angle_alpha   89.82732770
_cell_angle_beta   90.00017240
_cell_angle_gamma   90.05187403
_symmetry_Int_Tables_number   1
_chemical_formula_structural   In2Te3
_chemical_formula_sum   'In72 Te108'
_cell_volume   6653.45006454
_cell_formula_units_Z   36
loop_
 _symmetry_equiv_pos_site_id
 _symmetry_equiv_pos_as_xyz
  1  'x, y, z'
loop_
 _atom_site_type_symbol
 _atom_site_label
 _atom_site_symmetry_multiplicity
 _atom_site_fract_x
 _atom_site_fract_y
 _atom_site_fract_z
 _atom_site_occupancy
  In  In0  1  0.49689123  0.00516023  0.44529041  1
  In  In1  1  0.84631699  0.00415797  0.83844427  1
  In  In2  1  0.84194266  0.65864003  0.16869395  1
  In  In3  1  0.32597962  0.01975803  0.67002431  1
  In  In4  1  0.00267447  0.00193280  0.30250931  1
  In  In5  1  0.15893535  0.82472599  0.00997049  1
  In  In6  1  0.18429043  0.32667811  0.16028411  1
  In  In7  1  0.01562181  0.49920875  0.53835440  1
  In  In8  1  0.00000156  0.64461060  0.33549912  1
  In  In9  1  0.00859084  0.18895349  0.51358243  1
  In  In10  1  0.32240667  0.17464408  0.13031836  1
  In  In11  1  0.14210726  0.19057939  0.67867535  1
  In  In12  1  0.49544745  0.15504251  0.32600360  1
  In  In13  1  0.33554425  0.49642257  0.15577072  1
  In  In14  1  0.00138023  0.49134629  0.17287379  1
  In  In15  1  0.30292410  0.52067783  0.49000462  1
  In  In16  1  0.16304717  -0.00433858  0.15228647  1
  In  In17  1  0.49747106  0.35173517  0.14073516  1
  In  In18  1  0.66754427  0.16951385  0.49315044  1
  In  In19  1  -0.00640015  0.01855622  -0.00014071  1
  In  In20  1  -0.01209638  0.18461967  0.81776155  1
  In  In21  1  0.67628987  0.20603394  0.82699352  1
  In  In22  1  0.83717421  0.01695664  0.50907125  1
  In  In23  1  0.53516842  0.67154040  0.50630245  1
  In  In24  1  0.16394531  0.63666328  0.81630800  1
  In  In25  1  0.67510062  -0.01860505  0.65557804  1
  In  In26  1  0.83874252  0.80531260  0.66939876  1
  In  In27  1  0.49041701  0.48930020  0.68144118  1
  In  In28  1  0.82892672  0.49947378  0.34046213  1
  In  In29  1  0.33175214  0.66276332  0.00764325  1
  In  In30  1  0.70667242  0.31258921  0.31359841  1
  In  In31  1  0.35026896  0.00051076  0.34006041  1
  In  In32  1  0.63975519  -0.01291899  0.32702846  1
  In  In33  1  0.68772231  0.83938377  0.80583592  1
  In  In34  1  0.01563900  0.83066958  0.15647952  1
  In  In35  1  0.17339944  0.18200191  0.34261750  1
  In  In36  1  -0.02266077  0.81121998  0.51443852  1
  In  In37  1  0.32419801  0.65128632  0.68307856  1
  In  In38  1  -0.00456206  0.34525119  -0.02280780  1
  In  In39  1  0.65624215  0.81814543  0.17136669  1
  In  In40  1  0.86954379  0.63071436  0.84316578  1
  In  In41  1  0.48588406  0.01823650  0.84626515  1
  In  In42  1  -0.00203884  0.17929491  0.14487597  1
  In  In43  1  0.67118916  0.33291261  0.00618097  1
  In  In44  1  0.49717857  0.51748169  0.32585361  1
  In  In45  1  0.33386625  0.82299641  0.51025664  1
  In  In46  1  0.19894783  0.74609080  0.32417033  1
  In  In47  1  0.83819660  0.33237263  0.51830643  1
  In  In48  1  0.00778838  0.66693729  -0.01083677  1
  In  In49  1  -0.01487902  0.35213747  0.36506412  1
  In  In50  1  0.69007551  0.46638310  0.81930099  1
  In  In51  1  0.49315126  0.01141419  0.18042308  1
  In  In52  1  0.66800079  0.49604303  0.15390961  1
  In  In53  1  0.67103745  0.02815488  -0.00679124  1
  In  In54  1  0.32250173  0.32094203  0.34750122  1
  In  In55  1  0.81340967  0.81527256  0.36274060  1
  In  In56  1  0.01635480  0.82814254  0.83599357  1
  In  In57  1  0.49240359  0.83087977  -0.00318960  1
  In  In58  1  0.33228271  0.34583044  0.66604515  1
  In  In59  1  0.16890153  -0.00955448  0.51298575  1
  In  In60  1  0.50148842  0.81346771  0.63458663  1
  In  In61  1  0.48709743  0.51608509  -0.01028020  1
  In  In62  1  0.84401269  0.18101455  0.66083746  1
  In  In63  1  0.51250930  0.17224248  0.67925579  1
  In  In64  1  0.17338227  0.36830866  0.84456376  1
  In  In65  1  0.17533817  0.82613004  0.68320834  1
  In  In66  1  0.50851887  0.63370038  0.85653025  1
  In  In67  1  0.83059228  0.01658241  0.15364788  1
  In  In68  1  0.33286717  0.84009631  0.81348279  1
  In  In69  1  0.66870390  0.64997749  0.00055928  1
  In  In70  1  0.50606607  0.82776814  0.32662562  1
  In  In71  1  0.51211500  0.35032949  0.52215864  1
  Te  Te72  1  0.10284969  0.10422518  0.06396578  1
  Te  Te73  1  0.07796633  0.07830318  0.41578150  1
  Te  Te74  1  0.07705553  0.08319731  0.75812573  1
  Te  Te75  1  0.09210608  0.41498898  0.07692544  1
  Te  Te76  1  0.08830914  0.43660132  0.42525642  1
  Te  Te77  1  0.05757962  0.42584349  0.76740036  1
  Te  Te78  1  0.09943950  0.71713181  0.10179437  1
  Te  Te79  1  0.07882842  0.74563662  0.42119160  1
  Te  Te80  1  0.06285579  0.72494441  0.73119808  1
  Te  Te81  1  0.41648341  0.07410849  0.06649299  1
  Te  Te82  1  0.39031103  0.11600766  0.43137285  1
  Te  Te83  1  0.39842813  0.11420381  0.76511954  1
  Te  Te84  1  0.39136480  0.40433126  0.04409305  1
  Te  Te85  1  0.41241854  0.42331781  0.42376678  1
  Te  Te86  1  0.42712163  0.38993947  0.77310154  1
  Te  Te87  1  0.42364635  0.74237153  0.09433502  1
  Te  Te88  1  0.42337739  0.73930521  0.42169664  1
  Te  Te89  1  0.43389786  0.74163109  0.75405240  1
  Te  Te90  1  0.75683760  0.12070146  0.07445286  1
  Te  Te91  1  0.74396901  0.07560081  0.40310822  1
  Te  Te92  1  0.74635501  0.08161550  0.74724974  1
  Te  Te93  1  0.76823559  0.41627004  0.08404328  1
  Te  Te94  1  0.74060410  0.40800261  0.42552534  1
  Te  Te95  1  0.79307924  0.40660088  0.73069759  1
  Te  Te96  1  0.75603153  0.74864927  0.07848072  1
  Te  Te97  1  0.73751783  0.70274745  0.41837017  1
  Te  Te98  1  0.76224898  0.71330220  0.76465163  1
  Te  Te99  1  0.07673258  0.26261284  0.25560274  1
  Te  Te100  1  0.06025590  0.29038408  0.60568012  1
  Te  Te101  1  0.09166734  0.25027513  0.90757754  1
  Te  Te102  1  0.09702622  0.56952217  0.25438610  1
  Te  Te103  1  0.07127230  0.60694401  0.62374598  1
  Te  Te104  1  0.09022631  0.56164970  0.92261407  1
  Te  Te105  1  0.10535826  0.89729570  0.26019275  1
  Te  Te106  1  0.07562024  0.90319429  0.59469473  1
  Te  Te107  1  0.09086750  0.93070334  0.92095897  1
  Te  Te108  1  0.40974838  0.25510170  0.23761750  1
  Te  Te109  1  0.41783058  0.24811490  0.58401934  1
  Te  Te110  1  0.37991897  0.21461375  0.96448505  1
  Te  Te111  1  0.39444345  0.59875756  0.25284184  1
  Te  Te112  1  0.42033116  0.58754499  0.57957623  1
  Te  Te113  1  0.37428210  0.56465267  0.88645321  1
  Te  Te114  1  0.40572274  0.90148337  0.23792310  1
  Te  Te115  1  0.41461376  0.93330991  0.57966144  1
  Te  Te116  1  0.39427843  0.92338296  0.92564619  1
  Te  Te117  1  0.73713898  0.21748342  0.20914875  1
  Te  Te118  1  0.72670581  0.25756634  0.59961987  1
  Te  Te119  1  0.77234582  0.28246658  0.90706890  1
  Te  Te120  1  0.73811959  0.58848773  0.25528067  1
  Te  Te121  1  0.70808854  0.61450178  0.54011652  1
  Te  Te122  1  0.75937288  0.55686302  0.92366610  1
  Te  Te123  1  0.75765109  0.91544298  0.24861753  1
  Te  Te124  1  0.76289253  0.89581555  0.56735407  1
  Te  Te125  1  0.75089188  0.91842840  0.92169647  1
  Te  Te126  1  0.24254332  0.26212777  0.03569208  1
  Te  Te127  1  0.22174759  0.27549973  0.44527373  1
  Te  Te128  1  0.24780057  0.26120397  0.76318060  1
  Te  Te129  1  0.23678794  0.56949468  0.07135612  1
  Te  Te130  1  0.23921860  0.61695154  0.39972259  1
  Te  Te131  1  0.23213647  0.53866434  0.72333432  1
  Te  Te132  1  0.25630558  0.90219489  0.08852334  1
  Te  Te133  1  0.24939569  0.90767840  0.41362137  1
  Te  Te134  1  0.23235501  0.94441027  0.76413083  1
  Te  Te135  1  0.57307010  0.24457391  0.07584380  1
  Te  Te136  1  0.57583415  0.25724202  0.40790005  1
  Te  Te137  1  0.57122798  0.28539098  0.75556088  1
  Te  Te138  1  0.56447284  0.59312384  0.09705860  1
  Te  Te139  1  0.59869965  0.55684905  0.43011297  1
  Te  Te140  1  0.60051493  0.57379316  0.75296584  1
  Te  Te141  1  0.58771777  0.92623658  0.08288757  1
  Te  Te142  1  0.59574294  0.88936820  0.43611858  1
  Te  Te143  1  0.56649924  0.92271853  0.75350009  1
  Te  Te144  1  0.90985734  0.27465648  0.07581493  1
  Te  Te145  1  0.89938803  0.23578504  0.41726296  1
  Te  Te146  1  0.89507795  0.28740996  0.75441119  1
  Te  Te147  1  0.91709441  0.57140854  0.07201550  1
  Te  Te148  1  0.91473121  0.57553071  0.43850165  1
  Te  Te149  1  0.96042660  0.55026206  0.75244740  1
  Te  Te150  1  0.91474154  0.91283278  0.07670329  1
  Te  Te151  1  0.92181679  0.92586147  0.41044024  1
  Te  Te152  1  0.92140352  0.90974686  0.74639837  1
  Te  Te153  1  0.25197253  0.08664639  0.25028214  1
  Te  Te154  1  0.23609266  0.10582719  0.58256389  1
  Te  Te155  1  0.29156880  0.10057708  0.95779423  1
  Te  Te156  1  0.24800975  0.42149396  0.26068578  1
  Te  Te157  1  0.23418428  0.43939219  0.59679119  1
  Te  Te158  1  0.27724780  0.44355640  0.91926958  1
  Te  Te159  1  0.29524654  0.71631352  0.21808199  1
  Te  Te160  1  0.23880829  0.72946722  0.58348589  1
  Te  Te161  1  0.24229067  0.74828440  0.89752747  1
  Te  Te162  1  0.60486464  0.10367007  0.23023349  1
  Te  Te163  1  0.57906531  0.07278472  0.57515471  1
  Te  Te164  1  0.57897888  0.11883402  0.91286367  1
  Te  Te165  1  0.58254498  0.40858069  0.25609895  1
  Te  Te166  1  0.60312048  0.43385476  0.60082001  1
  Te  Te167  1  0.57939319  0.41956121  0.91658880  1
  Te  Te168  1  0.58982165  0.72453412  0.26289155  1
  Te  Te169  1  0.62680238  0.73472494  0.60982681  1
  Te  Te170  1  0.59444587  0.75812668  0.90906665  1
  Te  Te171  1  0.90905297  0.10785535  0.24965782  1
  Te  Te172  1  0.94102799  0.08009034  0.60061136  1
  Te  Te173  1  0.90156584  0.11414006  0.92602920  1
  Te  Te174  1  0.90098779  0.40216574  0.24783282  1
  Te  Te175  1  0.88421025  0.44883026  0.60038034  1
  Te  Te176  1  0.95564175  0.45812138  0.88295132  1
  Te  Te177  1  0.91844478  0.76013093  0.25560070  1
  Te  Te178  1  0.90227614  0.70352832  0.58239577  1
  Te  Te179  1  0.90877150  0.75979251  0.91952174  1
