# generated using pymatgen
data_In2Te3
_symmetry_space_group_name_H-M   'P 1'
_cell_length_a   18.90544614
_cell_length_b   18.90333325
_cell_length_c   18.92907793
_cell_angle_alpha   89.97994546
_cell_angle_beta   90.08066943
_cell_angle_gamma   89.93045941
_symmetry_Int_Tables_number   1
_chemical_formula_structural   In2Te3
_chemical_formula_sum   'In72 Te108'
_cell_volume   6764.78507664
_cell_formula_units_Z   36
loop_
 _symmetry_equiv_pos_site_id
 _symmetry_equiv_pos_as_xyz
  1  'x, y, z'
loop_
 _atom_site_type_symbol
 _atom_site_label
 _atom_site_symmetry_multiplicity
 _atom_site_fract_x
 _atom_site_fract_y
 _atom_site_fract_z
 _atom_site_occupancy
  In  In0  1  0.16239087  -0.00531227  0.16294063  1
  In  In1  1  0.19173806  0.14683148  0.63277380  1
  In  In2  1  0.33402314  0.46820448  0.51261192  1
  In  In3  1  0.86671213  0.32115986  0.50362508  1
  In  In4  1  0.48259564  0.02049019  0.50065481  1
  In  In5  1  0.00799727  0.15325910  0.18651424  1
  In  In6  1  0.82254615  -0.01314079  0.84287403  1
  In  In7  1  0.83484227  0.00790529  0.48564195  1
  In  In8  1  0.02451038  0.67252352  0.65139357  1
  In  In9  1  0.32554473  0.00588568  0.00053738  1
  In  In10  1  0.02671507  0.33426184  0.67102072  1
  In  In11  1  0.49961877  0.81840010  0.01391321  1
  In  In12  1  0.50883084  0.67976313  0.48299465  1
  In  In13  1  0.82490096  0.66534659  0.84957897  1
  In  In14  1  0.83360380  0.17498317  0.32756792  1
  In  In15  1  0.15588195  0.66276933  0.48172144  1
  In  In16  1  0.49051819  0.33657910  0.82945001  1
  In  In17  1  -0.00371798  0.49609569  0.18929043  1
  In  In18  1  0.33148546  0.17127507  0.82171500  1
  In  In19  1  0.18286872  0.16452477  0.33448072  1
  In  In20  1  0.31619889  0.81728283  0.83454497  1
  In  In21  1  0.35714222  0.18758395  0.15573296  1
  In  In22  1  0.83575362  0.49161215  0.67748234  1
  In  In23  1  0.18326669  0.35192352  0.17432748  1
  In  In24  1  0.67694301  0.00201207  0.33509848  1
  In  In25  1  -0.01746806  0.82392048  0.83328980  1
  In  In26  1  0.81111449  0.17212170  0.01316838  1
  In  In27  1  0.34962616  0.66803253  0.32722786  1
  In  In28  1  0.66032397  0.66588669  0.00286732  1
  In  In29  1  0.49669343  0.50353734  0.67758790  1
  In  In30  1  0.67095256  0.33507503  0.67168275  1
  In  In31  1  0.48472051  0.84903729  0.65419493  1
  In  In32  1  0.80149182  0.34526962  0.16420578  1
  In  In33  1  0.49993967  0.83334073  0.33155693  1
  In  In34  1  0.17381169  0.00346238  0.82348801  1
  In  In35  1  0.17845977  0.35425582  0.83586442  1
  In  In36  1  0.85407170  0.65849771  0.48887765  1
  In  In37  1  0.00505787  0.00071366  0.32997132  1
  In  In38  1  0.83834966  0.81281970  0.66921159  1
  In  In39  1  0.46760899  0.16491905  0.65606231  1
  In  In40  1  0.83459477  0.14549651  0.66297195  1
  In  In41  1  0.52953320  0.36268348  0.19231293  1
  In  In42  1  0.83765681  0.82193631  0.32359349  1
  In  In43  1  0.17404410  0.64207661  0.15482659  1
  In  In44  1  0.67544963  0.34035491  0.02719732  1
  In  In45  1  0.82643650  0.33623168  0.86212083  1
  In  In46  1  0.66697064  0.66596286  0.69454858  1
  In  In47  1  0.35827000  0.52115947  0.83757559  1
  In  In48  1  0.65177107  0.14970995  0.17145485  1
  In  In49  1  0.14663380  0.65214548  0.83697485  1
  In  In50  1  0.00709545  0.19989811  0.82930332  1
  In  In51  1  0.51336886  0.29914738  0.47756603  1
  In  In52  1  -0.02977190  -0.00311091  0.00726654  1
  In  In53  1  0.84368136  0.49687717  0.33920651  1
  In  In54  1  0.33644932  -0.01356126  0.35044048  1
  In  In55  1  0.63823214  0.00116747  0.66754195  1
  In  In56  1  0.30809621  0.67735037  0.64765792  1
  In  In57  1  0.50187825  0.67767640  0.17267714  1
  In  In58  1  0.50381408  -0.02947986  0.16661812  1
  In  In59  1  0.32468638  0.33849295  -0.00061270  1
  In  In60  1  0.83653813  0.65792013  0.18034791  1
  In  In61  1  0.13965682  0.35584349  0.47448549  1
  In  In62  1  0.82947963  0.83452919  0.00160969  1
  In  In63  1  0.48484106  0.50013737  0.00871653  1
  In  In64  1  0.52254463  0.01769739  0.86043227  1
  In  In65  1  0.69726656  0.82532954  0.48532202  1
  In  In66  1  0.33204455  0.34512334  0.33644172  1
  In  In67  1  0.14477961  0.80597013  0.00108909  1
  In  In68  1  0.04105286  -0.01564078  0.63119449  1
  In  In69  1  -0.01492016  0.35196518  0.00318202  1
  In  In70  1  0.17097965  0.82357988  0.33427479  1
  In  In71  1  0.65562696  0.52061390  0.47835676  1
  Te  Te72  1  0.07868652  0.08389241  0.07158001  1
  Te  Te73  1  0.09294649  0.08091034  0.41717225  1
  Te  Te74  1  0.07767975  0.09777876  0.73935821  1
  Te  Te75  1  0.09164467  0.43152355  0.07994746  1
  Te  Te76  1  0.07421527  0.46145214  0.39214160  1
  Te  Te77  1  0.07207664  0.43843417  0.77022133  1
  Te  Te78  1  0.06672066  0.71512814  0.08400976  1
  Te  Te79  1  0.06541940  0.73158716  0.38416202  1
  Te  Te80  1  0.09402671  0.76752728  0.74881579  1
  Te  Te81  1  0.43127659  0.07903077  0.08052241  1
  Te  Te82  1  0.40368481  0.10331071  0.40834023  1
  Te  Te83  1  0.41747529  0.06431815  0.75873416  1
  Te  Te84  1  0.40912786  0.40866890  0.10279005  1
  Te  Te85  1  0.43963593  0.41960091  0.41542952  1
  Te  Te86  1  0.39320981  0.40962169  0.73868377  1
  Te  Te87  1  0.39993095  0.73946825  0.08564195  1
  Te  Te88  1  0.40239117  0.77345915  0.43052381  1
  Te  Te89  1  0.41244176  0.74399856  0.73654760  1
  Te  Te90  1  0.75027182  0.06963382  0.09790924  1
  Te  Te91  1  0.73714821  0.10644095  0.42691907  1
  Te  Te92  1  0.73599031  0.07908644  0.75631243  1
  Te  Te93  1  0.78200940  0.44174520  0.05299431  1
  Te  Te94  1  0.76230597  0.41867411  0.44205496  1
  Te  Te95  1  0.73756456  0.42588059  0.77331977  1
  Te  Te96  1  0.74693882  0.74853157  0.09621737  1
  Te  Te97  1  0.74692720  0.71529955  0.39777894  1
  Te  Te98  1  0.74144188  0.77177536  0.77674827  1
  Te  Te99  1  0.09206353  0.25886899  0.25637362  1
  Te  Te100  1  0.08820972  0.24129414  0.56984151  1
  Te  Te101  1  0.09325935  0.26912593  0.93085961  1
  Te  Te102  1  0.11277049  0.55280429  0.26969612  1
  Te  Te103  1  0.11025252  0.56930925  0.58936499  1
  Te  Te104  1  0.05313296  0.55280234  0.89086346  1
  Te  Te105  1  0.07364103  0.90050753  0.23845295  1
  Te  Te106  1  0.12026361  0.89444772  0.54884744  1
  Te  Te107  1  0.07580968  0.92403885  0.91339808  1
  Te  Te108  1  0.43417940  0.26095757  0.26101817  1
  Te  Te109  1  0.41013490  0.27531260  0.57845307  1
  Te  Te110  1  0.41702170  0.24325211  0.92461366  1
  Te  Te111  1  0.42642991  0.57304521  0.24624535  1
  Te  Te112  1  0.42297872  0.59244577  0.57682020  1
  Te  Te113  1  0.43323400  0.61230166  0.92553892  1
  Te  Te114  1  0.39390131  0.89805760  0.24207169  1
  Te  Te115  1  0.38682377  0.93842623  0.58353459  1
  Te  Te116  1  0.40800479  0.91482145  0.91148113  1
  Te  Te117  1  0.71939769  0.26094696  0.26570316  1
  Te  Te118  1  0.75532170  0.24726492  0.58159108  1
  Te  Te119  1  0.71535113  0.23467942  0.91007033  1
  Te  Te120  1  0.74193404  0.56084718  0.24912746  1
  Te  Te121  1  0.75199814  0.59075520  0.58947667  1
  Te  Te122  1  0.74573884  0.56996813  0.92722469  1
  Te  Te123  1  0.72757333  0.89213205  0.25148568  1
  Te  Te124  1  0.75529918  0.92532429  0.59326153  1
  Te  Te125  1  0.73023762  0.92536909  0.93775919  1
  Te  Te126  1  0.23794446  0.24291381  0.08136254  1
  Te  Te127  1  0.25301794  0.25812974  0.43100154  1
  Te  Te128  1  0.23684134  0.25356617  0.73753193  1
  Te  Te129  1  0.22635668  0.54289172  0.06009787  1
  Te  Te130  1  0.27566321  0.58248500  0.42942699  1
  Te  Te131  1  0.25001871  0.58019254  0.74792091  1
  Te  Te132  1  0.24198325  0.90216295  0.07262691  1
  Te  Te133  1  0.21262417  0.94030895  0.42206893  1
  Te  Te134  1  0.24988929  0.91046888  0.74113288  1
  Te  Te135  1  0.57169843  0.25280318  0.09413977  1
  Te  Te136  1  0.61635119  0.26484617  0.38302303  1
  Te  Te137  1  0.57159995  0.24484564  0.74068072  1
  Te  Te138  1  0.58586384  0.57143121  0.09602560  1
  Te  Te139  1  0.56095844  0.58376590  0.38457741  1
  Te  Te140  1  0.58099441  0.57672328  0.77197261  1
  Te  Te141  1  0.59250603  0.92495473  0.05854276  1
  Te  Te142  1  0.58512932  0.91871932  0.43857755  1
  Te  Te143  1  0.57514102  0.90419855  0.76296885  1
  Te  Te144  1  0.91649599  0.24581357  0.09590901  1
  Te  Te145  1  0.93853132  0.23104151  0.41343025  1
  Te  Te146  1  0.89918656  0.26643127  0.73933699  1
  Te  Te147  1  0.90717066  0.56238233  0.09087103  1
  Te  Te148  1  0.94482427  0.55096093  0.43795179  1
  Te  Te149  1  0.91064317  0.60974622  0.73667042  1
  Te  Te150  1  0.92044230  0.89690318  0.09969085  1
  Te  Te151  1  0.92286500  0.90611764  0.41860147  1
  Te  Te152  1  0.92361780  0.92608227  0.73476972  1
  Te  Te153  1  0.26542025  0.08254226  0.23317171  1
  Te  Te154  1  0.30429898  0.07304622  0.57556216  1
  Te  Te155  1  0.23825151  0.10114141  0.92000213  1
  Te  Te156  1  0.25084039  0.44729287  0.26548778  1
  Te  Te157  1  0.21168326  0.42670613  0.58490242  1
  Te  Te158  1  0.24831212  0.45486936  0.93249494  1
  Te  Te159  1  0.25544037  0.74515261  0.23574751  1
  Te  Te160  1  0.22522059  0.76928066  0.56548567  1
  Te  Te161  1  0.24746681  0.72010644  0.92920105  1
  Te  Te162  1  0.56054246  0.07110679  0.26600468  1
  Te  Te163  1  0.58373313  0.10691459  0.57439642  1
  Te  Te164  1  0.60792814  0.12002536  0.91616392  1
  Te  Te165  1  0.63578398  0.44618164  0.24864301  1
  Te  Te166  1  0.58826437  0.42688839  0.58229521  1
  Te  Te167  1  0.57730787  0.40983695  0.92783772  1
  Te  Te168  1  0.59748790  0.76849397  0.24401026  1
  Te  Te169  1  0.59981617  0.75743624  0.58585131  1
  Te  Te170  1  0.56731730  0.73599985  0.91110850  1
  Te  Te171  1  0.89701743  0.06543431  0.24269983  1
  Te  Te172  1  0.93635443  0.08184786  0.57098611  1
  Te  Te173  1  0.91348623  0.10377840  0.90338997  1
  Te  Te174  1  0.91284291  0.38786240  0.25832446  1
  Te  Te175  1  0.93915075  0.42729551  0.58664032  1
  Te  Te176  1  0.93614324  0.43689992  0.88855308  1
  Te  Te177  1  0.93395919  0.71815296  0.27654063  1
  Te  Te178  1  0.93511404  0.76338348  0.56470065  1
  Te  Te179  1  0.92785989  0.73382487  0.93973210  1
