# generated using pymatgen
data_In2Te3
_symmetry_space_group_name_H-M   'P 1'
_cell_length_a   18.82832071
_cell_length_b   18.82788746
_cell_length_c   18.81777530
_cell_angle_alpha   89.93537384
_cell_angle_beta   89.94838600
_cell_angle_gamma   90.03689127
_symmetry_Int_Tables_number   1
_chemical_formula_structural   In2Te3
_chemical_formula_sum   'In72 Te108'
_cell_volume   6670.84602615
_cell_formula_units_Z   36
loop_
 _symmetry_equiv_pos_site_id
 _symmetry_equiv_pos_as_xyz
  1  'x, y, z'
loop_
 _atom_site_type_symbol
 _atom_site_label
 _atom_site_symmetry_multiplicity
 _atom_site_fract_x
 _atom_site_fract_y
 _atom_site_fract_z
 _atom_site_occupancy
  In  In0  1  0.82311850  0.15688738  0.67782150  1
  In  In1  1  -0.00003522  0.17529166  0.16476958  1
  In  In2  1  0.15993910  0.82426587  -0.00036405  1
  In  In3  1  0.67951782  0.49484296  0.85175204  1
  In  In4  1  0.84087385  -0.00052477  0.50210570  1
  In  In5  1  0.14857865  0.32968334  0.83485687  1
  In  In6  1  0.67555678  0.83668922  0.82025406  1
  In  In7  1  0.34522405  -0.03169763  -0.03234044  1
  In  In8  1  0.17414091  0.69209557  0.83518656  1
  In  In9  1  0.34350594  0.31854113  0.63882157  1
  In  In10  1  0.14358523  0.01834973  0.50777547  1
  In  In11  1  0.15951186  0.84508835  0.67500734  1
  In  In12  1  0.51576656  0.66819571  0.49715329  1
  In  In13  1  0.34246032  0.67272910  0.67134002  1
  In  In14  1  0.33230177  0.33052763  0.31452385  1
  In  In15  1  0.85999528  0.46877077  0.31446062  1
  In  In16  1  0.15697836  -0.01389023  0.84262985  1
  In  In17  1  0.83793389  0.16972393  0.33508022  1
  In  In18  1  0.51277960  0.47611218  0.65711892  1
  In  In19  1  0.51203094  0.82492503  0.68009555  1
  In  In20  1  0.50481413  0.01292511  0.51823226  1
  In  In21  1  0.50156780  0.66098884  0.83069991  1
  In  In22  1  0.15841102  0.33274223  0.18278867  1
  In  In23  1  0.14604329  -0.00926236  0.17570042  1
  In  In24  1  0.85933149  0.13140996  -0.01363622  1
  In  In25  1  0.15794109  0.14727860  -0.02649740  1
  In  In26  1  -0.01329974  0.70152721  -0.01070733  1
  In  In27  1  0.33436433  0.51785063  0.16346293  1
  In  In28  1  0.66879803  0.67269501  0.00350901  1
  In  In29  1  0.16630248  0.16092821  0.69100665  1
  In  In30  1  0.15494470  0.48664786  0.02669986  1
  In  In31  1  0.65916115  -0.00914377  -0.02002566  1
  In  In32  1  0.49860826  0.32748150  0.50375839  1
  In  In33  1  0.00588094  0.50561626  0.82686856  1
  In  In34  1  -0.00109303  0.51115924  0.50535249  1
  In  In35  1  0.82611668  0.32171641  0.84284826  1
  In  In36  1  0.33644520  0.50852408  0.81889500  1
  In  In37  1  0.34511991  0.15913995  0.56704644  1
  In  In38  1  0.67393653  0.33617369  0.33262526  1
  In  In39  1  0.82695251  0.67909438  0.14664837  1
  In  In40  1  0.00606259  0.67128663  0.32875977  1
  In  In41  1  0.84062453  0.50628952  0.67762329  1
  In  In42  1  0.84342035  0.83583187  0.69366997  1
  In  In43  1  0.66949840  0.84187231  0.50920909  1
  In  In44  1  0.34820057  0.31393968  -0.01533678  1
  In  In45  1  0.15221618  0.64964923  0.17563677  1
  In  In46  1  0.82770314  0.85695282  0.32921443  1
  In  In47  1  0.66154318  0.16526815  0.18017600  1
  In  In48  1  0.85035430  -0.02712725  0.13951138  1
  In  In49  1  0.34779968  0.00697479  0.34777051  1
  In  In50  1  0.66140082  0.51009342  0.15006132  1
  In  In51  1  0.34788348  0.18093023  0.16116663  1
  In  In52  1  0.00720267  0.67949045  0.66035239  1
  In  In53  1  0.16505798  0.17459226  0.34138521  1
  In  In54  1  0.64559266  0.66571278  0.32509525  1
  In  In55  1  0.52263442  0.16632812  -0.00756757  1
  In  In56  1  0.29159928  0.53577857  0.47348093  1
  In  In57  1  0.83034975  0.66848793  0.53040323  1
  In  In58  1  0.00176354  0.31972766  0.65593840  1
  In  In59  1  0.33594340  0.79812399  0.14388017  1
  In  In60  1  0.50471856  0.49524238  0.00889159  1
  In  In61  1  0.16829464  0.35813853  0.48447630  1
  In  In62  1  0.33554355  0.81773557  0.49948890  1
  In  In63  1  -0.01517371  0.16378201  0.49081275  1
  In  In64  1  0.66844532  0.34030665  0.00080748  1
  In  In65  1  0.15447088  0.83353593  0.32286479  1
  In  In66  1  0.67193171  0.15846989  0.51531518  1
  In  In67  1  0.49756009  0.83778177  0.32812480  1
  In  In68  1  0.65340981  0.15346301  0.80728016  1
  In  In69  1  0.49371565  0.50087368  0.33082705  1
  In  In70  1  0.83984382  0.51059693  0.00128313  1
  In  In71  1  0.51936161  0.00553672  0.15638062  1
  Te  Te72  1  0.06917125  0.07248624  0.07279917  1
  Te  Te73  1  0.06179055  0.07433875  0.39235517  1
  Te  Te74  1  0.06873909  0.08562395  0.77223158  1
  Te  Te75  1  0.05306570  0.40067431  0.09552832  1
  Te  Te76  1  0.07973776  0.44065668  0.40097684  1
  Te  Te77  1  0.08810709  0.42267957  0.72903948  1
  Te  Te78  1  0.07232323  0.75829458  0.10506087  1
  Te  Te79  1  0.09979884  0.73759412  0.42705638  1
  Te  Te80  1  0.06229149  0.77076207  0.77094747  1
  Te  Te81  1  0.41009016  0.07926702  0.06664324  1
  Te  Te82  1  0.41472969  0.10635271  0.43815157  1
  Te  Te83  1  0.40749553  0.10962937  0.69068014  1
  Te  Te84  1  0.41042917  0.40551869  0.09001114  1
  Te  Te85  1  0.39950384  0.42331339  0.42500597  1
  Te  Te86  1  0.41648308  0.40202521  0.74931447  1
  Te  Te87  1  0.45158839  0.73069268  0.08653595  1
  Te  Te88  1  0.41533429  0.73202224  0.40266178  1
  Te  Te89  1  0.39752820  0.76870636  0.77664979  1
  Te  Te90  1  0.74025126  0.08072627  0.07880816  1
  Te  Te91  1  0.74613564  0.07417691  0.40948522  1
  Te  Te92  1  0.77614096  0.06382310  0.78756314  1
  Te  Te93  1  0.76520471  0.41396855  0.09226972  1
  Te  Te94  1  0.76070287  0.42391334  0.41258161  1
  Te  Te95  1  0.74481001  0.40546140  0.74671095  1
  Te  Te96  1  0.72751804  0.77425852  0.09461342  1
  Te  Te97  1  0.74506991  0.74695093  0.41616441  1
  Te  Te98  1  0.74674731  0.73458392  0.74020311  1
  Te  Te99  1  0.06015443  0.26317316  0.27822778  1
  Te  Te100  1  0.10340283  0.23924677  0.57035989  1
  Te  Te101  1  0.06608953  0.25303539  0.92887706  1
  Te  Te102  1  0.06525430  0.55641065  0.25362497  1
  Te  Te103  1  0.09433059  0.58632476  0.58815200  1
  Te  Te104  1  0.08658886  0.59085536  0.92543076  1
  Te  Te105  1  0.05006499  0.91040424  0.25258787  1
  Te  Te106  1  0.06660587  0.92650080  0.59257312  1
  Te  Te107  1  0.06139484  0.91649954  0.93601141  1
  Te  Te108  1  0.43712609  0.24386462  0.25863928  1
  Te  Te109  1  0.48847050  0.23063680  0.63554309  1
  Te  Te110  1  0.43462300  0.23655543  0.89572634  1
  Te  Te111  1  0.42097259  0.60038984  0.24975220  1
  Te  Te112  1  0.41805156  0.57943552  0.57803080  1
  Te  Te113  1  0.41041618  0.58512132  0.92682496  1
  Te  Te114  1  0.39922665  0.91543641  0.23741297  1
  Te  Te115  1  0.41802000  0.90691243  0.59007302  1
  Te  Te116  1  0.42391549  0.89146188  0.87264476  1
  Te  Te117  1  0.76618283  0.26084609  0.23581112  1
  Te  Te118  1  0.76302133  0.25217730  0.58349587  1
  Te  Te119  1  0.73732912  0.22734140  0.92495345  1
  Te  Te120  1  0.75515414  0.58062078  0.24774758  1
  Te  Te121  1  0.73855090  0.57365558  0.59382582  1
  Te  Te122  1  0.76760434  0.60609577  0.90800365  1
  Te  Te123  1  0.74373005  0.92815970  0.23156285  1
  Te  Te124  1  0.75171575  0.92684148  0.60241982  1
  Te  Te125  1  0.76938166  0.90478201  0.92007014  1
  Te  Te126  1  0.23526408  0.24848292  0.07960923  1
  Te  Te127  1  0.26471297  0.24992936  0.42642123  1
  Te  Te128  1  0.25935133  0.26047226  0.75664902  1
  Te  Te129  1  0.24912174  0.59979721  0.06782970  1
  Te  Te130  1  0.21832524  0.63436643  0.39453212  1
  Te  Te131  1  0.23374669  0.58800477  0.74087498  1
  Te  Te132  1  0.25030373  0.92395502  0.08573834  1
  Te  Te133  1  0.24549095  0.92154226  0.42521996  1
  Te  Te134  1  0.25776941  0.90740609  0.76723603  1
  Te  Te135  1  0.57749664  0.26281623  0.09551342  1
  Te  Te136  1  0.58729426  0.24062366  0.41490283  1
  Te  Te137  1  0.58675365  0.26889827  0.74723614  1
  Te  Te138  1  0.55538532  0.61074896  0.10059409  1
  Te  Te139  1  0.59705834  0.56073693  0.42623950  1
  Te  Te140  1  0.59154587  0.57100938  0.75033382  1
  Te  Te141  1  0.57005058  0.90537335  0.06314024  1
  Te  Te142  1  0.58378687  0.92703033  0.41661488  1
  Te  Te143  1  0.58613725  0.93304469  0.74763848  1
  Te  Te144  1  0.91015852  0.24220143  0.06779644  1
  Te  Te145  1  0.90619239  0.26745955  0.42347335  1
  Te  Te146  1  0.92732958  0.24254221  0.76136442  1
  Te  Te147  1  0.93570747  0.59258025  0.08492761  1
  Te  Te148  1  0.89887848  0.59296740  0.41509128  1
  Te  Te149  1  0.91565399  0.60910999  0.76193736  1
  Te  Te150  1  0.92860963  0.89635926  0.03876941  1
  Te  Te151  1  0.92864439  0.91220053  0.42114894  1
  Te  Te152  1  0.90038242  0.93900950  0.78266299  1
  Te  Te153  1  0.25085337  0.08757603  0.24930362  1
  Te  Te154  1  0.24665194  0.05290448  0.61815923  1
  Te  Te155  1  0.27129919  0.08300271  0.89693409  1
  Te  Te156  1  0.24153514  0.43757024  0.25689223  1
  Te  Te157  1  0.25463548  0.43213121  0.58499434  1
  Te  Te158  1  0.24854654  0.42249695  0.92126545  1
  Te  Te159  1  0.25349842  0.73471346  0.25738363  1
  Te  Te160  1  0.23674332  0.74415908  0.58794780  1
  Te  Te161  1  0.26817925  0.75091782  0.93195614  1
  Te  Te162  1  0.57308795  0.08399186  0.26676762  1
  Te  Te163  1  0.61219354  0.05883133  0.61004780  1
  Te  Te164  1  0.55928216  0.06124334  0.88719200  1
  Te  Te165  1  0.57999052  0.41615671  0.23877911  1
  Te  Te166  1  0.60627666  0.40424643  0.56906661  1
  Te  Te167  1  0.56857745  0.40378879  0.90491466  1
  Te  Te168  1  0.59562106  0.77283556  0.23766832  1
  Te  Te169  1  0.60517166  0.73543483  0.59960824  1
  Te  Te170  1  0.57986555  0.75957684  0.91489477  1
  Te  Te171  1  0.91093349  0.07548832  0.23920985  1
  Te  Te172  1  0.92949306  0.07641128  0.60122085  1
  Te  Te173  1  0.92753654  0.06500038  0.87244092  1
  Te  Te174  1  0.94751519  0.41272279  0.21292830  1
  Te  Te175  1  0.90847871  0.41087155  0.57882764  1
  Te  Te176  1  0.92363311  0.41467365  0.91745742  1
  Te  Te177  1  0.91251564  0.75839626  0.24537699  1
  Te  Te178  1  0.92594001  0.77633371  0.57528269  1
  Te  Te179  1  0.87620965  0.78747084  0.93791136  1
