# generated using pymatgen
data_In2Te3
_symmetry_space_group_name_H-M   'P 1'
_cell_length_a   18.74556450
_cell_length_b   18.74395796
_cell_length_c   18.74407765
_cell_angle_alpha   90.01082670
_cell_angle_beta   90.04172513
_cell_angle_gamma   89.93689959
_symmetry_Int_Tables_number   1
_chemical_formula_structural   In2Te3
_chemical_formula_sum   'In72 Te108'
_cell_volume   6586.02709631
_cell_formula_units_Z   36
loop_
 _symmetry_equiv_pos_site_id
 _symmetry_equiv_pos_as_xyz
  1  'x, y, z'
loop_
 _atom_site_type_symbol
 _atom_site_label
 _atom_site_symmetry_multiplicity
 _atom_site_fract_x
 _atom_site_fract_y
 _atom_site_fract_z
 _atom_site_occupancy
  In  In0  1  0.65858960  0.68581300  0.28002108  1
  In  In1  1  0.34815346  0.82058896  0.80968531  1
  In  In2  1  0.81949175  0.33983065  0.17158394  1
  In  In3  1  0.17101053  0.83022504  0.33430875  1
  In  In4  1  0.01960483  0.17903990  0.83158064  1
  In  In5  1  0.32152732  0.66088076  0.33943893  1
  In  In6  1  0.15588764  0.64778558  0.17191114  1
  In  In7  1  -0.02680378  0.64176949  0.03951510  1
  In  In8  1  -0.00440706  0.00132894  0.32905996  1
  In  In9  1  0.02349342  0.82209149  0.48214140  1
  In  In10  1  0.83259444  0.49240944  0.66773136  1
  In  In11  1  0.62944840  0.34166089  -0.00512541  1
  In  In12  1  0.35313811  0.52537584  0.85782945  1
  In  In13  1  0.33765256  0.17314379  0.85581223  1
  In  In14  1  0.49737140  -0.01102681  0.16883006  1
  In  In15  1  0.00092859  0.35442581  0.66423563  1
  In  In16  1  0.15345141  0.63550758  0.49907633  1
  In  In17  1  0.83254944  0.16953887  0.63202878  1
  In  In18  1  0.64716595  0.64598856  0.68548969  1
  In  In19  1  0.49208960  0.66451209  0.48896205  1
  In  In20  1  0.67248555  0.81607044  0.47843017  1
  In  In21  1  0.34063500  0.49720226  0.17586369  1
  In  In22  1  -0.00333768  0.34649775  0.33064037  1
  In  In23  1  0.32649344  0.00925701  -0.00150370  1
  In  In24  1  0.66821581  0.00740777  0.67887833  1
  In  In25  1  0.67544697  0.18111675  0.49628699  1
  In  In26  1  0.84727332  0.81911453  0.64068289  1
  In  In27  1  0.33710739  0.17371801  0.17108908  1
  In  In28  1  0.66181959  0.66507960  0.01090830  1
  In  In29  1  0.01016981  0.49233493  0.83322018  1
  In  In30  1  0.31977233  0.65211999  0.64765404  1
  In  In31  1  0.18215610  0.67051492  0.83089327  1
  In  In32  1  0.66061989  0.51203064  0.16898858  1
  In  In33  1  0.82925161  0.83806178  0.02054078  1
  In  In34  1  0.32266427  0.35094929  0.66051561  1
  In  In35  1  0.66342782  0.17374422  0.15103174  1
  In  In36  1  0.00967404  0.34765580  -0.00954814  1
  In  In37  1  0.82265240  0.64528949  0.83494699  1
  In  In38  1  0.35143366  0.33500472  0.00442127  1
  In  In39  1  0.48062337  0.20558285  0.67050754  1
  In  In40  1  0.85984475  0.63836395  0.46510081  1
  In  In41  1  0.67665159  0.35441409  0.32621086  1
  In  In42  1  0.00370656  0.15440095  0.18090309  1
  In  In43  1  0.83742616  0.34169068  0.50083480  1
  In  In44  1  0.49628849  0.50629762  0.67595360  1
  In  In45  1  0.84173935  -0.03128238  0.83823519  1
  In  In46  1  0.67583225  0.81525749  0.87153581  1
  In  In47  1  0.17149916  0.83812021  0.64923994  1
  In  In48  1  0.82371710  0.15515778  0.02073775  1
  In  In49  1  0.32605721  -0.01011730  0.65656601  1
  In  In50  1  0.52242531  -0.01022741  0.48743887  1
  In  In51  1  0.32247248  0.18432736  0.50609935  1
  In  In52  1  0.83318130  0.35645599  0.84126558  1
  In  In53  1  0.68798603  -0.02987981  0.31972084  1
  In  In54  1  0.17157939  0.15655001  0.67169334  1
  In  In55  1  0.48469798  0.48840859  0.34395573  1
  In  In56  1  0.18127331  0.34658558  0.17608651  1
  In  In57  1  0.00701918  0.16402425  0.47745415  1
  In  In58  1  -0.00417276  -0.01471086  0.01339433  1
  In  In59  1  0.17926942  0.34380300  0.48297748  1
  In  In60  1  0.85922655  0.00062391  0.49260688  1
  In  In61  1  0.66581666  0.49592181  0.49861272  1
  In  In62  1  0.17134786  0.49639319  0.00861053  1
  In  In63  1  0.00998597  0.82292654  0.83477819  1
  In  In64  1  0.16685908  -0.00151631  0.15849532  1
  In  In65  1  0.64627674  0.16667790  0.83644084  1
  In  In66  1  0.49065190  0.81231275  0.03390349  1
  In  In67  1  0.48989152  0.18885772  0.32081903  1
  In  In68  1  0.50619604  0.01796415  0.85451249  1
  In  In69  1  0.16594737  0.81879929  0.01931209  1
  In  In70  1  0.34412908  -0.02009257  0.32217820  1
  In  In71  1  0.47669239  0.83932933  0.67876880  1
  Te  Te72  1  0.08910123  0.09505941  0.06847159  1
  Te  Te73  1  0.09925371  0.07837527  0.40109338  1
  Te  Te74  1  0.08355503  0.07104102  0.75447123  1
  Te  Te75  1  0.07412009  0.43077805  0.10359643  1
  Te  Te76  1  0.07177341  0.43451016  0.42544341  1
  Te  Te77  1  0.10322758  0.40813475  0.75617232  1
  Te  Te78  1  0.05738172  0.75161094  0.10299265  1
  Te  Te79  1  0.07951353  0.71707428  0.38399200  1
  Te  Te80  1  0.08717405  0.73862263  0.73214915  1
  Te  Te81  1  0.42691470  0.09174737  0.07861269  1
  Te  Te82  1  0.42139278  0.08711393  0.42205075  1
  Te  Te83  1  0.42054283  0.07816217  0.73932869  1
  Te  Te84  1  0.43173676  0.43951221  0.07391997  1
  Te  Te85  1  0.41662064  0.39036408  0.42885617  1
  Te  Te86  1  0.41229951  0.41502335  0.76688207  1
  Te  Te87  1  0.40807815  0.69730903  0.07983742  1
  Te  Te88  1  0.40112410  0.75801000  0.42059097  1
  Te  Te89  1  0.42753668  0.70821945  0.74188779  1
  Te  Te90  1  0.75632517  0.06363331  0.11459313  1
  Te  Te91  1  0.75154017  0.07604036  0.41459912  1
  Te  Te92  1  0.77049441  0.09044481  0.75561453  1
  Te  Te93  1  0.73822756  0.42059390  0.07263181  1
  Te  Te94  1  0.77431078  0.44221626  0.40278570  1
  Te  Te95  1  0.73341273  0.43010372  0.75858519  1
  Te  Te96  1  0.74150639  0.75050494  0.10654739  1
  Te  Te97  1  0.76890558  0.73952275  0.39009794  1
  Te  Te98  1  0.75102818  0.75978022  0.74826623  1
  Te  Te99  1  0.09332429  0.25015185  0.25956002  1
  Te  Te100  1  0.08359723  0.25165550  0.58022288  1
  Te  Te101  1  0.10507788  0.26430907  0.91552415  1
  Te  Te102  1  0.05113253  0.58770472  0.25522480  1
  Te  Te103  1  0.05731683  0.60073032  0.60403484  1
  Te  Te104  1  0.08315607  0.60241992  0.92792876  1
  Te  Te105  1  0.07670965  0.90646920  0.23973722  1
  Te  Te106  1  0.07962952  0.92536976  0.57208697  1
  Te  Te107  1  0.09648858  0.91466562  0.92148736  1
  Te  Te108  1  0.39432490  0.28241920  0.25578590  1
  Te  Te109  1  0.42692279  0.29050206  0.55196206  1
  Te  Te110  1  0.44313864  0.25204280  0.91972749  1
  Te  Te111  1  0.43139705  0.59718501  0.25312608  1
  Te  Te112  1  0.40753240  0.56023517  0.56095670  1
  Te  Te113  1  0.43201049  0.61062671  0.95205056  1
  Te  Te114  1  0.41874763  0.87872086  0.23714376  1
  Te  Te115  1  0.41168004  0.90820028  0.55897981  1
  Te  Te116  1  0.42289810  0.90775710  0.92078424  1
  Te  Te117  1  0.75081416  0.23736730  0.26094744  1
  Te  Te118  1  0.73433311  0.28089067  0.59776471  1
  Te  Te119  1  0.75317528  0.25234935  0.92523913  1
  Te  Te120  1  0.76870178  0.58434436  0.24624305  1
  Te  Te121  1  0.75312362  0.60288404  0.58030175  1
  Te  Te122  1  0.74234377  0.56736231  0.93022109  1
  Te  Te123  1  0.76336854  0.86926660  0.23122343  1
  Te  Te124  1  0.74415250  0.92281886  0.57475911  1
  Te  Te125  1  0.73359961  0.93730356  0.93975313  1
  Te  Te126  1  0.24425567  0.24946657  0.07537446  1
  Te  Te127  1  0.26089993  0.25832122  0.39266936  1
  Te  Te128  1  0.25219522  0.25427816  0.75596606  1
  Te  Te129  1  0.26221014  0.59733000  0.07522958  1
  Te  Te130  1  0.23987207  0.55353911  0.40508448  1
  Te  Te131  1  0.24802771  0.56211481  0.74804610  1
  Te  Te132  1  0.26940352  0.90468804  0.09422618  1
  Te  Te133  1  0.25009967  0.92097894  0.42010382  1
  Te  Te134  1  0.24078079  0.91913798  0.76136444  1
  Te  Te135  1  0.55838563  0.26122700  0.09657553  1
  Te  Te136  1  0.58294201  0.27025494  0.41482329  1
  Te  Te137  1  0.58115843  0.27114819  0.75558806  1
  Te  Te138  1  0.55782881  0.58569979  0.08634824  1
  Te  Te139  1  0.59924598  0.59495253  0.40134054  1
  Te  Te140  1  0.58294947  0.56032131  0.79229516  1
  Te  Te141  1  0.59134689  0.90529781  0.08900620  1
  Te  Te142  1  0.57194123  0.88594448  0.38416984  1
  Te  Te143  1  0.58725726  0.91004041  0.76372552  1
  Te  Te144  1  0.92525598  0.25578210  0.08328857  1
  Te  Te145  1  0.90202393  0.24432019  0.40268555  1
  Te  Te146  1  0.90886352  0.25961076  0.74476371  1
  Te  Te147  1  0.88369762  0.57845836  0.13691838  1
  Te  Te148  1  0.96352804  0.56740793  0.38423776  1
  Te  Te149  1  0.93028546  0.58765674  0.74232203  1
  Te  Te150  1  0.91555732  0.91539716  0.11531198  1
  Te  Te151  1  0.90654605  0.88767981  0.40189612  1
  Te  Te152  1  0.93348431  0.90921319  0.73117515  1
  Te  Te153  1  0.24921517  0.08243433  0.25625636  1
  Te  Te154  1  0.23657074  0.07047724  0.56258812  1
  Te  Te155  1  0.23639197  0.07878990  0.90537370  1
  Te  Te156  1  0.23711594  0.44810908  0.27281611  1
  Te  Te157  1  0.23282921  0.43915850  0.58381624  1
  Te  Te158  1  0.25716189  0.41799858  0.91313321  1
  Te  Te159  1  0.25248477  0.74909818  0.23366294  1
  Te  Te160  1  0.24955281  0.74825077  0.55368446  1
  Te  Te161  1  0.26755605  0.75340129  0.92406758  1
  Te  Te162  1  0.58261681  0.07704988  0.26649289  1
  Te  Te163  1  0.57766473  0.09703723  0.59119403  1
  Te  Te164  1  0.59421216  0.08793092  0.94949115  1
  Te  Te165  1  0.56750314  0.41179483  0.23865556  1
  Te  Te166  1  0.58730279  0.41868120  0.59613736  1
  Te  Te167  1  0.58930181  0.43826131  0.89181735  1
  Te  Te168  1  0.55557200  0.78549161  0.24150149  1
  Te  Te169  1  0.58085288  0.75648727  0.58779236  1
  Te  Te170  1  0.55569507  0.73569537  0.91228407  1
  Te  Te171  1  0.89663694  0.07591545  0.24614252  1
  Te  Te172  1  0.94493881  0.07611424  0.59263991  1
  Te  Te173  1  0.91709453  0.08007264  0.91584964  1
  Te  Te174  1  0.92082575  0.43205204  0.23148768  1
  Te  Te175  1  0.93369353  0.44449808  0.56107363  1
  Te  Te176  1  0.90765185  0.44897132  0.93854464  1
  Te  Te177  1  0.88042451  0.78583031  0.27191963  1
  Te  Te178  1  0.94162824  0.72094632  0.57155065  1
  Te  Te179  1  0.90863109  0.74777722  0.92230415  1
