# generated using pymatgen
data_In2Te3
_symmetry_space_group_name_H-M   'P 1'
_cell_length_a   18.76026472
_cell_length_b   18.75942472
_cell_length_c   18.76463696
_cell_angle_alpha   90.05496672
_cell_angle_beta   90.00939199
_cell_angle_gamma   90.02955549
_symmetry_Int_Tables_number   1
_chemical_formula_structural   In2Te3
_chemical_formula_sum   'In72 Te108'
_cell_volume   6603.86796143
_cell_formula_units_Z   36
loop_
 _symmetry_equiv_pos_site_id
 _symmetry_equiv_pos_as_xyz
  1  'x, y, z'
loop_
 _atom_site_type_symbol
 _atom_site_label
 _atom_site_symmetry_multiplicity
 _atom_site_fract_x
 _atom_site_fract_y
 _atom_site_fract_z
 _atom_site_occupancy
  In  In0  1  0.16546416  0.31406914  0.48840025  1
  In  In1  1  -0.01314682  0.16222306  0.18310231  1
  In  In2  1  0.54020096  0.48524235  0.65930464  1
  In  In3  1  0.48399606  0.33192979  0.83083107  1
  In  In4  1  0.68013935  0.00964530  0.67314628  1
  In  In5  1  0.01462155  0.66446026  0.02441987  1
  In  In6  1  0.49250087  0.00346473  0.17279577  1
  In  In7  1  -0.01950503  0.47455813  0.50617713  1
  In  In8  1  0.69193480  0.33495882  0.66609934  1
  In  In9  1  0.16994651  0.82954358  0.01395422  1
  In  In10  1  0.68436570  0.15818633  0.84886392  1
  In  In11  1  0.50926201  0.84153374  0.33548840  1
  In  In12  1  0.14861409  0.16743215  -0.01291705  1
  In  In13  1  -0.02222348  0.01216183  0.03972578  1
  In  In14  1  0.85215233  0.17364332  0.35209037  1
  In  In15  1  0.31941573  0.14385133  0.18438872  1
  In  In16  1  0.50328653  0.49466777  0.30639356  1
  In  In17  1  0.49215536  0.84034683  0.00357018  1
  In  In18  1  0.31381108  -0.01295753  0.64862418  1
  In  In19  1  -0.02735771  0.02814493  0.61908023  1
  In  In20  1  0.65226259  0.16029011  0.16141942  1
  In  In21  1  0.16241505  0.00993802  0.84148984  1
  In  In22  1  0.16320130  0.15918229  0.64663929  1
  In  In23  1  0.84331244  0.34794300  0.16263906  1
  In  In24  1  0.00629537  0.66574959  0.32681782  1
  In  In25  1  0.33795033  0.34065371  -0.00359522  1
  In  In26  1  0.84314274  0.48943826  0.32745651  1
  In  In27  1  0.13600124  0.01838795  0.45991168  1
  In  In28  1  0.47536096  0.13621019  0.34240970  1
  In  In29  1  0.85349034  0.65916416  0.17176130  1
  In  In30  1  0.68398568  0.16444311  0.48507908  1
  In  In31  1  0.83672984  0.00651005  0.18848066  1
  In  In32  1  0.68274683  0.84130775  0.48828255  1
  In  In33  1  0.68373473  0.31714040  0.01042196  1
  In  In34  1  0.33212674  0.48505662  0.47347194  1
  In  In35  1  0.82940258  -0.00366263  0.82939293  1
  In  In36  1  0.83684140  0.65694436  0.82740009  1
  In  In37  1  0.68908803  0.68230762  0.33161453  1
  In  In38  1  0.48198978  0.85122056  0.66396273  1
  In  In39  1  0.51111845  0.48559267  0.03012188  1
  In  In40  1  -0.02252023  0.47498666  0.85476408  1
  In  In41  1  0.49684847  0.17430426  0.64968737  1
  In  In42  1  0.30526632  0.68057138  0.01341560  1
  In  In43  1  0.33052948  0.32219734  0.32446320  1
  In  In44  1  0.14989343  0.82670332  0.67962437  1
  In  In45  1  0.66116354  0.64836245  -0.01020971  1
  In  In46  1  0.50374044  0.00414827  0.85256547  1
  In  In47  1  0.15557349  0.51298273  0.32437084  1
  In  In48  1  -0.02412283  0.85255104  0.47925479  1
  In  In49  1  0.82054090  0.18589242  0.00837772  1
  In  In50  1  0.69609239  0.49109880  0.82832735  1
  In  In51  1  0.67162969  0.34025046  0.32565798  1
  In  In52  1  0.14864860  0.33425321  0.17405311  1
  In  In53  1  0.69439759  0.48185014  0.51259085  1
  In  In54  1  0.49677274  0.67436078  0.85260237  1
  In  In55  1  0.32333006  0.17038529  0.83096851  1
  In  In56  1  0.83088838  0.86315476  0.00679779  1
  In  In57  1  0.31738201  0.49942051  0.84266804  1
  In  In58  1  0.16413389  0.49982000  0.00980757  1
  In  In59  1  0.32699929  0.84092437  0.16771771  1
  In  In60  1  -0.01602983  0.19694929  0.81818532  1
  In  In61  1  0.69605537  0.66673196  0.66141387  1
  In  In62  1  0.83732402  0.82236489  0.65629770  1
  In  In63  1  0.14929523  0.48838033  0.68850042  1
  In  In64  1  0.33283444  0.30364716  0.65897668  1
  In  In65  1  0.30293591  0.86488786  0.49645238  1
  In  In66  1  0.35201852  0.65621244  0.67713283  1
  In  In67  1  0.67356876  0.83504698  0.18073006  1
  In  In68  1  0.13661538  0.69059390  0.49994658  1
  In  In69  1  0.32503666  0.68309343  0.30716739  1
  In  In70  1  0.51342395  0.66941149  0.48113521  1
  In  In71  1  0.01048856  0.82377438  0.83541799  1
  Te  Te72  1  0.09590584  0.08308006  0.10395228  1
  Te  Te73  1  0.05900246  0.13055080  0.39612877  1
  Te  Te74  1  0.07011700  0.08231920  0.74384308  1
  Te  Te75  1  0.06405304  0.42344187  0.09087293  1
  Te  Te76  1  0.07748746  0.41021680  0.40584565  1
  Te  Te77  1  0.05476730  0.39232518  0.75148848  1
  Te  Te78  1  0.08902052  0.75691019  0.11643332  1
  Te  Te79  1  0.08333351  0.78340000  0.39442919  1
  Te  Te80  1  0.05969662  0.72452648  0.73713533  1
  Te  Te81  1  0.40722593  0.08250520  0.08250642  1
  Te  Te82  1  0.38849023  0.08235803  0.44839601  1
  Te  Te83  1  0.40689775  0.08226844  0.73626502  1
  Te  Te84  1  0.40685868  0.41272157  0.10454862  1
  Te  Te85  1  0.43665178  0.39883997  0.40774114  1
  Te  Te86  1  0.40603186  0.42558658  0.73885843  1
  Te  Te87  1  0.42066363  0.74184053  0.09384571  1
  Te  Te88  1  0.40353635  0.75853265  0.42357042  1
  Te  Te89  1  0.40774278  0.76600936  0.76877308  1
  Te  Te90  1  0.74943013  0.07148890  0.08062546  1
  Te  Te91  1  0.76311834  0.06538156  0.40253444  1
  Te  Te92  1  0.77799903  0.10791260  0.73770953  1
  Te  Te93  1  0.74640170  0.42809393  0.08478379  1
  Te  Te94  1  0.77755721  0.38862510  0.42401956  1
  Te  Te95  1  0.78744553  0.44075816  0.72016532  1
  Te  Te96  1  0.75226379  0.74656258  0.08178529  1
  Te  Te97  1  0.77253375  0.73479805  0.44113570  1
  Te  Te98  1  0.74738361  0.76579869  0.76676670  1
  Te  Te99  1  0.08862168  0.23311124  0.26954053  1
  Te  Te100  1  0.06464883  0.24771942  0.57769858  1
  Te  Te101  1  0.06875871  0.26899856  0.91656900  1
  Te  Te102  1  0.07678957  0.58580300  0.22315053  1
  Te  Te103  1  0.08123568  0.57058286  0.57630229  1
  Te  Te104  1  0.07994479  0.58380564  0.91408586  1
  Te  Te105  1  0.10484412  0.96730061  0.26542557  1
  Te  Te106  1  0.09030879  0.92759841  0.57949055  1
  Te  Te107  1  0.06479833  0.93238033  0.93228438  1
  Te  Te108  1  0.42735066  0.23916599  0.23967639  1
  Te  Te109  1  0.41213529  0.24530667  0.54998652  1
  Te  Te110  1  0.42459828  0.23269062  0.92806303  1
  Te  Te111  1  0.40503385  0.58083967  0.23736463  1
  Te  Te112  1  0.42696431  0.57313098  0.57166800  1
  Te  Te113  1  0.41416500  0.57440159  0.93372295  1
  Te  Te114  1  0.40285099  0.92819062  0.27055945  1
  Te  Te115  1  0.42741799  0.93844963  0.55086196  1
  Te  Te116  1  0.40212332  0.92016771  0.91817400  1
  Te  Te117  1  0.76538215  0.23465084  0.24115455  1
  Te  Te118  1  0.77057988  0.23778848  0.58318474  1
  Te  Te119  1  0.77830668  0.28190522  0.88579984  1
  Te  Te120  1  0.74675997  0.57235120  0.24307629  1
  Te  Te121  1  0.78331407  0.57777655  0.58370336  1
  Te  Te122  1  0.77691399  0.56470820  0.93466754  1
  Te  Te123  1  0.76354787  0.90716738  0.27554249  1
  Te  Te124  1  0.76991902  0.93292815  0.57580518  1
  Te  Te125  1  0.73323814  0.93490725  0.92230104  1
  Te  Te126  1  0.24395880  0.24971975  0.08577691  1
  Te  Te127  1  0.24728548  0.22714940  0.40097145  1
  Te  Te128  1  0.22365936  0.25452693  0.75292275  1
  Te  Te129  1  0.24577108  0.58106885  0.10381175  1
  Te  Te130  1  0.24269239  0.59992093  0.42325224  1
  Te  Te131  1  0.23618871  0.59676000  0.75814074  1
  Te  Te132  1  0.25690866  0.93259515  0.07511428  1
  Te  Te133  1  0.23015248  0.92777069  0.37900985  1
  Te  Te134  1  0.24804759  0.90970732  0.76387822  1
  Te  Te135  1  0.57087535  0.25290394  0.08043594  1
  Te  Te136  1  0.58416702  0.23744877  0.39620535  1
  Te  Te137  1  0.58747275  0.24877252  0.75214456  1
  Te  Te138  1  0.58497024  0.59122755  0.10172077  1
  Te  Te139  1  0.60374664  0.56641239  0.41563266  1
  Te  Te140  1  0.59067391  0.59318261  0.75895375  1
  Te  Te141  1  0.59135906  0.92285271  0.08752972  1
  Te  Te142  1  0.58978853  0.93185542  0.41941038  1
  Te  Te143  1  0.58631977  0.91949361  0.75346036  1
  Te  Te144  1  0.93737309  0.25805183  0.07378943  1
  Te  Te145  1  0.95220443  0.23989360  0.44336003  1
  Te  Te146  1  0.92460781  0.28306323  0.71278641  1
  Te  Te147  1  0.92909186  0.56136764  0.08904850  1
  Te  Te148  1  0.91596534  0.58547414  0.42141523  1
  Te  Te149  1  0.93099306  0.57328077  0.75129440  1
  Te  Te150  1  0.92668505  0.89526651  0.12210853  1
  Te  Te151  1  0.89049406  0.94172215  0.39727862  1
  Te  Te152  1  0.92873838  0.91827490  0.74225636  1
  Te  Te153  1  0.23345711  0.05666284  0.26942691  1
  Te  Te154  1  0.25916678  0.09139014  0.54757028  1
  Te  Te155  1  0.26168516  0.07711481  0.93548470  1
  Te  Te156  1  0.25206110  0.42499030  0.24371212  1
  Te  Te157  1  0.24683950  0.41731858  0.58307889  1
  Te  Te158  1  0.22737394  0.39817955  0.90858204  1
  Te  Te159  1  0.21993459  0.75850162  0.23444241  1
  Te  Te160  1  0.25841283  0.74783242  0.58972815  1
  Te  Te161  1  0.23131906  0.74873734  0.90618771  1
  Te  Te162  1  0.59428323  0.06807125  0.26709329  1
  Te  Te163  1  0.58843386  0.07968296  0.57346226  1
  Te  Te164  1  0.58518331  0.09489975  0.93682171  1
  Te  Te165  1  0.59084230  0.40803527  0.22285627  1
  Te  Te166  1  0.58611697  0.38041909  0.56204909  1
  Te  Te167  1  0.58590750  0.41769229  0.90632100  1
  Te  Te168  1  0.57374529  0.73633730  0.24679684  1
  Te  Te169  1  0.58009638  0.75121414  0.59315432  1
  Te  Te170  1  0.59828421  0.76732370  0.91738047  1
  Te  Te171  1  0.96882649  0.02949558  0.29303758  1
  Te  Te172  1  0.89778463  0.11966393  0.53022388  1
  Te  Te173  1  0.91596053  0.09207273  0.92101907  1
  Te  Te174  1  0.94124743  0.40149312  0.26001008  1
  Te  Te175  1  0.90226708  0.39821444  0.60735858  1
  Te  Te176  1  0.89296874  0.37979595  0.92995236  1
  Te  Te177  1  0.91229165  0.76143735  0.26090438  1
  Te  Te178  1  0.93933512  0.74890565  0.57839523  1
  Te  Te179  1  0.91223137  0.75383940  0.93164391  1
