# generated using pymatgen
data_In2Te3
_symmetry_space_group_name_H-M   'P 1'
_cell_length_a   18.75294911
_cell_length_b   18.75504050
_cell_length_c   18.75691883
_cell_angle_alpha   90.07502890
_cell_angle_beta   90.07528480
_cell_angle_gamma   89.98415002
_symmetry_Int_Tables_number   1
_chemical_formula_structural   In2Te3
_chemical_formula_sum   'In72 Te108'
_cell_volume   6597.02784135
_cell_formula_units_Z   36
loop_
 _symmetry_equiv_pos_site_id
 _symmetry_equiv_pos_as_xyz
  1  'x, y, z'
loop_
 _atom_site_type_symbol
 _atom_site_label
 _atom_site_symmetry_multiplicity
 _atom_site_fract_x
 _atom_site_fract_y
 _atom_site_fract_z
 _atom_site_occupancy
  In  In0  1  0.50696339  0.84790599  0.32497154  1
  In  In1  1  0.35137454  0.84389087  0.49317579  1
  In  In2  1  0.00229623  0.66698553  0.66496203  1
  In  In3  1  0.15103185  0.64697542  0.20183907  1
  In  In4  1  0.17353306  0.47692271  0.64832256  1
  In  In5  1  0.67200226  0.17979441  0.49026292  1
  In  In6  1  0.83093906  0.14529906  0.01526795  1
  In  In7  1  0.34281205  0.01042399  0.66202750  1
  In  In8  1  0.67297063  0.49092369  0.47987889  1
  In  In9  1  0.32496621  0.66519598  0.34080922  1
  In  In10  1  0.83166593  0.65930195  0.16544520  1
  In  In11  1  0.18355274  0.82141886  0.69169304  1
  In  In12  1  -0.01843634  0.85144851  0.48803853  1
  In  In13  1  0.83217604  0.32684946  0.17202729  1
  In  In14  1  -0.01939912  0.50095521  0.83633905  1
  In  In15  1  -0.00226932  0.17069485  0.85884591  1
  In  In16  1  0.50901111  0.32441579  0.82305399  1
  In  In17  1  -0.02235060  0.82503534  0.17741488  1
  In  In18  1  0.50483113  0.51242084  0.64021144  1
  In  In19  1  0.15952908  0.48147875  0.01734626  1
  In  In20  1  0.83785584  0.67462298  0.83311669  1
  In  In21  1  0.83587315  0.00043456  0.48461665  1
  In  In22  1  0.51310212  0.16448607  0.01105926  1
  In  In23  1  0.32856313  0.49412470  0.17632688  1
  In  In24  1  0.67640175  0.33566685  0.32208391  1
  In  In25  1  0.68083235  0.65381010  0.64519513  1
  In  In26  1  0.34412555  0.01121218  0.31604234  1
  In  In27  1  0.82362936  0.18454970  0.65009105  1
  In  In28  1  0.52895378  0.86695134  0.02767875  1
  In  In29  1  0.66767843  0.01396926  0.29710420  1
  In  In30  1  -0.00749031  0.67190559  0.01354807  1
  In  In31  1  0.16957004  0.31134396  0.16028416  1
  In  In32  1  0.33689747  0.14628136  0.83844433  1
  In  In33  1  0.17353501  0.17944347  0.33582716  1
  In  In34  1  0.33005671  0.68539275  -0.01859885  1
  In  In35  1  0.16440196  0.01345813  0.51574020  1
  In  In36  1  0.36097718  0.64752792  0.65483633  1
  In  In37  1  0.32647961  0.81227434  0.83928032  1
  In  In38  1  0.00780674  0.19924062  0.47804434  1
  In  In39  1  0.66944974  0.50255287  0.17110565  1
  In  In40  1  0.51295486  0.31180532  0.17518260  1
  In  In41  1  -0.03620605  0.02918345  0.29352131  1
  In  In42  1  0.15729569  -0.00072599  0.89056892  1
  In  In43  1  -0.03655252  0.35886755  0.62289766  1
  In  In44  1  0.33965076  0.00517883  0.01984899  1
  In  In45  1  0.84059849  0.49185884  0.00393250  1
  In  In46  1  0.66932747  0.80155321  0.49333669  1
  In  In47  1  0.49143320  0.01628657  0.48062102  1
  In  In48  1  0.15881269  0.17379345  0.64941961  1
  In  In49  1  0.14761804  0.31256141  0.85390885  1
  In  In50  1  0.34205717  0.33475504  0.33494685  1
  In  In51  1  0.81520919  0.85148654  0.02815806  1
  In  In52  1  0.50076532  0.48561630  0.01869726  1
  In  In53  1  0.50299669  0.67890842  0.17059904  1
  In  In54  1  0.50352768  0.33160701  0.48681059  1
  In  In55  1  0.14066274  0.01751251  0.13949533  1
  In  In56  1  0.30108997  0.48756687  0.83657162  1
  In  In57  1  0.65423888  -0.00547542  0.67052230  1
  In  In58  1  0.68050144  0.49415431  0.83524192  1
  In  In59  1  0.84566517  0.81681954  0.67208782  1
  In  In60  1  0.82090807  -0.00061654  0.86684710  1
  In  In61  1  0.51052268  0.00602957  0.83199282  1
  In  In62  1  0.17798524  0.69040943  0.84306355  1
  In  In63  1  0.33620451  0.34048672  0.64658787  1
  In  In64  1  0.83660938  0.33711296  0.83232150  1
  In  In65  1  -0.00325371  0.34626593  0.33119420  1
  In  In66  1  0.64955817  0.16641612  0.83919790  1
  In  In67  1  0.66969194  0.65784943  0.33835762  1
  In  In68  1  0.50363025  0.68878378  0.84878374  1
  In  In69  1  -0.00729132  0.00914359  0.68846026  1
  In  In70  1  0.16243254  0.81367112  0.32638678  1
  In  In71  1  0.15455010  0.65076621  0.49777729  1
  Te  Te72  1  0.05574283  0.11764301  0.07025009  1
  Te  Te73  1  0.06601904  0.07148966  0.41220358  1
  Te  Te74  1  0.10331080  0.08502188  0.76336344  1
  Te  Te75  1  0.07029277  0.41107985  0.10843489  1
  Te  Te76  1  0.07687392  0.44329610  0.41435973  1
  Te  Te77  1  0.08262903  0.41513542  0.75861683  1
  Te  Te78  1  0.08918837  0.74743802  0.10456801  1
  Te  Te79  1  0.06202615  0.74083809  0.41435239  1
  Te  Te80  1  0.06289005  0.76238804  0.76714059  1
  Te  Te81  1  0.42832205  0.08750654  0.11020060  1
  Te  Te82  1  0.41579022  0.11148354  0.39722215  1
  Te  Te83  1  0.44088258  0.10346952  0.73622822  1
  Te  Te84  1  0.40591684  0.39357102  0.09108641  1
  Te  Te85  1  0.42549559  0.43361669  0.41171737  1
  Te  Te86  1  0.41711418  0.43075179  0.75059779  1
  Te  Te87  1  0.42040937  0.76543942  0.07503401  1
  Te  Te88  1  0.43482333  0.74504849  0.41469849  1
  Te  Te89  1  0.42628278  0.75964946  0.73589372  1
  Te  Te90  1  0.76778517  0.04721022  0.11284039  1
  Te  Te91  1  0.75655130  0.09398723  0.39551958  1
  Te  Te92  1  0.76248352  0.08427129  0.74760922  1
  Te  Te93  1  0.73801983  0.40542615  0.07571937  1
  Te  Te94  1  0.77666016  0.39979938  0.41478511  1
  Te  Te95  1  0.75720482  0.41525503  0.73653619  1
  Te  Te96  1  0.73596936  0.74200606  0.08934181  1
  Te  Te97  1  0.77284202  0.74364637  0.40667599  1
  Te  Te98  1  0.73337273  0.75187966  0.75227951  1
  Te  Te99  1  0.06419872  0.23407308  0.24751966  1
  Te  Te100  1  0.09097812  0.28647584  0.57082562  1
  Te  Te101  1  0.08055239  0.23725074  0.96906068  1
  Te  Te102  1  0.06823321  0.56117058  0.28988044  1
  Te  Te103  1  0.06226911  0.55616112  0.57857128  1
  Te  Te104  1  0.08517410  0.58389087  0.91476779  1
  Te  Te105  1  0.08127576  0.92575125  0.25895316  1
  Te  Te106  1  0.08128749  0.90722213  0.59475684  1
  Te  Te107  1  0.08593513  0.87804580  0.92623618  1
  Te  Te108  1  0.40441507  0.23601551  0.24261472  1
  Te  Te109  1  0.42989902  0.24634695  0.58455121  1
  Te  Te110  1  0.42002089  0.24686244  0.91989990  1
  Te  Te111  1  0.42506088  0.58087744  0.25713969  1
  Te  Te112  1  0.40332062  0.56065198  0.54137317  1
  Te  Te113  1  0.41250005  0.57302425  0.91617406  1
  Te  Te114  1  0.40867920  0.90850212  0.23254694  1
  Te  Te115  1  0.44153330  0.91814388  0.59041557  1
  Te  Te116  1  0.41640189  0.91704966  0.91846856  1
  Te  Te117  1  0.73922772  0.22800198  0.23701014  1
  Te  Te118  1  0.76261254  0.27936384  0.55584207  1
  Te  Te119  1  0.75627941  0.24164582  0.91967196  1
  Te  Te120  1  0.76815492  0.56240045  0.26928997  1
  Te  Te121  1  0.77363570  0.57103591  0.56356932  1
  Te  Te122  1  0.75210703  0.59169226  0.92934483  1
  Te  Te123  1  0.75147869  0.92344113  0.21050521  1
  Te  Te124  1  0.75994498  0.91382788  0.58556113  1
  Te  Te125  1  0.72133139  0.90813304  0.92477123  1
  Te  Te126  1  0.24464063  0.22196815  0.07157164  1
  Te  Te127  1  0.24338315  0.26904964  0.42912491  1
  Te  Te128  1  0.25227887  0.25265594  0.75337105  1
  Te  Te129  1  0.25271516  0.59020260  0.07861777  1
  Te  Te130  1  0.23330919  0.56750314  0.40363179  1
  Te  Te131  1  0.23809660  0.59722942  0.73269436  1
  Te  Te132  1  0.24694877  0.92135479  0.09966126  1
  Te  Te133  1  0.24335325  0.92150855  0.41705028  1
  Te  Te134  1  0.25679090  0.93602158  0.76538264  1
  Te  Te135  1  0.61242374  0.24531474  0.08714895  1
  Te  Te136  1  0.57633562  0.23840516  0.38756245  1
  Te  Te137  1  0.60625634  0.25871944  0.73347044  1
  Te  Te138  1  0.59038982  0.59424876  0.07654453  1
  Te  Te139  1  0.57434708  0.58676802  0.42563670  1
  Te  Te140  1  0.57936586  0.58501503  0.76061391  1
  Te  Te141  1  0.60700941  0.94240456  0.13555216  1
  Te  Te142  1  0.60411389  0.92731180  0.42012701  1
  Te  Te143  1  0.58408412  0.90032789  0.75822950  1
  Te  Te144  1  0.92358721  0.24003404  0.08756757  1
  Te  Te145  1  0.89613227  0.26123754  0.40614131  1
  Te  Te146  1  0.93683395  0.24538807  0.73819293  1
  Te  Te147  1  0.93588363  0.56255280  0.10080752  1
  Te  Te148  1  0.95621988  0.52925987  0.39521440  1
  Te  Te149  1  0.89767914  0.57568957  0.73358105  1
  Te  Te150  1  0.92105775  0.93419821  0.09548423  1
  Te  Te151  1  0.89803457  0.91505749  0.37474702  1
  Te  Te152  1  0.91136109  0.91314493  0.77135643  1
  Te  Te153  1  0.24285375  0.09135788  0.23340478  1
  Te  Te154  1  0.27245528  0.10852816  0.56753738  1
  Te  Te155  1  0.23971115  0.11587043  0.95518177  1
  Te  Te156  1  0.23165486  0.41361173  0.25852588  1
  Te  Te157  1  0.26221268  0.41946459  0.54467442  1
  Te  Te158  1  0.25344491  0.38731159  0.93977568  1
  Te  Te159  1  0.26454221  0.75232875  0.23154237  1
  Te  Te160  1  0.25351857  0.75257566  0.57177550  1
  Te  Te161  1  0.21886529  0.79542321  0.95172100  1
  Te  Te162  1  0.55688321  0.06841185  0.21267406  1
  Te  Te163  1  0.58260962  0.09398690  0.57968894  1
  Te  Te164  1  0.60407620  0.06162823  0.94066477  1
  Te  Te165  1  0.57144612  0.42750010  0.25924464  1
  Te  Te166  1  0.59725227  0.40680854  0.58531545  1
  Te  Te167  1  0.59168129  0.40555803  0.92443803  1
  Te  Te168  1  0.60661320  0.76246770  0.24513039  1
  Te  Te169  1  0.57360604  0.73261998  0.58029894  1
  Te  Te170  1  0.59294081  0.76428568  0.93948416  1
  Te  Te171  1  0.86896602  0.11364599  0.21362302  1
  Te  Te172  1  0.92816614  0.08850022  0.57425506  1
  Te  Te173  1  0.94155766  0.05521723  0.94182523  1
  Te  Te174  1  0.90477114  0.43394977  0.24805808  1
  Te  Te175  1  0.88765818  0.45252684  0.53745606  1
  Te  Te176  1  0.93609248  0.39377799  0.93455370  1
  Te  Te177  1  0.90937739  0.73330879  0.27004438  1
  Te  Te178  1  0.91050343  0.73447517  0.56185945  1
  Te  Te179  1  0.91007444  0.76632996  0.93046700  1
