# generated using pymatgen
data_In2Te3
_symmetry_space_group_name_H-M   'P 1'
_cell_length_a   18.92749502
_cell_length_b   18.94941850
_cell_length_c   18.94034195
_cell_angle_alpha   89.93180495
_cell_angle_beta   89.96090987
_cell_angle_gamma   89.91036256
_symmetry_Int_Tables_number   1
_chemical_formula_structural   In2Te3
_chemical_formula_sum   'In72 Te108'
_cell_volume   6793.22350785
_cell_formula_units_Z   36
loop_
 _symmetry_equiv_pos_site_id
 _symmetry_equiv_pos_as_xyz
  1  'x, y, z'
loop_
 _atom_site_type_symbol
 _atom_site_label
 _atom_site_symmetry_multiplicity
 _atom_site_fract_x
 _atom_site_fract_y
 _atom_site_fract_z
 _atom_site_occupancy
  In  In0  1  0.64384525  0.32418593  0.34052627  1
  In  In1  1  0.85017249  -0.02362058  0.19701487  1
  In  In2  1  -0.00819253  0.81792367  0.15415664  1
  In  In3  1  0.48467121  0.66335534  0.18620514  1
  In  In4  1  0.84261344  0.83380583  0.33277037  1
  In  In5  1  0.82686551  0.32865668  0.52102594  1
  In  In6  1  0.01730288  0.16160336  0.18974345  1
  In  In7  1  0.12912870  0.52020704  -0.00751945  1
  In  In8  1  0.31558228  0.34848460  0.65617472  1
  In  In9  1  0.31992748  0.48354984  0.17150167  1
  In  In10  1  0.31728259  0.48526859  0.50533502  1
  In  In11  1  0.31340563  0.66568349  -0.00388097  1
  In  In12  1  0.66586608  0.00599848  0.67004915  1
  In  In13  1  0.51638235  0.66876891  0.49869830  1
  In  In14  1  0.48497501  0.18849470  0.01461127  1
  In  In15  1  0.00447356  0.65779970  0.31957320  1
  In  In16  1  0.65951453  0.16281353  0.18792544  1
  In  In17  1  0.15388440  0.51272006  0.64355730  1
  In  In18  1  0.68936025  0.00567626  0.00647812  1
  In  In19  1  0.16688507  0.34478366  0.83697758  1
  In  In20  1  0.00530275  0.19496285  0.81858681  1
  In  In21  1  0.48879358  0.48151838  0.64718049  1
  In  In22  1  0.84729446  0.50466007  0.33473575  1
  In  In23  1  0.01559271  0.32663697  0.38243068  1
  In  In24  1  0.82135333  0.17757773  -0.01210342  1
  In  In25  1  0.32366404  0.16366882  0.19407210  1
  In  In26  1  0.84680607  0.50163945  -0.00698976  1
  In  In27  1  0.19025205  0.86882694  0.33765350  1
  In  In28  1  0.68664309  0.67293912  0.67753247  1
  In  In29  1  0.67782215  0.66087690  0.33296564  1
  In  In30  1  0.14836770  0.18167433  0.65660383  1
  In  In31  1  -0.00556967  0.33591795  0.65657654  1
  In  In32  1  0.15049905  0.83830885  0.66814044  1
  In  In33  1  0.19581572  -0.00058586  0.18927878  1
  In  In34  1  0.48903455  0.67601933  0.82113362  1
  In  In35  1  0.68657962  0.13871443  0.47557594  1
  In  In36  1  0.34226417  0.33156378  0.34200964  1
  In  In37  1  0.50037010  0.17413330  0.65933456  1
  In  In38  1  0.32937622  0.14969800  0.50645170  1
  In  In39  1  0.52027467  0.01471203  0.80984551  1
  In  In40  1  0.01898730  0.00609598  0.35689750  1
  In  In41  1  0.16627618  0.66973080  0.49944104  1
  In  In42  1  0.02547625  0.00096903  0.01440938  1
  In  In43  1  0.51594013  0.52001981  -0.02015732  1
  In  In44  1  0.84969361  0.52021450  0.69043848  1
  In  In45  1  0.30439137  0.00445439  -0.00892967  1
  In  In46  1  0.00162333  0.83421937  0.50848995  1
  In  In47  1  -0.01325601  0.34827583  -0.00983328  1
  In  In48  1  0.36644807  -0.00905546  0.65207594  1
  In  In49  1  0.17832903  0.02102764  0.83223170  1
  In  In50  1  0.85217017  -0.00918322  0.83368634  1
  In  In51  1  -0.00740275  0.50291902  0.16797876  1
  In  In52  1  0.32552778  0.32834941  0.00161800  1
  In  In53  1  0.66136734  0.50181988  0.51985379  1
  In  In54  1  0.49705609  0.32600545  0.16956689  1
  In  In55  1  0.52391630  0.85394566  -0.00859629  1
  In  In56  1  0.83138858  0.82203346  0.64963486  1
  In  In57  1  0.82356730  0.80517425  -0.02302483  1
  In  In58  1  0.14594651  0.81614733  -0.00029544  1
  In  In59  1  0.51511046  0.01439956  0.17759004  1
  In  In60  1  0.36067927  0.80350250  0.18518136  1
  In  In61  1  0.67024009  0.48756094  0.82885640  1
  In  In62  1  0.66165977  0.19157601  0.83970440  1
  In  In63  1  0.68038109  0.84269030  0.49017801  1
  In  In64  1  0.85562477  0.14017854  0.63778043  1
  In  In65  1  -0.02089912  0.80565051  0.81906941  1
  In  In66  1  0.82620183  0.34547641  0.15586609  1
  In  In67  1  0.33363770  0.81597302  0.84486570  1
  In  In68  1  0.30906646  0.67412341  0.67860030  1
  In  In69  1  0.30149374  0.66017727  0.33615346  1
  In  In70  1  0.67507536  0.65516001  0.00610765  1
  In  In71  1  0.48996205  0.85193244  0.34980563  1
  Te  Te72  1  0.11418774  0.09103702  0.09411062  1
  Te  Te73  1  0.05746349  0.11190325  0.45363882  1
  Te  Te74  1  0.07090615  0.08151685  0.74378162  1
  Te  Te75  1  0.08419070  0.41008075  0.08703314  1
  Te  Te76  1  0.10174146  0.42759390  0.44445111  1
  Te  Te77  1  0.07638212  0.42473556  0.74720042  1
  Te  Te78  1  0.08229148  0.72155194  0.09139461  1
  Te  Te79  1  0.09268272  0.76879688  0.39739537  1
  Te  Te80  1  0.07656209  0.73017692  0.73782733  1
  Te  Te81  1  0.40854840  0.07414313  0.08292972  1
  Te  Te82  1  0.40223001  0.04470732  0.42747562  1
  Te  Te83  1  0.40786433  0.09634488  0.75525079  1
  Te  Te84  1  0.42561242  0.43000795  0.07512129  1
  Te  Te85  1  0.42265655  0.41945021  0.42867095  1
  Te  Te86  1  0.39478373  0.43116949  0.74747483  1
  Te  Te87  1  0.42958070  0.74641327  0.05883352  1
  Te  Te88  1  0.40978437  0.73681781  0.41060684  1
  Te  Te89  1  0.41872629  0.77126278  0.72652696  1
  Te  Te90  1  0.77102023  0.08619373  0.10612483  1
  Te  Te91  1  0.81201755  0.10984097  0.40425707  1
  Te  Te92  1  0.75393335  0.08634287  0.76702230  1
  Te  Te93  1  0.74408129  0.42164643  0.06356475  1
  Te  Te94  1  0.74876750  0.41508587  0.42115408  1
  Te  Te95  1  0.73607750  0.42838712  0.71137904  1
  Te  Te96  1  0.73917606  0.75931765  0.08631908  1
  Te  Te97  1  0.76945326  0.73817813  0.42601631  1
  Te  Te98  1  0.77227702  0.75312418  0.76535294  1
  Te  Te99  1  0.09136858  0.24838289  0.28162806  1
  Te  Te100  1  0.05118008  0.23781236  0.55641212  1
  Te  Te101  1  0.08975280  0.25142778  0.92922725  1
  Te  Te102  1  0.09679385  0.57093131  0.24661150  1
  Te  Te103  1  0.05892655  0.60783865  0.57991552  1
  Te  Te104  1  0.01821410  0.57326480  0.90465181  1
  Te  Te105  1  0.06522062  0.92552594  0.23387761  1
  Te  Te106  1  0.09602802  0.93133728  0.56757275  1
  Te  Te107  1  0.08378735  0.91600358  0.90155486  1
  Te  Te108  1  0.43711783  0.22809570  0.26703464  1
  Te  Te109  1  0.40809932  0.26123979  0.57365191  1
  Te  Te110  1  0.41589698  0.25915438  0.90829445  1
  Te  Te111  1  0.40241754  0.56742986  0.26902190  1
  Te  Te112  1  0.40206623  0.59893191  0.57373129  1
  Te  Te113  1  0.40062176  0.58408219  0.90205208  1
  Te  Te114  1  0.40462129  0.93198585  0.24663169  1
  Te  Te115  1  0.41870364  0.92553560  0.52993460  1
  Te  Te116  1  0.41607085  0.92763589  0.91215952  1
  Te  Te117  1  0.75437857  0.25716747  0.25726782  1
  Te  Te118  1  0.73932809  0.22473406  0.59016346  1
  Te  Te119  1  0.75550983  0.28122772  0.91000633  1
  Te  Te120  1  0.75473236  0.57271267  0.24465189  1
  Te  Te121  1  0.76540098  0.59363929  0.57707258  1
  Te  Te122  1  0.75596654  0.58980962  0.89731364  1
  Te  Te123  1  0.73763590  0.91142636  0.26304374  1
  Te  Te124  1  0.76336417  0.93710264  0.57618251  1
  Te  Te125  1  0.74191443  0.91106429  0.90110568  1
  Te  Te126  1  0.25141220  0.25809352  0.10769302  1
  Te  Te127  1  0.25263641  0.23040325  0.40741200  1
  Te  Te128  1  0.24631780  0.24959060  0.74962197  1
  Te  Te129  1  0.23463834  0.58296888  0.09223585  1
  Te  Te130  1  0.21806390  0.55527597  0.40987811  1
  Te  Te131  1  0.24632138  0.56131634  0.74703712  1
  Te  Te132  1  0.24670842  0.89705511  0.08064390  1
  Te  Te133  1  0.29236222  0.93281730  0.42182767  1
  Te  Te134  1  0.26016410  0.91633524  0.75450009  1
  Te  Te135  1  0.60281298  0.25432321  0.08135522  1
  Te  Te136  1  0.57768895  0.22223102  0.42284366  1
  Te  Te137  1  0.57634274  0.26521682  0.74647038  1
  Te  Te138  1  0.58167061  0.58137097  0.10278420  1
  Te  Te139  1  0.58207774  0.56826967  0.40758830  1
  Te  Te140  1  0.57366824  0.58525072  0.73332963  1
  Te  Te141  1  0.60542926  0.91872232  0.10034128  1
  Te  Te142  1  0.60523569  0.93178733  0.39875047  1
  Te  Te143  1  0.58839112  0.90495300  0.74411370  1
  Te  Te144  1  0.92587578  0.23937164  0.08826686  1
  Te  Te145  1  0.89440950  0.24170124  0.41888880  1
  Te  Te146  1  0.89301505  0.25085673  0.73630706  1
  Te  Te147  1  0.90767987  0.59285905  0.09032952  1
  Te  Te148  1  0.94273506  0.57335183  0.42223591  1
  Te  Te149  1  0.95401835  0.59519639  0.76574226  1
  Te  Te150  1  0.90888030  0.91637180  0.06374263  1
  Te  Te151  1  0.91044989  0.92774950  0.42927327  1
  Te  Te152  1  0.92890223  0.91668120  0.72893405  1
  Te  Te153  1  0.23163493  0.09951151  0.29215342  1
  Te  Te154  1  0.24540645  0.07210205  0.60704988  1
  Te  Te155  1  0.24423436  0.11663339  0.92043590  1
  Te  Te156  1  0.24182408  0.38564093  0.24716703  1
  Te  Te157  1  0.20196811  0.38763293  0.55526463  1
  Te  Te158  1  0.24217550  0.43573300  0.93047001  1
  Te  Te159  1  0.23066885  0.75658169  0.24090973  1
  Te  Te160  1  0.25210915  0.76892071  0.57383369  1
  Te  Te161  1  0.21925842  0.73048809  0.89569601  1
  Te  Te162  1  0.58976899  0.07850864  0.28727622  1
  Te  Te163  1  0.57695751  0.07774570  0.57174906  1
  Te  Te164  1  0.58206578  0.08411653  0.93281544  1
  Te  Te165  1  0.58335367  0.41656114  0.24406412  1
  Te  Te166  1  0.58382263  0.39281765  0.58020917  1
  Te  Te167  1  0.57379578  0.40845991  0.90564866  1
  Te  Te168  1  0.57542313  0.75349822  0.26543451  1
  Te  Te169  1  0.59624217  0.76158967  0.58646841  1
  Te  Te170  1  0.58957344  0.74446129  0.91102510  1
  Te  Te171  1  0.91008515  0.09248413  0.27367000  1
  Te  Te172  1  0.96566670  0.06922102  0.57184963  1
  Te  Te173  1  0.93372156  0.08920363  0.92212118  1
  Te  Te174  1  0.92980440  0.39189387  0.25987049  1
  Te  Te175  1  0.91764254  0.43612857  0.57504025  1
  Te  Te176  1  0.90787725  0.41606140  0.88789695  1
  Te  Te177  1  0.89884555  0.73189230  0.23688862  1
  Te  Te178  1  0.93018859  0.73130461  0.58545487  1
  Te  Te179  1  0.94303117  0.72484020  0.93852150  1
