# generated using pymatgen
data_In2Te3
_symmetry_space_group_name_H-M   'P 1'
_cell_length_a   18.78809952
_cell_length_b   18.77800517
_cell_length_c   18.78856490
_cell_angle_alpha   89.96735609
_cell_angle_beta   89.98444425
_cell_angle_gamma   90.07065844
_symmetry_Int_Tables_number   1
_chemical_formula_structural   In2Te3
_chemical_formula_sum   'In72 Te108'
_cell_volume   6628.65626047
_cell_formula_units_Z   36
loop_
 _symmetry_equiv_pos_site_id
 _symmetry_equiv_pos_as_xyz
  1  'x, y, z'
loop_
 _atom_site_type_symbol
 _atom_site_label
 _atom_site_symmetry_multiplicity
 _atom_site_fract_x
 _atom_site_fract_y
 _atom_site_fract_z
 _atom_site_occupancy
  In  In0  1  0.68031167  0.01521214  -0.00437356  1
  In  In1  1  0.82402217  0.65742216  0.50434656  1
  In  In2  1  0.34281410  0.67188748  0.00478775  1
  In  In3  1  0.67282412  0.17505834  0.51801496  1
  In  In4  1  0.18048715  0.00238818  0.50004160  1
  In  In5  1  0.49357813  0.33539395  0.82392043  1
  In  In6  1  0.32451441  0.34846966  -0.01712512  1
  In  In7  1  0.66458894  0.50303615  0.50654215  1
  In  In8  1  0.15429882  0.32064698  0.48427261  1
  In  In9  1  0.66785356  -0.00764947  0.32446205  1
  In  In10  1  0.83444635  0.51204158  0.68445262  1
  In  In11  1  0.68014632  0.82432231  0.15502477  1
  In  In12  1  -0.02601320  0.32498505  0.69307906  1
  In  In13  1  -0.00413492  0.18111512  0.16021922  1
  In  In14  1  0.82583904  0.49032752  0.32951367  1
  In  In15  1  0.35059090  -0.00707935  -0.00990717  1
  In  In16  1  0.67015597  0.33863657  0.32015367  1
  In  In17  1  0.49716677  0.51728633  -0.00139322  1
  In  In18  1  0.68142237  0.82722886  0.51431281  1
  In  In19  1  0.33893714  0.01105002  0.64112383  1
  In  In20  1  0.51153130  -0.00067929  0.17341055  1
  In  In21  1  0.66831620  0.33049404  0.67375136  1
  In  In22  1  0.81234909  0.02433969  0.83034841  1
  In  In23  1  0.82993758  0.83071474  0.00062167  1
  In  In24  1  -0.01946323  0.83832917  0.16599797  1
  In  In25  1  0.33186754  0.15289317  0.16902338  1
  In  In26  1  0.13806223  0.46673635  -0.00692033  1
  In  In27  1  0.49747945  0.65457753  0.16218125  1
  In  In28  1  0.83132248  0.18012289  0.32489639  1
  In  In29  1  0.32564594  0.33158869  0.67530719  1
  In  In30  1  -0.00504720  0.65894818  0.66810459  1
  In  In31  1  0.02582994  0.66509496  0.32273016  1
  In  In32  1  0.15301115  0.00207816  0.83643666  1
  In  In33  1  0.69784553  0.31516688  -0.00083799  1
  In  In34  1  0.31712695  0.17035604  0.49763004  1
  In  In35  1  0.85572549  0.16004507  -0.00101930  1
  In  In36  1  0.01991565  -0.00204172  0.32126997  1
  In  In37  1  -0.01448271  0.14990024  0.51411869  1
  In  In38  1  0.32468883  0.17953582  0.82825638  1
  In  In39  1  0.15981787  0.48499323  0.67290938  1
  In  In40  1  0.16408862  0.64763843  0.83820646  1
  In  In41  1  0.35624843  0.82893730  0.81654217  1
  In  In42  1  0.32028772  0.51466095  0.17696116  1
  In  In43  1  0.48500139  0.15591149  0.32903387  1
  In  In44  1  0.85598760  0.49416771  -0.02470545  1
  In  In45  1  0.32536441  0.53004997  0.47001149  1
  In  In46  1  0.51550461  0.65934728  0.51433253  1
  In  In47  1  0.49584875  0.01211758  0.52391907  1
  In  In48  1  0.15712152  0.67126246  0.17278155  1
  In  In49  1  0.17595316  0.83177936  0.63914632  1
  In  In50  1  0.83828281  -0.00640713  0.53077854  1
  In  In51  1  0.33594484  0.80667790  0.16946467  1
  In  In52  1  0.32875151  0.83312962  0.49706123  1
  In  In53  1  0.49660648  0.36485840  0.48830535  1
  In  In54  1  -0.00862683  0.82606119  0.85183664  1
  In  In55  1  0.01673907  0.49282777  0.51559807  1
  In  In56  1  0.00037375  0.33799241  0.32329956  1
  In  In57  1  0.15288962  0.00735814  0.17553441  1
  In  In58  1  0.15858484  0.34785868  0.16915657  1
  In  In59  1  0.51527022  0.68169499  0.84898561  1
  In  In60  1  0.50154713  0.17382506  0.68637004  1
  In  In61  1  0.01370245  0.80748550  0.48349284  1
  In  In62  1  0.66141487  0.50863340  0.15844064  1
  In  In63  1  0.52854992  0.32742090  0.15867061  1
  In  In64  1  0.12973375  0.20242175  -0.02071066  1
  In  In65  1  0.82904487  0.82492534  0.33211627  1
  In  In66  1  0.49680002  0.83781659  0.31722050  1
  In  In67  1  0.66319989  0.50623046  0.83570856  1
  In  In68  1  0.80340555  0.79768631  0.71357048  1
  In  In69  1  0.15078046  0.81902065  0.02257004  1
  In  In70  1  0.00097647  0.02022923  0.69007622  1
  In  In71  1  0.55628357  -0.02570575  0.81473195  1
  Te  Te72  1  0.07751362  0.08754791  0.07043407  1
  Te  Te73  1  0.08911474  0.09493098  0.41706246  1
  Te  Te74  1  0.08963194  0.11351547  0.76304379  1
  Te  Te75  1  0.04297794  0.39376541  0.08450931  1
  Te  Te76  1  0.09452861  0.43395022  0.39971249  1
  Te  Te77  1  0.04338703  0.44341433  0.75977599  1
  Te  Te78  1  0.04323489  0.72697350  0.07481339  1
  Te  Te79  1  0.12435809  0.73156637  0.41759184  1
  Te  Te80  1  0.09056694  0.76200669  0.74915336  1
  Te  Te81  1  0.43412981  0.08848128  0.07491144  1
  Te  Te82  1  0.39978768  0.06579771  0.41886473  1
  Te  Te83  1  0.41622424  0.07027143  0.76042538  1
  Te  Te84  1  0.41508661  0.42114828  0.08661266  1
  Te  Te85  1  0.39525694  0.41912465  0.39734991  1
  Te  Te86  1  0.41063971  0.42808703  0.74676975  1
  Te  Te87  1  0.44309289  0.76583996  0.06925169  1
  Te  Te88  1  0.42849023  0.74818346  0.41748813  1
  Te  Te89  1  0.41753149  0.71940583  0.74202838  1
  Te  Te90  1  0.75891124  0.09530193  0.09154224  1
  Te  Te91  1  0.75476884  0.07451727  0.42362035  1
  Te  Te92  1  0.75390198  0.09525090  0.71601641  1
  Te  Te93  1  0.76371142  0.42635363  0.08063909  1
  Te  Te94  1  0.75272190  0.40283551  0.43151784  1
  Te  Te95  1  0.75971354  0.40873331  0.76901860  1
  Te  Te96  1  0.77005207  0.72734198  0.09068209  1
  Te  Te97  1  0.73307245  0.73194461  0.40636529  1
  Te  Te98  1  0.71452404  0.70721929  0.80203634  1
  Te  Te99  1  0.09656254  0.23785363  0.25824333  1
  Te  Te100  1  0.06761013  0.25429931  0.59175702  1
  Te  Te101  1  0.02561785  0.28136384  0.90646658  1
  Te  Te102  1  0.07842687  0.56122893  0.23193578  1
  Te  Te103  1  0.10327003  0.59946911  0.58099637  1
  Te  Te104  1  0.06333906  0.58569410  0.93137945  1
  Te  Te105  1  0.09825523  0.88517671  0.25209427  1
  Te  Te106  1  0.06501483  0.92681420  0.57774992  1
  Te  Te107  1  0.07290036  0.92094194  0.93901994  1
  Te  Te108  1  0.41670106  0.25984888  0.24186131  1
  Te  Te109  1  0.42751862  0.24771487  0.57574678  1
  Te  Te110  1  0.42222640  0.24537835  0.92575886  1
  Te  Te111  1  0.41001216  0.59526001  0.26520712  1
  Te  Te112  1  0.41648333  0.56930295  0.57946162  1
  Te  Te113  1  0.39939277  0.57763286  0.90208247  1
  Te  Te114  1  0.39774329  0.92735581  0.24581636  1
  Te  Te115  1  0.42962388  0.89746466  0.59882630  1
  Te  Te116  1  0.44665631  0.90789120  0.90974087  1
  Te  Te117  1  0.75487162  0.26087274  0.22868322  1
  Te  Te118  1  0.76789738  0.26502024  0.58568069  1
  Te  Te119  1  0.77772147  0.24126664  0.89595866  1
  Te  Te120  1  0.75128422  0.58713024  0.24714859  1
  Te  Te121  1  0.73181832  0.59653774  0.60835916  1
  Te  Te122  1  0.75302882  0.59211088  0.92004397  1
  Te  Te123  1  0.76767101  0.92462355  0.23352329  1
  Te  Te124  1  0.74495509  0.91454725  0.62311546  1
  Te  Te125  1  0.73980540  0.90752732  0.89789452  1
  Te  Te126  1  0.24596411  0.25211009  0.07742068  1
  Te  Te127  1  0.25433947  0.25544185  0.39620051  1
  Te  Te128  1  0.22498660  0.27039438  0.76713569  1
  Te  Te129  1  0.23467315  0.58063662  0.06484997  1
  Te  Te130  1  0.23360252  0.61541900  0.38955906  1
  Te  Te131  1  0.25029848  0.58327290  0.73883486  1
  Te  Te132  1  0.25590659  0.91532695  0.08452401  1
  Te  Te133  1  0.24193076  0.90936187  0.40456546  1
  Te  Te134  1  0.24929716  0.92458371  0.74569495  1
  Te  Te135  1  0.59747318  0.23273653  0.07091433  1
  Te  Te136  1  0.57746840  0.24448784  0.41793127  1
  Te  Te137  1  0.60401206  0.23857820  0.77832799  1
  Te  Te138  1  0.60072790  0.60952287  0.05785992  1
  Te  Te139  1  0.58686400  0.58106635  0.40983589  1
  Te  Te140  1  0.57366808  0.58487601  0.74950707  1
  Te  Te141  1  0.58937986  0.91588182  0.07426152  1
  Te  Te142  1  0.58316743  0.91851189  0.42844939  1
  Te  Te143  1  0.59077477  0.86761229  0.71967644  1
  Te  Te144  1  0.92435882  0.27655629  0.07007264  1
  Te  Te145  1  0.91802751  0.25563505  0.42462374  1
  Te  Te146  1  0.91419127  0.23782360  0.80192473  1
  Te  Te147  1  0.95504201  0.58173639  0.04625657  1
  Te  Te148  1  0.92945193  0.58422871  0.42370226  1
  Te  Te149  1  0.90878275  0.60561075  0.77493885  1
  Te  Te150  1  0.91305925  0.93043642  0.07411464  1
  Te  Te151  1  0.91910693  0.91773585  0.41535830  1
  Te  Te152  1  0.91239032  0.90864405  0.74901439  1
  Te  Te153  1  0.24511052  0.08086518  0.26389917  1
  Te  Te154  1  0.22740203  0.10709405  0.60415060  1
  Te  Te155  1  0.24587084  0.08866779  0.93008723  1
  Te  Te156  1  0.24830828  0.41868703  0.26341793  1
  Te  Te157  1  0.24779562  0.41100350  0.56868306  1
  Te  Te158  1  0.22887969  0.41132690  0.88909579  1
  Te  Te159  1  0.27203224  0.71115036  0.26772870  1
  Te  Te160  1  0.27233345  0.73242062  0.59170522  1
  Te  Te161  1  0.24679711  0.76408309  0.91686913  1
  Te  Te162  1  0.60088165  0.10250606  0.24366722  1
  Te  Te163  1  0.60045134  0.07860786  0.61370291  1
  Te  Te164  1  0.59163120  0.08756399  0.89990659  1
  Te  Te165  1  0.57009971  0.43572385  0.25851895  1
  Te  Te166  1  0.57255797  0.42671652  0.60453465  1
  Te  Te167  1  0.58306111  0.40878857  0.93294161  1
  Te  Te168  1  0.59113080  0.74202496  0.24937230  1
  Te  Te169  1  0.59323553  0.75218935  0.61035889  1
  Te  Te170  1  0.61896795  0.78074426  0.89120757  1
  Te  Te171  1  0.91627991  0.08002744  0.24456353  1
  Te  Te172  1  0.88410006  0.10891295  0.62761378  1
  Te  Te173  1  0.93101916  0.07297466  0.90291161  1
  Te  Te174  1  0.91743591  0.42289414  0.23557402  1
  Te  Te175  1  0.90669674  0.41763165  0.58667986  1
  Te  Te176  1  0.94170570  0.41316160  0.88005208  1
  Te  Te177  1  0.90867808  0.72813096  0.24581522  1
  Te  Te178  1  0.90514323  0.76177436  0.58447762  1
  Te  Te179  1  0.89645184  0.72937577  0.90959501  1
