# generated using pymatgen
data_In2Te3
_symmetry_space_group_name_H-M   'P 1'
_cell_length_a   18.86309191
_cell_length_b   18.85933929
_cell_length_c   18.87046340
_cell_angle_alpha   89.92897505
_cell_angle_beta   89.89606139
_cell_angle_gamma   90.08418340
_symmetry_Int_Tables_number   1
_chemical_formula_structural   In2Te3
_chemical_formula_sum   'In72 Te108'
_cell_volume   6713.05802546
_cell_formula_units_Z   36
loop_
 _symmetry_equiv_pos_site_id
 _symmetry_equiv_pos_as_xyz
  1  'x, y, z'
loop_
 _atom_site_type_symbol
 _atom_site_label
 _atom_site_symmetry_multiplicity
 _atom_site_fract_x
 _atom_site_fract_y
 _atom_site_fract_z
 _atom_site_occupancy
  In  In0  1  0.18158223  0.66017949  0.15186949  1
  In  In1  1  0.15909203  0.01037518  0.82213874  1
  In  In2  1  0.67226461  0.83139310  0.82911462  1
  In  In3  1  0.48888055  0.18341263  0.66432924  1
  In  In4  1  0.66038956  0.17634229  0.15994800  1
  In  In5  1  0.01795172  0.33041950  0.00059750  1
  In  In6  1  0.52638254  0.82628252  0.00301427  1
  In  In7  1  0.47652745  0.31109963  0.51878266  1
  In  In8  1  0.48687439  0.81983987  0.32730389  1
  In  In9  1  0.83554454  0.48948272  0.31404626  1
  In  In10  1  0.14939655  0.01470751  0.20030876  1
  In  In11  1  0.31803406  0.02842261  0.64678969  1
  In  In12  1  0.34120163  0.48854320  0.82738804  1
  In  In13  1  0.84808542  0.84949277  0.36262002  1
  In  In14  1  0.83947655  0.34073422  0.83399884  1
  In  In15  1  -0.01288750  0.49224563  0.16323438  1
  In  In16  1  0.50683360  -0.02603484  0.83125379  1
  In  In17  1  0.66602859  -0.01337684  0.34894567  1
  In  In18  1  0.17364755  0.48248734  0.34201627  1
  In  In19  1  0.03722085  0.48243321  0.50172373  1
  In  In20  1  0.63136873  0.62685489  0.69264094  1
  In  In21  1  0.32409138  0.32395659  0.32854756  1
  In  In22  1  0.49248944  0.49365481  -0.01573638  1
  In  In23  1  0.18993785  0.33626514  0.82548340  1
  In  In24  1  0.33914229  0.20614645  0.82215991  1
  In  In25  1  0.65495123  0.65125417  -0.01270618  1
  In  In26  1  0.68299576  0.16509880  0.81768341  1
  In  In27  1  0.66653217  0.16303559  0.51478933  1
  In  In28  1  0.02307659  0.67588535  0.72921167  1
  In  In29  1  0.16352164  0.82670072  0.01299737  1
  In  In30  1  0.34552319  0.01931856  -0.00142207  1
  In  In31  1  0.66412839  0.51369359  0.17171099  1
  In  In32  1  0.17494670  0.48295078  0.66753917  1
  In  In33  1  0.67301954  0.34708721  0.31747449  1
  In  In34  1  0.83756830  0.67841331  0.84512929  1
  In  In35  1  0.48471159  0.00897812  0.49607390  1
  In  In36  1  -0.01319173  0.67509379  0.32503194  1
  In  In37  1  0.33590571  0.85161912  0.18312254  1
  In  In38  1  0.15893503  0.86058949  0.34386144  1
  In  In39  1  0.35946881  0.65302758  0.66306199  1
  In  In40  1  0.87408752  0.27124245  0.48121251  1
  In  In41  1  0.18312054  0.32810817  0.51065802  1
  In  In42  1  0.01324778  0.01093286  0.66042461  1
  In  In43  1  0.81884198  0.14924221  -0.01476503  1
  In  In44  1  0.82739247  0.34440801  0.15815374  1
  In  In45  1  -0.00300048  0.85641438  0.51733297  1
  In  In46  1  0.82149184  0.66611935  0.48282802  1
  In  In47  1  -0.01886830  0.00405819  -0.00092801  1
  In  In48  1  0.64612888  0.33653377  0.65316735  1
  In  In49  1  0.31820504  0.80408845  0.82595591  1
  In  In50  1  0.64829320  0.47912865  0.47362368  1
  In  In51  1  0.66374336  0.00926297  0.02219479  1
  In  In52  1  0.15603752  0.34636237  0.16241063  1
  In  In53  1  0.83917453  0.84954518  0.66314111  1
  In  In54  1  0.82470832  0.49186598  0.65260994  1
  In  In55  1  0.00412530  0.31850924  0.68481105  1
  In  In56  1  0.33480002  0.68770242  0.01041700  1
  In  In57  1  0.85558768  0.83322584  0.00231753  1
  In  In58  1  0.48585830  0.18776298  -0.00163944  1
  In  In59  1  0.84346195  -0.00377101  0.81620464  1
  In  In60  1  0.49083091  0.16124774  0.34188696  1
  In  In61  1  0.85733653  0.00989485  0.48381289  1
  In  In62  1  0.66604001  0.80018060  0.52877859  1
  In  In63  1  -0.00245205  0.16497742  0.18558430  1
  In  In64  1  0.66548927  0.82929403  0.17443907  1
  In  In65  1  0.34709943  0.65826711  0.32795476  1
  In  In66  1  0.31339368  0.17189511  0.16792623  1
  In  In67  1  0.16272092  0.20098759  0.00110787  1
  In  In68  1  0.32112903  0.84079343  0.49730573  1
  In  In69  1  0.49785818  0.51135002  0.32347482  1
  In  In70  1  0.83073467  0.51938165  0.00364628  1
  In  In71  1  0.18141051  0.66548527  0.50520591  1
  Te  Te72  1  0.09106157  0.08807928  0.07318641  1
  Te  Te73  1  0.07011358  0.11288510  0.48555307  1
  Te  Te74  1  0.09683511  0.10900169  0.73477017  1
  Te  Te75  1  0.09315717  0.44667223  0.06395479  1
  Te  Te76  1  0.08143704  0.37834867  0.40196606  1
  Te  Te77  1  0.07381826  0.42585248  0.76512582  1
  Te  Te78  1  0.07341253  0.73614355  0.08765264  1
  Te  Te79  1  0.07779608  0.74784051  0.42685574  1
  Te  Te80  1  0.13081382  0.76100588  0.78425856  1
  Te  Te81  1  0.42862241  0.09006729  0.10139217  1
  Te  Te82  1  0.39636252  0.11625586  0.44644687  1
  Te  Te83  1  0.41696689  0.08121972  0.76456583  1
  Te  Te84  1  0.41704250  0.38161854  0.04475134  1
  Te  Te85  1  0.42652071  0.40302434  0.40796118  1
  Te  Te86  1  0.43338183  0.42483262  0.72952133  1
  Te  Te87  1  0.42859535  0.76072002  0.10356993  1
  Te  Te88  1  0.41673398  0.73772778  0.43702474  1
  Te  Te89  1  0.43086696  0.75124403  0.74825594  1
  Te  Te90  1  0.76840369  0.07709130  0.10827525  1
  Te  Te91  1  0.75171634  0.09652418  0.40913600  1
  Te  Te92  1  0.74571073  0.06527202  0.73117416  1
  Te  Te93  1  0.73313904  0.42197131  0.07057211  1
  Te  Te94  1  0.77050465  0.40191023  0.42493456  1
  Te  Te95  1  0.73502890  0.41633363  0.74887006  1
  Te  Te96  1  0.74065882  0.75230810  0.06351784  1
  Te  Te97  1  0.73147713  0.75360403  0.39957364  1
  Te  Te98  1  0.74930407  0.73802757  0.73221754  1
  Te  Te99  1  0.11661050  0.22972851  0.24434778  1
  Te  Te100  1  0.07683180  0.24180732  0.57694380  1
  Te  Te101  1  0.07672212  0.24890589  0.88705928  1
  Te  Te102  1  0.08650880  0.57700923  0.25857514  1
  Te  Te103  1  0.07932279  0.59444094  0.59725330  1
  Te  Te104  1  0.04815492  0.63444162  0.87355202  1
  Te  Te105  1  0.07640643  0.89019550  0.22550012  1
  Te  Te106  1  0.10603125  0.90944855  0.60059064  1
  Te  Te107  1  0.08436001  0.92191664  0.92155221  1
  Te  Te108  1  0.42524671  0.25097552  0.23891321  1
  Te  Te109  1  0.36904789  0.23855741  0.59407898  1
  Te  Te110  1  0.41840684  0.29561300  0.91406077  1
  Te  Te111  1  0.40366818  0.57017801  0.22539420  1
  Te  Te112  1  0.39998622  0.52730719  0.59559795  1
  Te  Te113  1  0.40994579  0.60086670  0.91126820  1
  Te  Te114  1  0.40617506  0.93395181  0.28171740  1
  Te  Te115  1  0.41127696  0.91861591  0.59465964  1
  Te  Te116  1  0.40686844  0.89838956  0.92839156  1
  Te  Te117  1  0.76375321  0.24394051  0.25358008  1
  Te  Te118  1  0.75843466  0.25589841  0.58964888  1
  Te  Te119  1  0.73968530  0.26077881  0.92231148  1
  Te  Te120  1  0.76442342  0.59473985  0.24207412  1
  Te  Te121  1  0.72952136  0.58026134  0.57115244  1
  Te  Te122  1  0.73866517  0.56965561  0.89148429  1
  Te  Te123  1  0.76052648  0.91909574  0.25254563  1
  Te  Te124  1  0.75352076  0.92105084  0.56185900  1
  Te  Te125  1  0.75005948  0.92514860  0.92569607  1
  Te  Te126  1  0.26955162  0.28387107  0.06922122  1
  Te  Te127  1  0.24678110  0.23365714  0.41609547  1
  Te  Te128  1  0.25050609  0.25725342  0.71412572  1
  Te  Te129  1  0.26819865  0.57106953  0.07329330  1
  Te  Te130  1  0.26664841  0.56935958  0.42467610  1
  Te  Te131  1  0.25034441  0.58516560  0.74796837  1
  Te  Te132  1  0.25133883  0.93551786  0.08602973  1
  Te  Te133  1  0.24088501  0.94745551  0.42957540  1
  Te  Te134  1  0.26809161  0.92926415  0.75466469  1
  Te  Te135  1  0.58917372  0.26630086  0.06844419  1
  Te  Te136  1  0.59077232  0.26004177  0.42098802  1
  Te  Te137  1  0.57452403  0.25810012  0.76432796  1
  Te  Te138  1  0.56199915  0.58871989  0.08780247  1
  Te  Te139  1  0.58726685  0.59342548  0.40626137  1
  Te  Te140  1  0.53938425  0.53060643  0.77096978  1
  Te  Te141  1  0.56796003  0.92913487  0.10759725  1
  Te  Te142  1  0.57617445  0.90003628  0.43681906  1
  Te  Te143  1  0.59637586  0.91257946  0.73284612  1
  Te  Te144  1  0.91443453  0.24419315  0.07373211  1
  Te  Te145  1  0.96262465  0.18064745  0.39666425  1
  Te  Te146  1  0.89698649  0.23794770  0.74643154  1
  Te  Te147  1  0.91380148  0.59902703  0.09485278  1
  Te  Te148  1  0.92491515  0.56616180  0.42485317  1
  Te  Te149  1  0.90363668  0.57883536  0.74856643  1
  Te  Te150  1  0.91720071  0.92137418  0.10187850  1
  Te  Te151  1  0.96669175  0.94448865  0.39623328  1
  Te  Te152  1  0.94326771  0.89995484  0.75842346  1
  Te  Te153  1  0.25743868  0.08222404  0.27200789  1
  Te  Te154  1  0.19750553  0.05547574  0.56082064  1
  Te  Te155  1  0.25571541  0.10773459  0.91394396  1
  Te  Te156  1  0.26445901  0.42798164  0.23360899  1
  Te  Te157  1  0.27522153  0.43657185  0.56574782  1
  Te  Te158  1  0.22811574  0.44611955  0.91439876  1
  Te  Te159  1  0.24257084  0.75145467  0.26735637  1
  Te  Te160  1  0.25262311  0.75378811  0.60268486  1
  Te  Te161  1  0.21771281  0.72177429  0.90886401  1
  Te  Te162  1  0.58801822  0.08063097  0.25757223  1
  Te  Te163  1  0.57590417  0.07690821  0.59926673  1
  Te  Te164  1  0.58057988  0.08174110  0.91731993  1
  Te  Te165  1  0.56888002  0.40957921  0.23045872  1
  Te  Te166  1  0.55224777  0.43357655  0.58308755  1
  Te  Te167  1  0.59130896  0.44618388  0.88558499  1
  Te  Te168  1  0.57357359  0.73673007  0.24287257  1
  Te  Te169  1  0.56322143  0.71626484  0.59539952  1
  Te  Te170  1  0.57172052  0.73456618  0.89041308  1
  Te  Te171  1  0.92732454  0.08026322  0.28166850  1
  Te  Te172  1  0.90945695  0.09266974  0.59371118  1
  Te  Te173  1  0.92714437  0.09835753  0.89197194  1
  Te  Te174  1  0.93443972  0.38614356  0.25883862  1
  Te  Te175  1  0.92689906  0.40633690  0.57862045  1
  Te  Te176  1  0.92468074  0.42699294  0.92583404  1
  Te  Te177  1  0.89268130  0.75985788  0.25336123  1
  Te  Te178  1  0.91131451  0.74311247  0.57889667  1
  Te  Te179  1  0.95038576  0.74500033  0.92345541  1
