# generated using pymatgen
data_In2Te3
_symmetry_space_group_name_H-M   'P 1'
_cell_length_a   19.03960872
_cell_length_b   19.00306017
_cell_length_c   19.03305276
_cell_angle_alpha   90.18259883
_cell_angle_beta   90.04592990
_cell_angle_gamma   90.09487713
_symmetry_Int_Tables_number   1
_chemical_formula_structural   In2Te3
_chemical_formula_sum   'In72 Te108'
_cell_volume   6886.31796443
_cell_formula_units_Z   36
loop_
 _symmetry_equiv_pos_site_id
 _symmetry_equiv_pos_as_xyz
  1  'x, y, z'
loop_
 _atom_site_type_symbol
 _atom_site_label
 _atom_site_symmetry_multiplicity
 _atom_site_fract_x
 _atom_site_fract_y
 _atom_site_fract_z
 _atom_site_occupancy
  In  In0  1  0.83114124  0.65704492  0.14203839  1
  In  In1  1  0.08261267  0.18389600  0.35276432  1
  In  In2  1  0.47990771  0.00397942  0.84566842  1
  In  In3  1  0.84771439  -0.00774996  0.50787740  1
  In  In4  1  0.34813130  0.34743080  0.35789813  1
  In  In5  1  0.67972751  0.50025704  0.49473723  1
  In  In6  1  0.85148088  0.15992672  0.31285639  1
  In  In7  1  0.33568780  0.68857275  0.65806830  1
  In  In8  1  0.67593827  0.00210102  -0.01065162  1
  In  In9  1  0.14827491  0.15657260  0.67520773  1
  In  In10  1  0.14751758  0.02346207  0.15429112  1
  In  In11  1  0.82959003  0.48159928  0.33725053  1
  In  In12  1  0.16781839  0.49798744  0.00297031  1
  In  In13  1  0.14680516  0.82892720  0.66924441  1
  In  In14  1  -0.00654369  0.34628181  0.66294435  1
  In  In15  1  0.33229255  0.29742976  0.68442012  1
  In  In16  1  0.68805664  0.34506167  0.65920974  1
  In  In17  1  0.05713332  0.28588588  0.83765992  1
  In  In18  1  0.50087487  0.15587964  0.35010510  1
  In  In19  1  0.68874995  0.01971145  0.64456616  1
  In  In20  1  0.51628884  0.00320194  0.50458623  1
  In  In21  1  0.37762366  0.51793997  0.19808546  1
  In  In22  1  0.51685268  0.66065044  0.49767199  1
  In  In23  1  0.78498398  0.81121120  0.32932320  1
  In  In24  1  0.16933930  0.31817250  0.15905402  1
  In  In25  1  0.84769294  0.34258171  0.82534658  1
  In  In26  1  0.31356122  -0.02027072  0.28099061  1
  In  In27  1  0.16102386  -0.02986133  0.50867491  1
  In  In28  1  0.66214177  0.63512510  0.67794591  1
  In  In29  1  0.84065468  0.16962073  -0.01646801  1
  In  In30  1  0.32154773  0.15461544  0.18499388  1
  In  In31  1  0.16547094  0.86484430  0.00974916  1
  In  In32  1  0.67773428  0.66548237  -0.01200692  1
  In  In33  1  0.31774320  0.50095433  0.83367779  1
  In  In34  1  0.64215817  0.33698788  0.01656845  1
  In  In35  1  0.52158089  0.36594432  0.83176809  1
  In  In36  1  0.30505206  0.16543704  0.47369559  1
  In  In37  1  0.54171202  0.82063256  0.19365140  1
  In  In38  1  0.16733785  0.69422430  0.82482885  1
  In  In39  1  0.67355753  0.84360645  0.51721048  1
  In  In40  1  -0.01034398  0.64445799  0.31209342  1
  In  In41  1  -0.01672065  0.50925049  0.51993075  1
  In  In42  1  0.64996502  -0.00135418  0.33528689  1
  In  In43  1  0.00900095  0.84443399  0.16491617  1
  In  In44  1  0.13235461  0.64314750  0.48453376  1
  In  In45  1  0.67588291  0.81805587  0.80529812  1
  In  In46  1  0.63522639  0.52023957  0.18735523  1
  In  In47  1  0.15560228  0.37104878  0.50452729  1
  In  In48  1  0.35072957  0.50525289  0.49949234  1
  In  In49  1  0.49988211  0.85268037  0.69969537  1
  In  In50  1  0.68453511  0.18531160  0.50480732  1
  In  In51  1  0.49927548  0.33991614  0.50638736  1
  In  In52  1  0.00089779  -0.00751335  0.66844452  1
  In  In53  1  0.36070398  0.65965937  0.02451957  1
  In  In54  1  0.35184976  0.35245024  0.01405811  1
  In  In55  1  0.50248275  0.83933559  -0.01617928  1
  In  In56  1  0.83181558  0.50157058  -0.00242733  1
  In  In57  1  0.30460731  0.83996700  0.83997346  1
  In  In58  1  0.83789300  0.32930304  0.16961867  1
  In  In59  1  0.84427096  0.81687905  0.01122140  1
  In  In60  1  0.83596976  0.00891388  0.81860532  1
  In  In61  1  0.83509687  -0.01345732  0.13057841  1
  In  In62  1  0.19590843  0.79683163  0.30741367  1
  In  In63  1  0.31355598  0.14151004  0.86514127  1
  In  In64  1  0.35197853  0.83103133  0.51057402  1
  In  In65  1  0.47300832  0.17857222  0.02660933  1
  In  In66  1  0.65649305  0.17917154  0.82099256  1
  In  In67  1  0.01037976  0.67586737  0.00550185  1
  In  In68  1  -0.02382171  0.00090371  0.33066152  1
  In  In69  1  0.51385512  0.49272889  -0.00164274  1
  In  In70  1  0.15753089  0.49342949  0.32411595  1
  In  In71  1  -0.00670869  0.51475816  0.79148458  1
  Te  Te72  1  0.10254720  0.10562370  0.04088211  1
  Te  Te73  1  0.06026809  0.06443369  0.44080001  1
  Te  Te74  1  0.08838490  0.06013584  0.76851092  1
  Te  Te75  1  0.08517001  0.41744221  0.09135351  1
  Te  Te76  1  0.05548607  0.42427686  0.40704667  1
  Te  Te77  1  0.09585175  0.40811156  0.75752977  1
  Te  Te78  1  0.10483302  0.75003668  0.09701843  1
  Te  Te79  1  0.07904797  0.74766166  0.38549032  1
  Te  Te80  1  0.05468604  0.75925616  0.76006075  1
  Te  Te81  1  0.39987339  0.07207048  0.09262855  1
  Te  Te82  1  0.40367792  0.06242451  0.41898693  1
  Te  Te83  1  0.40295148  0.09278312  0.76067429  1
  Te  Te84  1  0.44916618  0.41398588  0.11198101  1
  Te  Te85  1  0.45869258  0.44887694  0.39923521  1
  Te  Te86  1  0.40747849  0.41615318  0.74544911  1
  Te  Te87  1  0.42822590  0.77170594  0.09685498  1
  Te  Te88  1  0.40883830  0.72861155  0.42064269  1
  Te  Te89  1  0.41138036  0.75429375  0.77170074  1
  Te  Te90  1  0.74673358  0.09979656  0.08027238  1
  Te  Te91  1  0.75038717  0.07522971  0.42221898  1
  Te  Te92  1  0.76318629  0.11453849  0.73673304  1
  Te  Te93  1  0.73035891  0.43509905  0.09033549  1
  Te  Te94  1  0.73086890  0.39663484  0.40355236  1
  Te  Te95  1  0.76882213  0.43329530  0.74396999  1
  Te  Te96  1  0.73221677  0.76060062  0.09432133  1
  Te  Te97  1  0.75199380  0.73818609  0.45089887  1
  Te  Te98  1  0.76191465  0.73359969  0.72503508  1
  Te  Te99  1  0.05688689  0.24722590  0.22315036  1
  Te  Te100  1  0.08797703  0.25856098  0.58003734  1
  Te  Te101  1  0.06167896  0.24150477  0.97591317  1
  Te  Te102  1  0.10238282  0.59481413  0.23510833  1
  Te  Te103  1  0.11618661  0.53546456  0.58946107  1
  Te  Te104  1  0.08818713  0.58387257  0.90320866  1
  Te  Te105  1  0.08953248  0.92251096  0.26529632  1
  Te  Te106  1  0.05254521  0.88442973  0.56537547  1
  Te  Te107  1  0.13973388  0.93548100  0.88300149  1
  Te  Te108  1  0.41263774  0.24674013  0.26584737  1
  Te  Te109  1  0.40467866  0.23639692  0.56529988  1
  Te  Te110  1  0.43176179  0.27169250  0.91209961  1
  Te  Te111  1  0.44150856  0.63581695  0.26499857  1
  Te  Te112  1  0.43045485  0.58633402  0.59977524  1
  Te  Te113  1  0.42114444  0.57831088  0.91228829  1
  Te  Te114  1  0.43617045  0.90778971  0.26179415  1
  Te  Te115  1  0.42005908  0.93322363  0.60014010  1
  Te  Te116  1  0.38840362  0.92568420  0.93442031  1
  Te  Te117  1  0.75164224  0.24731017  0.25395830  1
  Te  Te118  1  0.78426370  0.26905219  0.57417017  1
  Te  Te119  1  0.73365848  0.27191558  0.91474115  1
  Te  Te120  1  0.75545131  0.58737975  0.24966573  1
  Te  Te121  1  0.76698385  0.56839780  0.59526523  1
  Te  Te122  1  0.78868265  0.61052983  0.90678969  1
  Te  Te123  1  0.74759010  0.92822544  0.24167119  1
  Te  Te124  1  0.77825119  0.90404320  0.60969869  1
  Te  Te125  1  0.75407163  0.89700391  0.91434624  1
  Te  Te126  1  0.26647543  0.24230338  0.07212425  1
  Te  Te127  1  0.22286747  0.27121350  0.40359141  1
  Te  Te128  1  0.23129576  0.23610634  0.77924490  1
  Te  Te129  1  0.27213326  0.56273736  0.09588352  1
  Te  Te130  1  0.25178673  0.57474762  0.41198719  1
  Te  Te131  1  0.24652882  0.59614243  0.74043652  1
  Te  Te132  1  0.24735336  0.92093386  0.11864108  1
  Te  Te133  1  0.25743981  0.90454799  0.40963577  1
  Te  Te134  1  0.24382674  0.91940683  0.73366705  1
  Te  Te135  1  0.57465452  0.24651620  0.10729814  1
  Te  Te136  1  0.58995510  0.26067202  0.41473204  1
  Te  Te137  1  0.57434239  0.26527107  0.73121838  1
  Te  Te138  1  0.57253245  0.60605002  0.08012825  1
  Te  Te139  1  0.62033482  0.60723535  0.40574238  1
  Te  Te140  1  0.58977198  0.56755785  0.78275967  1
  Te  Te141  1  0.58625924  0.92168044  0.07880769  1
  Te  Te142  1  0.57388050  0.89545134  0.41610275  1
  Te  Te143  1  0.60179665  0.95179195  0.75681690  1
  Te  Te144  1  0.91550997  0.27726353  0.05260492  1
  Te  Te145  1  0.95088071  0.25005187  0.37228698  1
  Te  Te146  1  0.93711453  0.23978799  0.76105400  1
  Te  Te147  1  0.93859314  0.56935900  0.08517553  1
  Te  Te148  1  0.90014650  0.59052492  0.41766660  1
  Te  Te149  1  0.91806303  0.57563559  0.67947496  1
  Te  Te150  1  0.94828272  0.92062503  0.04998603  1
  Te  Te151  1  0.89437773  0.89598096  0.40169707  1
  Te  Te152  1  0.92363767  0.90800385  0.76154962  1
  Te  Te153  1  0.21702414  0.09544370  0.27690781  1
  Te  Te154  1  0.24001140  0.07912526  0.57913151  1
  Te  Te155  1  0.21597422  0.05915214  0.93870641  1
  Te  Te156  1  0.26882535  0.41377024  0.24556993  1
  Te  Te157  1  0.27912218  0.40346977  0.58532410  1
  Te  Te158  1  0.24524766  0.39922058  0.91767904  1
  Te  Te159  1  0.31178444  0.72242046  0.26340166  1
  Te  Te160  1  0.23213128  0.74343789  0.56259669  1
  Te  Te161  1  0.25270861  0.73699174  0.94502070  1
  Te  Te162  1  0.57738482  0.08752236  0.24681436  1
  Te  Te163  1  0.58175229  0.11057875  0.58847108  1
  Te  Te164  1  0.57826050  0.10025377  0.92450972  1
  Te  Te165  1  0.54370550  0.44046210  0.26731823  1
  Te  Te166  1  0.58186793  0.43077731  0.59127225  1
  Te  Te167  1  0.62134624  0.46300678  0.89264596  1
  Te  Te168  1  0.57766852  0.71077013  0.28486328  1
  Te  Te169  1  0.57234595  0.76337499  0.60249940  1
  Te  Te170  1  0.58259115  0.74401609  0.89837000  1
  Te  Te171  1  0.92729336  0.07760022  0.20972881  1
  Te  Te172  1  0.92550073  0.08765422  0.58524908  1
  Te  Te173  1  0.92236178  0.06691590  0.92150044  1
  Te  Te174  1  0.92016676  0.43099310  0.23458301  1
  Te  Te175  1  0.90027341  0.39058221  0.55880411  1
  Te  Te176  1  0.93472633  0.43450994  0.90770055  1
  Te  Te177  1  0.90579414  0.75945980  0.23462649  1
  Te  Te178  1  1.01237774  0.65452790  0.58401044  1
  Te  Te179  1  0.90955236  0.72874406  0.91194598  1
