# generated using pymatgen
data_In2Te3
_symmetry_space_group_name_H-M   'P 1'
_cell_length_a   18.77135694
_cell_length_b   18.76415126
_cell_length_c   18.76833723
_cell_angle_alpha   89.97570238
_cell_angle_beta   90.01807738
_cell_angle_gamma   89.98224237
_symmetry_Int_Tables_number   1
_chemical_formula_structural   In2Te3
_chemical_formula_sum   'In72 Te108'
_cell_volume   6610.74355012
_cell_formula_units_Z   36
loop_
 _symmetry_equiv_pos_site_id
 _symmetry_equiv_pos_as_xyz
  1  'x, y, z'
loop_
 _atom_site_type_symbol
 _atom_site_label
 _atom_site_symmetry_multiplicity
 _atom_site_fract_x
 _atom_site_fract_y
 _atom_site_fract_z
 _atom_site_occupancy
  In  In0  1  0.67559028  0.18079986  0.81367631  1
  In  In1  1  0.50791043  0.03168019  0.16634302  1
  In  In2  1  0.85040568  0.01224604  0.48419155  1
  In  In3  1  0.85476115  0.48322466  0.67384514  1
  In  In4  1  0.68497217  0.17287412  0.17794882  1
  In  In5  1  0.68762623  0.34055772  0.00206969  1
  In  In6  1  0.15420306  0.00067960  0.49634121  1
  In  In7  1  0.32680131  0.65755833  -0.01671671  1
  In  In8  1  0.01875278  0.50804930  0.51424590  1
  In  In9  1  -0.00007987  0.50173304  0.84542097  1
  In  In10  1  0.31422985  0.83466773  0.18387481  1
  In  In11  1  0.82154018  0.48662223  0.33576719  1
  In  In12  1  0.65422680  0.51776102  0.84003611  1
  In  In13  1  0.32784069  0.15440746  0.82334876  1
  In  In14  1  0.15760232  0.50681441  0.31124539  1
  In  In15  1  0.84708719  0.83536974  0.64685026  1
  In  In16  1  0.16310737  0.31256862  0.49355460  1
  In  In17  1  0.82019828  0.01088124  0.84492060  1
  In  In18  1  0.66558792  0.46450213  0.48537310  1
  In  In19  1  0.82418440  0.68252507  0.49687519  1
  In  In20  1  0.14660515  0.49605817  0.00358850  1
  In  In21  1  0.28983744  0.86532356  0.79239997  1
  In  In22  1  0.01034173  0.32883427  0.64632449  1
  In  In23  1  -0.01319419  0.14905827  0.18644487  1
  In  In24  1  0.83719357  0.32557982  0.16889358  1
  In  In25  1  0.50265994  0.65595746  0.16480463  1
  In  In26  1  -0.00134345  0.00636162  0.64843677  1
  In  In27  1  0.18152058  0.34010296  0.82023413  1
  In  In28  1  0.32228430  -0.01707662  0.00178060  1
  In  In29  1  -0.00919466  0.84098955  0.49639861  1
  In  In30  1  0.19097488  0.65061569  0.81120910  1
  In  In31  1  0.68600916  0.00750253  0.02119729  1
  In  In32  1  0.13796830  0.83629335  0.00669447  1
  In  In33  1  0.34977611  0.19782942  0.19390247  1
  In  In34  1  0.83308280  0.32941488  0.85709498  1
  In  In35  1  0.01985025  0.81861107  0.83099741  1
  In  In36  1  0.19988075  0.68560615  0.54367208  1
  In  In37  1  0.33935154  0.49316394  0.49827014  1
  In  In38  1  0.33530591  0.33814855  0.66103461  1
  In  In39  1  0.15969268  0.16286278  0.01365522  1
  In  In40  1  0.50634415  0.18287253  -0.00394824  1
  In  In41  1  0.48752149  0.84789987  0.66789967  1
  In  In42  1  0.49413033  0.01524719  0.81237155  1
  In  In43  1  0.49876564  0.66249085  0.81159905  1
  In  In44  1  0.83905536  0.66312199  0.85222724  1
  In  In45  1  0.31760906  0.01315090  0.34243032  1
  In  In46  1  -0.00421726  0.84537517  0.17322058  1
  In  In47  1  0.33703184  0.32096549  0.00159633  1
  In  In48  1  0.64859913  0.66781691  0.03064275  1
  In  In49  1  0.00230003  0.67425179  0.31838226  1
  In  In50  1  0.31781217  0.48780306  0.16476841  1
  In  In51  1  0.01728045  0.32815168  0.02686126  1
  In  In52  1  0.15922954  0.15865272  0.34019200  1
  In  In53  1  0.69940781  0.66432184  0.32563120  1
  In  In54  1  0.65041711  0.82162318  0.48061110  1
  In  In55  1  0.65357499  0.32286594  0.64497364  1
  In  In56  1  0.33375571  0.16985997  0.51386787  1
  In  In57  1  0.65721584  0.18144149  0.47784129  1
  In  In58  1  0.32823254  0.68527457  0.33502599  1
  In  In59  1  -0.01215665  0.15276790  0.81900452  1
  In  In60  1  0.14486618  0.83709534  0.32604271  1
  In  In61  1  0.66115444  0.00627156  0.66620345  1
  In  In62  1  0.70364796  0.86132355  0.18353172  1
  In  In63  1  0.52144746  0.49625357  0.00300782  1
  In  In64  1  0.67661468  0.65539754  0.67873565  1
  In  In65  1  0.50304265  0.82743756  0.34728942  1
  In  In66  1  0.49879907  -0.00916077  0.50533111  1
  In  In67  1  -0.03288337  0.29942492  0.34869401  1
  In  In68  1  0.51760081  0.47219500  0.33478653  1
  In  In69  1  0.84132823  0.84679217  0.01099298  1
  In  In70  1  0.47689838  0.63407494  0.51027464  1
  In  In71  1  0.51136822  0.82096503  -0.01535970  1
  Te  Te72  1  0.06644721  0.07228124  0.08468816  1
  Te  Te73  1  0.05956565  0.07167886  0.40684775  1
  Te  Te74  1  0.09270678  0.07589151  0.74430539  1
  Te  Te75  1  0.08817796  0.42113028  0.11772593  1
  Te  Te76  1  0.07573052  0.40969926  0.40915469  1
  Te  Te77  1  0.08389727  0.42693785  0.74050110  1
  Te  Te78  1  0.06866041  0.74075061  0.09459719  1
  Te  Te79  1  0.09024912  0.73469348  0.43140301  1
  Te  Te80  1  0.10785091  0.74777722  0.73451198  1
  Te  Te81  1  0.39997715  0.09860957  0.07090659  1
  Te  Te82  1  0.42434891  0.09130844  0.41486265  1
  Te  Te83  1  0.41046113  0.08886601  0.71785512  1
  Te  Te84  1  0.42550324  0.41082368  0.08918873  1
  Te  Te85  1  0.42398634  0.39738520  0.42303183  1
  Te  Te86  1  0.38303948  0.43630901  0.76046091  1
  Te  Te87  1  0.41068206  0.75289648  0.08681110  1
  Te  Te88  1  0.40930694  0.75595057  0.44328747  1
  Te  Te89  1  0.39384029  0.75402024  0.74790802  1
  Te  Te90  1  0.78262597  0.06836244  0.11814250  1
  Te  Te91  1  0.74828973  0.08602443  0.40135676  1
  Te  Te92  1  0.76854448  0.09565239  0.72733906  1
  Te  Te93  1  0.76101015  0.42986007  0.09370171  1
  Te  Te94  1  0.74219418  0.37381444  0.39434131  1
  Te  Te95  1  0.74774782  0.41783029  0.76099017  1
  Te  Te96  1  0.76150747  0.74717385  0.09831712  1
  Te  Te97  1  0.77105319  0.78220938  0.39405037  1
  Te  Te98  1  0.76381864  0.75708868  0.74944249  1
  Te  Te99  1  0.07772804  0.25302951  0.25197330  1
  Te  Te100  1  0.08704582  0.22044319  0.58076552  1
  Te  Te101  1  0.08135308  0.25669025  0.90608145  1
  Te  Te102  1  0.05942392  0.57527474  0.22246863  1
  Te  Te103  1  0.10649848  0.58634894  0.60411943  1
  Te  Te104  1  0.08789850  0.60573820  0.91579368  1
  Te  Te105  1  0.06563406  0.94465439  0.26418343  1
  Te  Te106  1  0.09286039  0.89750629  0.59402012  1
  Te  Te107  1  0.08201979  0.92883526  0.90603043  1
  Te  Te108  1  0.45894097  0.26835967  0.26627441  1
  Te  Te109  1  0.43099803  0.26575601  0.57257891  1
  Te  Te110  1  0.42145395  0.25615510  0.89223673  1
  Te  Te111  1  0.41670522  0.57990581  0.26701624  1
  Te  Te112  1  0.38167550  0.58150191  0.61439121  1
  Te  Te113  1  0.42421275  0.56917987  0.90875787  1
  Te  Te114  1  0.41839847  0.92227780  0.25388319  1
  Te  Te115  1  0.39019452  0.91363281  0.57538383  1
  Te  Te116  1  0.41617351  0.91148694  0.90432606  1
  Te  Te117  1  0.76940738  0.24870041  0.27908361  1
  Te  Te118  1  0.75707174  0.24955539  0.56791692  1
  Te  Te119  1  0.75779589  0.22070751  0.93539061  1
  Te  Te120  1  0.76837311  0.57655552  0.22953643  1
  Te  Te121  1  0.75227518  0.56984893  0.57546863  1
  Te  Te122  1  0.75334344  0.57483134  0.94546082  1
  Te  Te123  1  0.77253377  0.97534224  0.25244447  1
  Te  Te124  1  0.74547056  0.91989845  0.56908585  1
  Te  Te125  1  0.73535531  0.90611836  0.91753222  1
  Te  Te126  1  0.24055022  0.25907520  0.10136500  1
  Te  Te127  1  0.26604267  0.24935492  0.40039798  1
  Te  Te128  1  0.23887985  0.23550815  0.72762828  1
  Te  Te129  1  0.23964026  0.59359990  0.08870306  1
  Te  Te130  1  0.24110721  0.58846802  0.41824713  1
  Te  Te131  1  0.28108779  0.55196879  0.74449382  1
  Te  Te132  1  0.22393154  0.92550744  0.10201957  1
  Te  Te133  1  0.24730205  0.90268858  0.41836219  1
  Te  Te134  1  0.22232662  0.97614199  0.72206435  1
  Te  Te135  1  0.58917942  0.26260703  0.09332329  1
  Te  Te136  1  0.57047259  0.26161512  0.38175154  1
  Te  Te137  1  0.56883641  0.25335478  0.74504050  1
  Te  Te138  1  0.60268921  0.54978213  0.12109027  1
  Te  Te139  1  0.59426357  0.59240844  0.41126876  1
  Te  Te140  1  0.56598134  0.55769009  0.72110679  1
  Te  Te141  1  0.57896232  0.91081586  0.09015649  1
  Te  Te142  1  0.59620339  0.93726298  0.39713810  1
  Te  Te143  1  0.59290297  0.90799262  0.76059893  1
  Te  Te144  1  0.91310300  0.23128540  0.07558742  1
  Te  Te145  1  0.90437345  0.23107641  0.46404040  1
  Te  Te146  1  0.90946671  0.26086246  0.74421175  1
  Te  Te147  1  0.89762450  0.56797404  0.01059771  1
  Te  Te148  1  0.91453380  0.58204156  0.41818296  1
  Te  Te149  1  0.92702280  0.59515584  0.74592246  1
  Te  Te150  1  0.93077467  0.94319780  0.07815247  1
  Te  Te151  1  0.92882681  0.92400933  0.39185203  1
  Te  Te152  1  0.91532989  0.92093979  0.75386260  1
  Te  Te153  1  0.24685779  0.08981750  0.23260792  1
  Te  Te154  1  0.25148688  0.06827724  0.59043828  1
  Te  Te155  1  0.23507832  0.07267322  0.91428245  1
  Te  Te156  1  0.25751061  0.40542048  0.27013549  1
  Te  Te157  1  0.23114299  0.41756886  0.57857811  1
  Te  Te158  1  0.25568250  0.42508741  0.92322930  1
  Te  Te159  1  0.21794846  0.73139868  0.24061201  1
  Te  Te160  1  0.28930969  0.78109925  0.61207393  1
  Te  Te161  1  0.25060851  0.76836398  0.91408030  1
  Te  Te162  1  0.58254704  0.10714031  0.26692070  1
  Te  Te163  1  0.57491615  0.09838197  0.58398231  1
  Te  Te164  1  0.58758136  0.07664110  0.92082586  1
  Te  Te165  1  0.58811527  0.36346154  0.25946492  1
  Te  Te166  1  0.55974585  0.41642697  0.57650569  1
  Te  Te167  1  0.58329944  0.39760780  0.90407121  1
  Te  Te168  1  0.59117931  0.75364831  0.24584895  1
  Te  Te169  1  0.57861631  0.74304364  0.58967570  1
  Te  Te170  1  0.60303066  0.73468557  0.89872168  1
  Te  Te171  1  0.87477850  0.09445825  0.27130410  1
  Te  Te172  1  0.92454496  0.11352666  0.56918583  1
  Te  Te173  1  0.92155602  0.07799038  0.92799733  1
  Te  Te174  1  0.92942926  0.41545805  0.25325394  1
  Te  Te175  1  0.90958515  0.40628582  0.55617229  1
  Te  Te176  1  0.91285796  0.42860166  0.95151946  1
  Te  Te177  1  0.90145762  0.75408275  0.24599602  1
  Te  Te178  1  0.93709942  0.72802179  0.58879347  1
  Te  Te179  1  0.93294290  0.74763375  0.93764878  1
