# generated using pymatgen
data_In2Te3
_symmetry_space_group_name_H-M   'P 1'
_cell_length_a   18.78769964
_cell_length_b   18.79560120
_cell_length_c   18.79918449
_cell_angle_alpha   89.99400973
_cell_angle_beta   90.05328718
_cell_angle_gamma   90.07564258
_symmetry_Int_Tables_number   1
_chemical_formula_structural   In2Te3
_chemical_formula_sum   'In72 Te108'
_cell_volume   6638.47419610
_cell_formula_units_Z   36
loop_
 _symmetry_equiv_pos_site_id
 _symmetry_equiv_pos_as_xyz
  1  'x, y, z'
loop_
 _atom_site_type_symbol
 _atom_site_label
 _atom_site_symmetry_multiplicity
 _atom_site_fract_x
 _atom_site_fract_y
 _atom_site_fract_z
 _atom_site_occupancy
  In  In0  1  0.32370431  0.01876036  0.66050130  1
  In  In1  1  0.50872403  -0.00554693  0.84398681  1
  In  In2  1  0.81174806  0.65022253  0.19756272  1
  In  In3  1  0.01837403  0.87443954  0.83825210  1
  In  In4  1  0.83295503  0.66433030  0.47530313  1
  In  In5  1  0.48571921  -0.00998970  0.47331178  1
  In  In6  1  0.32180398  0.67412909  0.33550456  1
  In  In7  1  0.85845120  0.65956556  0.83356481  1
  In  In8  1  0.69149518  0.85229015  0.18677287  1
  In  In9  1  0.81220657  0.35043384  0.48938763  1
  In  In10  1  0.85648378  0.13430088  0.30089874  1
  In  In11  1  0.49385025  0.67548749  0.82673613  1
  In  In12  1  0.34389931  0.01295867  0.31993799  1
  In  In13  1  0.85951379  0.84535185  0.04238211  1
  In  In14  1  0.79983576  0.31322796  0.82877862  1
  In  In15  1  -0.00823745  0.68438015  0.65804058  1
  In  In16  1  0.66756708  0.51205052  0.47971625  1
  In  In17  1  0.84260964  0.15991088  0.67074866  1
  In  In18  1  0.67057514  0.85258137  0.82150931  1
  In  In19  1  0.49756356  0.68191404  0.15597984  1
  In  In20  1  0.84950746  0.32274879  0.17887730  1
  In  In21  1  0.01706191  0.50744306  0.17280788  1
  In  In22  1  0.16833837  0.00519737  0.86899744  1
  In  In23  1  0.67020220  0.82385297  0.48228292  1
  In  In24  1  0.66453887  0.29116634  0.01189616  1
  In  In25  1  0.47254664  0.34153551  0.86205975  1
  In  In26  1  0.64729696  0.65734651  0.62981407  1
  In  In27  1  0.33211027  0.82334758  0.47553270  1
  In  In28  1  0.50608553  0.48183793  0.02715537  1
  In  In29  1  0.18512129  0.33533637  0.83297954  1
  In  In30  1  0.30549964  0.65884453  -0.01205624  1
  In  In31  1  0.65252905  0.34598303  0.64117475  1
  In  In32  1  0.64172454  0.15304628  0.19181443  1
  In  In33  1  0.18235520  0.32654200  0.50282104  1
  In  In34  1  0.66551390  0.50874267  0.82209000  1
  In  In35  1  0.17442027  0.83844391  0.33087072  1
  In  In36  1  0.48186381  0.86568682  0.01590823  1
  In  In37  1  0.33242736  0.31888744  0.01994224  1
  In  In38  1  0.31444046  0.15862195  0.49704476  1
  In  In39  1  -0.02621914  0.50131472  0.49747279  1
  In  In40  1  0.17749204  0.17866413  0.68047592  1
  In  In41  1  0.50749109  0.49709887  0.34446331  1
  In  In42  1  -0.00696149  -0.00474243  0.64878369  1
  In  In43  1  0.66508164  0.16139048  0.45324310  1
  In  In44  1  0.33812954  0.49969951  0.81982324  1
  In  In45  1  0.13784287  0.50144446  0.01076710  1
  In  In46  1  0.15287927  0.15408542  0.32277019  1
  In  In47  1  0.67671668  -0.01915024  0.65751717  1
  In  In48  1  0.17768013  0.13734697  0.03859242  1
  In  In49  1  0.48754415  0.32026175  0.47318993  1
  In  In50  1  0.48477480  0.83165168  0.32543028  1
  In  In51  1  -0.00337918  0.33529114  0.01977719  1
  In  In52  1  0.51087666  0.16280785  0.66456045  1
  In  In53  1  0.34071632  0.82292601  0.84609336  1
  In  In54  1  0.00150341  0.16612731  0.85117589  1
  In  In55  1  0.01474643  0.50829341  0.82979636  1
  In  In56  1  0.34891614  0.63486316  0.64406072  1
  In  In57  1  0.17777886  0.51384394  0.32198351  1
  In  In58  1  0.02285189  0.16260058  0.48220627  1
  In  In59  1  0.63185155  0.65964970  0.01613831  1
  In  In60  1  0.82763197  0.48001220  0.00866361  1
  In  In61  1  0.65877085  0.17461519  0.86479595  1
  In  In62  1  0.15021762  0.84790395  0.65655306  1
  In  In63  1  0.32191987  0.49121873  0.15480066  1
  In  In64  1  0.85976685  0.01502592  0.83996409  1
  In  In65  1  0.81419661  0.80246173  0.64164323  1
  In  In66  1  0.67594550  0.00589128  0.02004039  1
  In  In67  1  0.16178727  0.67400531  0.46820847  1
  In  In68  1  0.01213949  0.69465597  0.02726446  1
  In  In69  1  0.00559299  0.32260103  0.33167205  1
  In  In70  1  -0.00415080  0.84775176  0.18269717  1
  In  In71  1  0.19027641  0.50401642  0.65984146  1
  Te  Te72  1  0.06474454  0.05538814  0.08865441  1
  Te  Te73  1  0.07070876  0.05154239  0.39501599  1
  Te  Te74  1  0.07756623  0.07496203  0.75117067  1
  Te  Te75  1  0.10170105  0.39462241  0.11360882  1
  Te  Te76  1  0.08865484  0.41873912  0.42067716  1
  Te  Te77  1  0.09347609  0.41435761  0.73974722  1
  Te  Te78  1  0.10261639  0.78739180  0.09679559  1
  Te  Te79  1  0.06627883  0.75793220  0.39558262  1
  Te  Te80  1  0.08003552  0.75756227  0.75900697  1
  Te  Te81  1  0.39769981  0.04887405  0.13032945  1
  Te  Te82  1  0.42915435  0.11398907  0.40466308  1
  Te  Te83  1  0.41854721  0.08723071  0.75928770  1
  Te  Te84  1  0.43110271  0.38816798  0.11841517  1
  Te  Te85  1  0.40162254  0.39919670  0.38131406  1
  Te  Te86  1  0.42462764  0.41125427  0.74175509  1
  Te  Te87  1  0.39367933  0.75607665  0.07343604  1
  Te  Te88  1  0.43700925  0.72452208  0.42631512  1
  Te  Te89  1  0.40906197  0.75343740  0.72894402  1
  Te  Te90  1  0.75312902  0.08975533  0.11295636  1
  Te  Te91  1  0.75436960  0.05769343  0.38778141  1
  Te  Te92  1  0.73624828  0.08065791  0.76033038  1
  Te  Te93  1  0.74030597  0.39514460  0.09652486  1
  Te  Te94  1  0.75229689  0.43479474  0.38214653  1
  Te  Te95  1  0.75228260  0.42155085  0.73174570  1
  Te  Te96  1  0.74553761  0.74778120  0.08255596  1
  Te  Te97  1  0.75263581  0.74960489  0.38478004  1
  Te  Te98  1  0.73763705  0.72992912  0.75783007  1
  Te  Te99  1  0.07127464  0.23786246  0.22989533  1
  Te  Te100  1  0.07894559  0.25501995  0.59115902  1
  Te  Te101  1  0.09827144  0.25559015  0.93086261  1
  Te  Te102  1  0.08565197  0.60848956  0.25584714  1
  Te  Te103  1  0.08537042  0.58974836  0.57909969  1
  Te  Te104  1  0.08481384  0.60955638  0.91680857  1
  Te  Te105  1  0.09016312  0.94050225  0.25747187  1
  Te  Te106  1  0.06647948  0.91059590  0.55300032  1
  Te  Te107  1  0.08213219  0.92717687  0.96339946  1
  Te  Te108  1  0.48269345  0.19312501  0.23073310  1
  Te  Te109  1  0.41014563  0.24310437  0.58275808  1
  Te  Te110  1  0.41356352  0.22826101  0.93360398  1
  Te  Te111  1  0.41065739  0.58609648  0.24019057  1
  Te  Te112  1  0.45252683  0.55533259  0.58022857  1
  Te  Te113  1  0.43237828  0.57970309  0.93397828  1
  Te  Te114  1  0.39628933  0.90530414  0.22530966  1
  Te  Te115  1  0.40367171  0.91860469  0.57796482  1
  Te  Te116  1  0.38831453  0.94468662  0.92604880  1
  Te  Te117  1  0.75158997  0.24154717  0.26138892  1
  Te  Te118  1  0.73876783  0.23462439  0.57906580  1
  Te  Te119  1  0.78295592  0.21854299  0.94485555  1
  Te  Te120  1  0.72446418  0.54790141  0.26122810  1
  Te  Te121  1  0.76482830  0.57599162  0.58083628  1
  Te  Te122  1  0.74931453  0.58870878  0.92552986  1
  Te  Te123  1  0.80320801  0.92401716  0.26794324  1
  Te  Te124  1  0.77217512  0.92383847  0.55578283  1
  Te  Te125  1  0.76240814  0.92029232  0.92422366  1
  Te  Te126  1  0.25853052  0.23599182  0.11871919  1
  Te  Te127  1  0.25281819  0.24879704  0.39039839  1
  Te  Te128  1  0.27954074  0.25696667  0.75186677  1
  Te  Te129  1  0.22351233  0.59410410  0.09923713  1
  Te  Te130  1  0.26729401  0.56967856  0.43367003  1
  Te  Te131  1  0.24834755  0.60517357  0.76032159  1
  Te  Te132  1  0.27591947  0.97008151  0.11539949  1
  Te  Te133  1  0.25311302  0.93859244  0.41948603  1
  Te  Te134  1  0.24433754  0.92322519  0.75394052  1
  Te  Te135  1  0.55356399  0.23610148  0.09525938  1
  Te  Te136  1  0.59934426  0.27482765  0.38682292  1
  Te  Te137  1  0.58776594  0.25895222  0.75699386  1
  Te  Te138  1  0.59746799  0.55782853  0.12637510  1
  Te  Te139  1  0.57772075  0.60965898  0.41324035  1
  Te  Te140  1  0.56284973  0.57610575  0.73295013  1
  Te  Te141  1  0.58115863  0.92915987  0.11332010  1
  Te  Te142  1  0.59230710  0.92228898  0.38984407  1
  Te  Te143  1  0.56186288  0.90839998  0.72920589  1
  Te  Te144  1  0.92369190  0.22991596  0.09120620  1
  Te  Te145  1  0.90350142  0.24041839  0.41319866  1
  Te  Te146  1  0.92292432  0.25773795  0.75465228  1
  Te  Te147  1  0.91275723  0.58675302  0.08007849  1
  Te  Te148  1  0.92209381  0.58365941  0.38815052  1
  Te  Te149  1  0.91719900  0.56878422  0.72762812  1
  Te  Te150  1  0.90041910  0.96412387  0.12688673  1
  Te  Te151  1  0.86197780  0.93795371  0.40162212  1
  Te  Te152  1  0.89625862  0.90377989  0.73672223  1
  Te  Te153  1  0.25539447  0.08673052  0.21885985  1
  Te  Te154  1  0.21243168  0.07491084  0.57229584  1
  Te  Te155  1  0.25767614  0.11307558  0.91594844  1
  Te  Te156  1  0.25005019  0.40543553  0.25257029  1
  Te  Te157  1  0.27366343  0.41177969  0.58168634  1
  Te  Te158  1  0.25864034  0.43382361  0.93675937  1
  Te  Te159  1  0.26073379  0.76359155  0.23630419  1
  Te  Te160  1  0.24581055  0.74882970  0.57970876  1
  Te  Te161  1  0.23086386  0.77216332  0.92975376  1
  Te  Te162  1  0.54866176  0.06691886  0.27205531  1
  Te  Te163  1  0.58875375  0.07529632  0.56481550  1
  Te  Te164  1  0.56637298  0.08776370  0.95026709  1
  Te  Te165  1  0.60589467  0.44105284  0.24741067  1
  Te  Te166  1  0.55540228  0.43551842  0.56525691  1
  Te  Te167  1  0.60348001  0.41114313  0.92262298  1
  Te  Te168  1  0.59401423  0.75185282  0.25083318  1
  Te  Te169  1  0.57396786  0.77568616  0.58438651  1
  Te  Te170  1  0.57390814  0.77482119  0.92041092  1
  Te  Te171  1  0.97161995  0.07261357  0.22102554  1
  Te  Te172  1  0.90889616  0.08479544  0.55838443  1
  Te  Te173  1  0.94289972  0.07031177  0.94935443  1
  Te  Te174  1  0.92013480  0.43034911  0.26120242  1
  Te  Te175  1  0.91561419  0.39680817  0.58297051  1
  Te  Te176  1  0.91792305  0.41251967  0.90510320  1
  Te  Te177  1  0.89708795  0.75759309  0.25437673  1
  Te  Te178  1  0.92895219  0.76779806  0.54894084  1
  Te  Te179  1  0.92225419  0.77033594  0.91689359  1
