# generated using pymatgen
data_In2Te3
_symmetry_space_group_name_H-M   'P 1'
_cell_length_a   18.73336490
_cell_length_b   18.73679464
_cell_length_c   18.73900241
_cell_angle_alpha   89.99847335
_cell_angle_beta   90.09804140
_cell_angle_gamma   90.03516697
_symmetry_Int_Tables_number   1
_chemical_formula_structural   In2Te3
_chemical_formula_sum   'In72 Te108'
_cell_volume   6577.43914906
_cell_formula_units_Z   36
loop_
 _symmetry_equiv_pos_site_id
 _symmetry_equiv_pos_as_xyz
  1  'x, y, z'
loop_
 _atom_site_type_symbol
 _atom_site_label
 _atom_site_symmetry_multiplicity
 _atom_site_fract_x
 _atom_site_fract_y
 _atom_site_fract_z
 _atom_site_occupancy
  In  In0  1  0.16531115  0.84858933  0.33051606  1
  In  In1  1  0.15882789  0.31701069  0.83369018  1
  In  In2  1  0.67098671  0.32984450  0.67622739  1
  In  In3  1  0.33859587  0.00501681  -0.00661422  1
  In  In4  1  0.49708163  0.01283072  0.50585391  1
  In  In5  1  0.17180334  0.88977876  0.70516701  1
  In  In6  1  0.31524533  0.13027717  0.18157940  1
  In  In7  1  0.65858926  0.16419329  0.15722920  1
  In  In8  1  0.66250878  0.65558411  0.00054460  1
  In  In9  1  0.82670339  -0.00686778  0.15638013  1
  In  In10  1  0.34861376  0.16273764  0.85051326  1
  In  In11  1  0.18079007  0.67555574  0.14926698  1
  In  In12  1  0.48234497  0.51287663  0.32677244  1
  In  In13  1  0.66341973  0.67151684  0.68130118  1
  In  In14  1  0.15011374  0.34855412  0.13220494  1
  In  In15  1  0.18310243  0.67642906  0.82870195  1
  In  In16  1  0.82578642  0.47647849  0.32131260  1
  In  In17  1  0.33583752  0.84234384  0.15976499  1
  In  In18  1  0.67790284  0.00542742  0.33076739  1
  In  In19  1  0.85351265  0.67606921  0.51722022  1
  In  In20  1  0.82683912  0.85094851  -0.02862249  1
  In  In21  1  0.18694109  0.65117829  0.50247561  1
  In  In22  1  0.49153367  0.67585852  0.82393452  1
  In  In23  1  0.01009473  0.82769192  0.53167201  1
  In  In24  1  0.50049622  0.31008848  0.15384474  1
  In  In25  1  0.85486611  0.65749192  0.13277365  1
  In  In26  1  0.66399044  0.33113976  0.34762754  1
  In  In27  1  0.30030481  0.31226649  0.36595665  1
  In  In28  1  -0.01238008  0.47453118  0.50575695  1
  In  In29  1  0.01175102  0.48893563  0.82343936  1
  In  In30  1  0.82906210  0.31477880  0.52532513  1
  In  In31  1  0.64214936  0.87367971  0.81444921  1
  In  In32  1  0.02192854  0.65125978  0.30985962  1
  In  In33  1  0.15725797  0.14584156  0.68226845  1
  In  In34  1  0.66936426  0.14014501  0.81329099  1
  In  In35  1  -0.00867771  0.85193657  0.17552078  1
  In  In36  1  0.82537197  0.48769035  0.67720775  1
  In  In37  1  0.68160367  0.85744064  0.53470932  1
  In  In38  1  0.49815773  0.16620671  0.35016551  1
  In  In39  1  0.17727430  0.00173142  0.51656532  1
  In  In40  1  0.68214841  0.50182536  0.15485953  1
  In  In41  1  0.51855635  0.49338118  -0.02683527  1
  In  In42  1  0.00115574  0.68537860  0.65112408  1
  In  In43  1  0.02753906  0.32910815  0.32520505  1
  In  In44  1  0.02497272  0.00265096  0.36071681  1
  In  In45  1  0.15742579  0.50704829  0.32869245  1
  In  In46  1  0.49974737  0.85807179  0.01669340  1
  In  In47  1  0.33432317  0.48635178  0.83025116  1
  In  In48  1  0.49813137  0.49915152  0.68523253  1
  In  In49  1  0.84858085  -0.00004688  0.53616101  1
  In  In50  1  0.64150163  0.68677394  0.32580665  1
  In  In51  1  0.33195899  0.68345101  0.66811338  1
  In  In52  1  0.30938086  0.46842979  0.52384857  1
  In  In53  1  0.80621891  0.85447702  0.32357341  1
  In  In54  1  0.85071972  0.14283939  -0.02162203  1
  In  In55  1  0.51833769  0.15494457  -0.01990125  1
  In  In56  1  0.01138789  0.15789912  0.52652273  1
  In  In57  1  0.83386636  0.14421827  0.35757206  1
  In  In58  1  0.32792001  0.33009594  -0.01125450  1
  In  In59  1  0.81552895  0.33789809  0.14135095  1
  In  In60  1  0.16157087  0.84694593  -0.03999662  1
  In  In61  1  0.49104789  0.32027456  0.53160376  1
  In  In62  1  0.48588428  0.15766562  0.66947215  1
  In  In63  1  0.82098675  0.66648256  0.85367995  1
  In  In64  1  0.85437729  0.31343299  0.82065275  1
  In  In65  1  0.48818304  0.84221196  0.31607469  1
  In  In66  1  0.01450145  0.16473917  0.15584640  1
  In  In67  1  -0.01694464  0.66033638  -0.00181548  1
  In  In68  1  0.32896554  0.51996389  0.17132657  1
  In  In69  1  0.14598244  0.16112177  -0.02835103  1
  In  In70  1  0.51333750  0.67370674  0.49542864  1
  In  In71  1  0.34052749  0.84422968  0.51341094  1
  Te  Te72  1  0.08177968  0.06748945  0.06778458  1
  Te  Te73  1  0.11274211  0.11706456  0.41444345  1
  Te  Te74  1  0.06327681  0.06983505  0.77603006  1
  Te  Te75  1  0.05016358  0.43530122  0.07015369  1
  Te  Te76  1  0.10386411  0.40669330  0.43218871  1
  Te  Te77  1  0.10434023  0.41466855  0.73045475  1
  Te  Te78  1  0.07425054  0.76329602  0.07878024  1
  Te  Te79  1  0.08128648  0.74800761  0.42033859  1
  Te  Te80  1  0.08780600  0.76636230  0.74864530  1
  Te  Te81  1  0.42800133  0.08758161  0.08616320  1
  Te  Te82  1  0.39724148  0.09358912  0.43046122  1
  Te  Te83  1  0.42077133  0.06038104  0.76688366  1
  Te  Te84  1  0.41800979  0.41689374  0.08070513  1
  Te  Te85  1  0.42076508  0.40506548  0.41835630  1
  Te  Te86  1  0.40547647  0.39670790  0.73687681  1
  Te  Te87  1  0.40883953  0.75220459  0.06788302  1
  Te  Te88  1  0.40936549  0.75009761  0.41450703  1
  Te  Te89  1  0.40257974  0.77567251  0.75872969  1
  Te  Te90  1  0.73912158  0.07579936  0.06205142  1
  Te  Te91  1  0.73989825  0.07531702  0.45290838  1
  Te  Te92  1  0.77334463  0.06881836  0.73470708  1
  Te  Te93  1  0.73867441  0.41969517  0.04319835  1
  Te  Te94  1  0.75027235  0.41847685  0.44026082  1
  Te  Te95  1  0.73450621  0.42326529  0.78220885  1
  Te  Te96  1  0.75606738  0.75599208  0.07243031  1
  Te  Te97  1  0.74492373  0.75317049  0.42978958  1
  Te  Te98  1  0.74837438  0.76599468  0.76403246  1
  Te  Te99  1  0.11732229  0.24121505  0.23945008  1
  Te  Te100  1  0.10501912  0.25690889  0.59056669  1
  Te  Te101  1  0.04804655  0.25762471  0.91364833  1
  Te  Te102  1  0.08492323  0.56205581  0.20536613  1
  Te  Te103  1  0.08055175  0.57526408  0.58073759  1
  Te  Te104  1  0.08850488  0.58887054  0.91204988  1
  Te  Te105  1  0.09988633  0.94830245  0.23128467  1
  Te  Te106  1  0.06363839  0.94887203  0.60395741  1
  Te  Te107  1  0.06886726  0.93687861  0.88317140  1
  Te  Te108  1  0.40406608  0.24630986  0.25436934  1
  Te  Te109  1  0.38569852  0.22837166  0.58086831  1
  Te  Te110  1  0.44186702  0.26986398  0.90931860  1
  Te  Te111  1  0.42173204  0.61425936  0.23902446  1
  Te  Te112  1  0.41499890  0.58752586  0.57941750  1
  Te  Te113  1  0.40984497  0.58650488  0.91854357  1
  Te  Te114  1  0.40224412  0.94267104  0.24874792  1
  Te  Te115  1  0.42586751  0.92344180  0.60843842  1
  Te  Te116  1  0.41777679  0.91528286  0.90504681  1
  Te  Te117  1  0.75652314  0.24037020  0.25630855  1
  Te  Te118  1  0.74011116  0.22316770  0.59910241  1
  Te  Te119  1  0.75305307  0.23422324  0.90487600  1
  Te  Te120  1  0.75558316  0.59582741  0.25283150  1
  Te  Te121  1  0.74949422  0.58583182  0.58691300  1
  Te  Te122  1  0.76173985  0.56139974  0.93933223  1
  Te  Te123  1  0.70754137  0.90437732  0.21216477  1
  Te  Te124  1  0.74859488  0.94542932  0.63956495  1
  Te  Te125  1  0.74382036  0.94984813  0.89513933  1
  Te  Te126  1  0.25181067  0.23023849  0.07446110  1
  Te  Te127  1  0.23278447  0.21424618  0.44961950  1
  Te  Te128  1  0.26239145  0.24130898  0.75273507  1
  Te  Te129  1  0.24914565  0.57869861  0.06161499  1
  Te  Te130  1  0.27227838  0.57160553  0.40712266  1
  Te  Te131  1  0.24884182  0.57479741  0.73536249  1
  Te  Te132  1  0.23678580  0.92192934  0.07121497  1
  Te  Te133  1  0.26586218  0.93302941  0.41103834  1
  Te  Te134  1  0.28303118  0.95549624  0.78039237  1
  Te  Te135  1  0.60419862  0.26299206  0.05375403  1
  Te  Te136  1  0.59254373  0.23970628  0.44536597  1
  Te  Te137  1  0.57378005  0.24820893  0.76036049  1
  Te  Te138  1  0.56634415  0.57953548  0.09194748  1
  Te  Te139  1  0.59430413  0.57113043  0.41557960  1
  Te  Te140  1  0.59660904  0.57299276  0.77734506  1
  Te  Te141  1  0.59942604  0.92673953  0.09857198  1
  Te  Te142  1  0.58892335  0.90744799  0.42063051  1
  Te  Te143  1  0.55075660  0.91828701  0.70693595  1
  Te  Te144  1  0.91724370  0.24668264  0.07052466  1
  Te  Te145  1  0.92669351  0.25199993  0.41702270  1
  Te  Te146  1  0.93114100  0.23149879  0.72651681  1
  Te  Te147  1  0.92726196  0.53969990  0.07302732  1
  Te  Te148  1  0.92217805  0.57985645  0.41262411  1
  Te  Te149  1  0.91511139  0.59327575  0.74612774  1
  Te  Te150  1  0.92785280  0.93078714  0.05999951  1
  Te  Te151  1  0.91581247  0.90982777  0.41978429  1
  Te  Te152  1  0.95384037  0.94971946  0.77851827  1
  Te  Te153  1  0.23125670  0.04369441  0.26304846  1
  Te  Te154  1  0.26783075  0.08040602  0.60400039  1
  Te  Te155  1  0.23370946  0.06295717  0.88755043  1
  Te  Te156  1  0.25115355  0.40837300  0.24591807  1
  Te  Te157  1  0.20771103  0.39681882  0.60074766  1
  Te  Te158  1  0.22868257  0.42335178  0.92339991  1
  Te  Te159  1  0.25428176  0.74735060  0.26090626  1
  Te  Te160  1  0.22602125  0.77468930  0.58897757  1
  Te  Te161  1  0.27023464  0.75702044  0.91744907  1
  Te  Te162  1  0.57062489  0.07818263  0.24757676  1
  Te  Te163  1  0.59229014  0.08561874  0.59333689  1
  Te  Te164  1  0.58773620  0.04967846  0.90196845  1
  Te  Te165  1  0.58341186  0.41199864  0.24501631  1
  Te  Te166  1  0.58932571  0.42527803  0.58640368  1
  Te  Te167  1  0.61111215  0.41965566  0.88757856  1
  Te  Te168  1  0.56515333  0.75598628  0.22091952  1
  Te  Te169  1  0.57358544  0.76668296  0.60122575  1
  Te  Te170  1  0.59151645  0.75755496  0.91152305  1
  Te  Te171  1  0.91921310  0.07400973  0.25159454  1
  Te  Te172  1  0.90636295  0.11154996  0.62697942  1
  Te  Te173  1  0.93514781  0.07508919  0.87420009  1
  Te  Te174  1  0.92503231  0.40049875  0.23685718  1
  Te  Te175  1  0.92698697  0.38882804  0.61877271  1
  Te  Te176  1  0.92720389  0.40622123  0.91305289  1
  Te  Te177  1  0.90850532  0.75122424  0.25656450  1
  Te  Te178  1  0.88949062  0.78698522  0.61696238  1
  Te  Te179  1  0.93024507  0.76427094  0.89799537  1
