# generated using pymatgen
data_In2Te3
_symmetry_space_group_name_H-M   'P 1'
_cell_length_a   18.85259884
_cell_length_b   18.87236186
_cell_length_c   18.86428102
_cell_angle_alpha   89.96321487
_cell_angle_beta   90.09495553
_cell_angle_gamma   89.97758946
_symmetry_Int_Tables_number   1
_chemical_formula_structural   In2Te3
_chemical_formula_sum   'In72 Te108'
_cell_volume   6711.76928847
_cell_formula_units_Z   36
loop_
 _symmetry_equiv_pos_site_id
 _symmetry_equiv_pos_as_xyz
  1  'x, y, z'
loop_
 _atom_site_type_symbol
 _atom_site_label
 _atom_site_symmetry_multiplicity
 _atom_site_fract_x
 _atom_site_fract_y
 _atom_site_fract_z
 _atom_site_occupancy
  In  In0  1  0.34514310  0.50766334  0.49721321  1
  In  In1  1  0.16178698  0.84341661  -0.00232007  1
  In  In2  1  0.30926367  0.67036871  0.33949973  1
  In  In3  1  0.86189980  0.81058904  0.65107277  1
  In  In4  1  0.12250061  0.16355364  0.00312871  1
  In  In5  1  0.68926319  0.49140756  0.84049725  1
  In  In6  1  0.15691409  0.33590553  0.16651685  1
  In  In7  1  0.82203483  -0.00089825  0.84436190  1
  In  In8  1  0.16200111  0.02755167  0.16749531  1
  In  In9  1  0.65809278  0.50572912  0.17111461  1
  In  In10  1  0.00336176  0.15704683  0.48217668  1
  In  In11  1  0.68242320  0.65118444  0.66257767  1
  In  In12  1  0.50626388  0.00093516  0.16735476  1
  In  In13  1  -0.01675388  0.48995437  0.83016598  1
  In  In14  1  0.70043944  0.51520169  0.50615272  1
  In  In15  1  0.48592375  -0.01386762  0.83366693  1
  In  In16  1  0.13089072  0.48819655  0.00140924  1
  In  In17  1  0.17027031  0.82884269  0.33241206  1
  In  In18  1  0.33421368  0.83209184  0.81943981  1
  In  In19  1  -0.01382474  0.84724099  0.14991033  1
  In  In20  1  0.83708012  0.85572642  0.33481384  1
  In  In21  1  0.01011132  0.32408863  0.32338949  1
  In  In22  1  0.32732131  0.49556016  0.15542819  1
  In  In23  1  -0.00831875  0.66774792  0.31865387  1
  In  In24  1  0.84601140  0.67873120  0.83807766  1
  In  In25  1  0.51052478  0.16573183  0.00174732  1
  In  In26  1  0.16456472  0.33132433  0.48773656  1
  In  In27  1  0.32306793  0.16668340  0.17970533  1
  In  In28  1  -0.02528957  0.31513989  0.68294834  1
  In  In29  1  0.83109666  0.33990747  0.51307142  1
  In  In30  1  0.67690658  0.13933207  0.18776040  1
  In  In31  1  0.50470445  0.84892437  0.33346657  1
  In  In32  1  0.81348511  0.30259510  0.15981660  1
  In  In33  1  0.51945315  0.67849230  0.17286975  1
  In  In34  1  0.14813525  0.70369070  0.50537389  1
  In  In35  1  0.52627479  0.31038603  0.50988402  1
  In  In36  1  0.51343588  0.51805822  0.69116783  1
  In  In37  1  0.33659922  0.01417965  0.61337896  1
  In  In38  1  0.15056567  0.64622166  0.82858360  1
  In  In39  1  0.13473929  0.49568742  0.32390435  1
  In  In40  1  0.13698980  -0.01194641  0.81066790  1
  In  In41  1  0.51065169  0.47905146  0.31502511  1
  In  In42  1  0.84482660  0.17524694  -0.01197644  1
  In  In43  1  0.32724745  0.29477469  0.34976981  1
  In  In44  1  0.83190991  0.48723304  0.32756520  1
  In  In45  1  0.33462337  0.16600299  0.83672647  1
  In  In46  1  0.83292887  0.00453350  0.18127888  1
  In  In47  1  0.33597673  0.67183186  0.02703568  1
  In  In48  1  0.13707625  0.51447716  0.64452603  1
  In  In49  1  0.68323435  0.34914647  0.67961000  1
  In  In50  1  0.67174349  -0.01098504  0.65815979  1
  In  In51  1  0.85785066  0.52023504  0.01351172  1
  In  In52  1  0.67651230  -0.04864670  0.00190542  1
  In  In53  1  0.33800931  0.52024639  0.84142093  1
  In  In54  1  0.67374614  0.30717098  -0.00667070  1
  In  In55  1  0.32841461  -0.01748819  -0.02865680  1
  In  In56  1  0.49609333  0.49674214  0.00670297  1
  In  In57  1  0.14136476  0.67305928  0.20760726  1
  In  In58  1  0.35295442  0.34251348  0.01591826  1
  In  In59  1  0.14890406  0.85067423  0.66440605  1
  In  In60  1  -0.00628001  0.01190879  0.63468022  1
  In  In61  1  0.69176352  0.14502012  0.46958753  1
  In  In62  1  0.17849815  0.30725650  0.83485235  1
  In  In63  1  -0.00883082  0.83443622  0.85448485  1
  In  In64  1  0.70971885  0.65868824  0.33818029  1
  In  In65  1  0.51170267  0.66354594  0.50864078  1
  In  In66  1  0.67868635  0.16805442  0.83324502  1
  In  In67  1  0.67763464  0.84629913  0.47279375  1
  In  In68  1  0.49391683  0.84508381  0.67851329  1
  In  In69  1  0.33828677  0.32465004  0.68190706  1
  In  In70  1  0.51033185  0.18465154  0.64317987  1
  In  In71  1  0.31671816  0.85120796  0.50632776  1
  Te  Te72  1  0.04222816  0.09459380  0.10752884  1
  Te  Te73  1  0.04457715  0.05400251  0.38328019  1
  Te  Te74  1  0.07172613  0.09252130  0.73275368  1
  Te  Te75  1  0.05447361  0.38373056  0.07151882  1
  Te  Te76  1  0.05730034  0.42500001  0.43187655  1
  Te  Te77  1  0.10029553  0.41705675  0.75636038  1
  Te  Te78  1  0.08283766  0.74848931  0.08599952  1
  Te  Te79  1  0.04977815  0.77644683  0.41203259  1
  Te  Te80  1  0.07171100  0.75270482  0.75445115  1
  Te  Te81  1  0.40414362  0.08002175  0.06780997  1
  Te  Te82  1  0.36620983  0.09260269  0.48335375  1
  Te  Te83  1  0.42865214  0.09159562  0.74023508  1
  Te  Te84  1  0.44565808  0.40587463  0.11869327  1
  Te  Te85  1  0.42510907  0.40521612  0.41796850  1
  Te  Te86  1  0.42401493  0.41864155  0.76598034  1
  Te  Te87  1  0.42165812  0.76389739  0.10179882  1
  Te  Te88  1  0.41285300  0.74533866  0.42259121  1
  Te  Te89  1  0.42602200  0.73880561  0.75249725  1
  Te  Te90  1  0.74512313  0.08402841  0.06144654  1
  Te  Te91  1  0.80443663  0.05870561  0.41386469  1
  Te  Te92  1  0.76084520  0.08691220  0.73429252  1
  Te  Te93  1  0.74459876  0.41636124  0.07429733  1
  Te  Te94  1  0.73324112  0.40338995  0.41095239  1
  Te  Te95  1  0.77891581  0.45073952  0.72926821  1
  Te  Te96  1  0.68415462  0.76043821  0.08892848  1
  Te  Te97  1  0.78666899  0.74587874  0.43401057  1
  Te  Te98  1  0.75331996  0.75850529  0.74491667  1
  Te  Te99  1  0.10758472  0.23026914  0.25947208  1
  Te  Te100  1  0.07492081  0.25375162  0.58265318  1
  Te  Te101  1  0.06122574  0.25318368  0.90411333  1
  Te  Te102  1  0.04665516  0.54944779  0.21065499  1
  Te  Te103  1  0.05105386  0.61576548  0.57833632  1
  Te  Te104  1  0.05032231  0.59381339  0.92784505  1
  Te  Te105  1  0.08290382  0.91742835  0.24188707  1
  Te  Te106  1  0.10389237  0.94426045  0.55963148  1
  Te  Te107  1  0.06420410  0.94215969  0.93678132  1
  Te  Te108  1  0.42553263  0.23568162  0.25924645  1
  Te  Te109  1  0.39217675  0.24498778  0.56217030  1
  Te  Te110  1  0.42872769  0.25910682  0.91229992  1
  Te  Te111  1  0.41051606  0.58547793  0.25501143  1
  Te  Te112  1  0.41341391  0.59498889  0.60165171  1
  Te  Te113  1  0.42962272  0.60894505  0.92494419  1
  Te  Te114  1  0.40947253  0.93201477  0.25713905  1
  Te  Te115  1  0.44636091  0.92004722  0.55784885  1
  Te  Te116  1  0.43292103  0.88032172  0.92931105  1
  Te  Te117  1  0.76598882  0.22123499  0.27256858  1
  Te  Te118  1  0.73439885  0.24560835  0.58247368  1
  Te  Te119  1  0.77825169  0.27813834  0.87913716  1
  Te  Te120  1  0.77571993  0.58827640  0.22106807  1
  Te  Te121  1  0.79404138  0.60078464  0.57932018  1
  Te  Te122  1  0.75466976  0.59558947  0.93008242  1
  Te  Te123  1  0.73383220  0.92051570  0.25163118  1
  Te  Te124  1  0.77090091  0.91108759  0.57491348  1
  Te  Te125  1  0.77469907  0.87515297  0.91571696  1
  Te  Te126  1  0.24484905  0.24718828  0.06568238  1
  Te  Te127  1  0.20560741  0.22141533  0.39447523  1
  Te  Te128  1  0.23980150  0.21749215  0.72675716  1
  Te  Te129  1  0.22508124  0.58534786  0.08752218  1
  Te  Te130  1  0.22290430  0.57950713  0.42712601  1
  Te  Te131  1  0.24792089  0.57908717  0.73401427  1
  Te  Te132  1  0.25088678  0.92533698  0.08782309  1
  Te  Te133  1  0.25077861  0.93258250  0.40195287  1
  Te  Te134  1  0.26697437  0.94248272  0.74007251  1
  Te  Te135  1  0.59045852  0.24262279  0.10233206  1
  Te  Te136  1  0.57769210  0.21869096  0.40713163  1
  Te  Te137  1  0.58446429  0.25945253  0.75467876  1
  Te  Te138  1  0.59364543  0.59871907  0.06576511  1
  Te  Te139  1  0.58707731  0.58137103  0.40543370  1
  Te  Te140  1  0.59774801  0.60361555  0.78184763  1
  Te  Te141  1  0.58971559  0.88820551  0.10910923  1
  Te  Te142  1  0.59542231  0.94679376  0.40060047  1
  Te  Te143  1  0.60046739  0.90972660  0.76688663  1
  Te  Te144  1  0.92422982  0.21582839  0.10843846  1
  Te  Te145  1  0.90797057  0.25501126  0.41133984  1
  Te  Te146  1  0.87949956  0.24212508  0.76466214  1
  Te  Te147  1  0.93045649  0.59514349  0.11540350  1
  Te  Te148  1  0.91956503  0.57522255  0.40768660  1
  Te  Te149  1  0.90813870  0.58313200  0.74345172  1
  Te  Te150  1  0.89064606  0.92611094  0.06958199  1
  Te  Te151  1  0.92296372  0.95272488  0.41421340  1
  Te  Te152  1  0.92038186  0.91936677  0.74535255  1
  Te  Te153  1  0.26774501  0.06057453  0.26725931  1
  Te  Te154  1  0.22604278  0.07557563  0.53509515  1
  Te  Te155  1  0.23078654  0.08464683  0.91371538  1
  Te  Te156  1  0.25577506  0.41687904  0.26666065  1
  Te  Te157  1  0.25429121  0.41736193  0.58558683  1
  Te  Te158  1  0.25445053  0.42373963  0.92637103  1
  Te  Te159  1  0.26367003  0.76317501  0.22955573  1
  Te  Te160  1  0.25186001  0.75348688  0.60441988  1
  Te  Te161  1  0.24144826  0.74622672  0.90857505  1
  Te  Te162  1  0.57406195  0.07678854  0.27611553  1
  Te  Te163  1  0.58818624  0.07823969  0.56783293  1
  Te  Te164  1  0.59194564  0.06907981  0.91567794  1
  Te  Te165  1  0.61452745  0.39369174  0.25702827  1
  Te  Te166  1  0.58336483  0.43829952  0.58162344  1
  Te  Te167  1  0.58524325  0.41015073  0.91930999  1
  Te  Te168  1  0.60878966  0.75183405  0.27254904  1
  Te  Te169  1  0.60014001  0.76157398  0.58227053  1
  Te  Te170  1  0.63289982  0.80314462  0.95698009  1
  Te  Te171  1  0.91430547  0.06599003  0.29407182  1
  Te  Te172  1  0.89308075  0.09666813  0.56298609  1
  Te  Te173  1  0.92455630  0.09059570  0.89753024  1
  Te  Te174  1  0.91098391  0.39710356  0.23471453  1
  Te  Te175  1  0.92052867  0.42130028  0.59655247  1
  Te  Te176  1  0.91984013  0.40981611  0.93754750  1
  Te  Te177  1  0.89850024  0.75659364  0.23587160  1
  Te  Te178  1  0.97553111  0.76575078  0.56860199  1
  Te  Te179  1  0.90841974  0.75620536  0.94965498  1
