# generated using pymatgen
data_In2Te3
_symmetry_space_group_name_H-M   'P 1'
_cell_length_a   18.91420459
_cell_length_b   18.92642777
_cell_length_c   18.91671882
_cell_angle_alpha   90.01605305
_cell_angle_beta   90.04303306
_cell_angle_gamma   89.97028767
_symmetry_Int_Tables_number   1
_chemical_formula_structural   In2Te3
_chemical_formula_sum   'In72 Te108'
_cell_volume   6771.77226825
_cell_formula_units_Z   36
loop_
 _symmetry_equiv_pos_site_id
 _symmetry_equiv_pos_as_xyz
  1  'x, y, z'
loop_
 _atom_site_type_symbol
 _atom_site_label
 _atom_site_symmetry_multiplicity
 _atom_site_fract_x
 _atom_site_fract_y
 _atom_site_fract_z
 _atom_site_occupancy
  In  In0  1  0.31145880  0.68165129  -0.00598750  1
  In  In1  1  0.15960797  0.81821645  0.67579007  1
  In  In2  1  0.51814913  0.83252102  0.34935577  1
  In  In3  1  0.01927285  0.32190265  0.34012452  1
  In  In4  1  0.17433901  0.00194578  0.17544279  1
  In  In5  1  0.32598829  0.50014754  0.50063232  1
  In  In6  1  0.50754802  0.33768636  0.81641468  1
  In  In7  1  0.68827778  0.34781964  0.31983597  1
  In  In8  1  0.66180344  0.33227371  0.65054113  1
  In  In9  1  0.01688223  0.01382263  0.65760346  1
  In  In10  1  0.50799420  0.33702424  0.17168192  1
  In  In11  1  -0.01850635  0.15267521  0.48246240  1
  In  In12  1  0.30699982  0.87200110  0.47400312  1
  In  In13  1  0.85010024  0.50402376  0.35049947  1
  In  In14  1  0.32042047  0.49849687  0.82072660  1
  In  In15  1  0.14990312  0.35372742  0.50515185  1
  In  In16  1  0.31562395  0.33207143  0.32045942  1
  In  In17  1  0.83072941  0.16946433  0.00077896  1
  In  In18  1  0.66781889  0.47579677  0.81011353  1
  In  In19  1  0.32547613  0.82063074  0.16462914  1
  In  In20  1  0.48937722  0.00839014  0.17901327  1
  In  In21  1  0.66368930  0.33887418  -0.01136743  1
  In  In22  1  0.33947943  0.33541408  0.65672307  1
  In  In23  1  0.67664942  0.66511061  0.34956955  1
  In  In24  1  0.33264427  -0.01234051  0.66422920  1
  In  In25  1  0.48900321  0.34609676  0.50392651  1
  In  In26  1  0.00477203  0.50209969  0.17104039  1
  In  In27  1  0.16269218  0.65473979  0.17656797  1
  In  In28  1  0.86719080  0.35506101  0.51875789  1
  In  In29  1  0.01090050  0.65457147  -0.01255361  1
  In  In30  1  0.34739549  0.14769940  0.49606818  1
  In  In31  1  0.82013893  0.49919143  0.01323365  1
  In  In32  1  0.85742105  0.32160411  0.80698780  1
  In  In33  1  0.15808024  0.16976705  0.00569708  1
  In  In34  1  0.32462939  0.48926800  0.17993887  1
  In  In35  1  0.66936584  -0.01189510  -0.00082488  1
  In  In36  1  0.49648835  -0.00843730  0.82866110  1
  In  In37  1  0.15216144  0.67347744  0.50035202  1
  In  In38  1  0.85080902  0.01132233  0.19477381  1
  In  In39  1  0.00681431  0.83673018  0.20017039  1
  In  In40  1  0.52446800  0.66538230  0.50198197  1
  In  In41  1  0.82997267  0.66978089  0.85032992  1
  In  In42  1  0.49581375  0.64748872  0.80864979  1
  In  In43  1  0.80256117  0.63489903  0.52956217  1
  In  In44  1  0.50675335  0.16770983  -0.00027301  1
  In  In45  1  0.67159129  0.83150553  0.83984558  1
  In  In46  1  0.68789411  0.82997709  0.50465390  1
  In  In47  1  0.50614874  0.14928894  0.35207546  1
  In  In48  1  0.13489335  0.86205828  -0.01725526  1
  In  In49  1  0.85090905  0.00762438  0.81130684  1
  In  In50  1  0.83774925  0.84838069  0.68804509  1
  In  In51  1  0.32990031  0.35297407  -0.00232838  1
  In  In52  1  0.00142071  0.66644279  0.66370398  1
  In  In53  1  0.32268145  0.82241533  0.82600307  1
  In  In54  1  0.16238913  0.15806280  0.33556203  1
  In  In55  1  0.81609062  0.32489195  0.14725095  1
  In  In56  1  0.68587745  -0.01694770  0.31764409  1
  In  In57  1  0.33426923  0.66493962  0.32385724  1
  In  In58  1  -0.00883503  0.16933864  0.83025434  1
  In  In59  1  0.32144795  0.16257794  0.14992313  1
  In  In60  1  0.67551226  0.01952096  0.65631509  1
  In  In61  1  0.17875615  0.18061098  0.65990468  1
  In  In62  1  -0.00314960  0.33278544  0.01725510  1
  In  In63  1  0.68019234  0.15527586  0.48479445  1
  In  In64  1  0.31379958  0.14929117  0.83652103  1
  In  In65  1  0.66321767  0.80104017  0.16424590  1
  In  In66  1  0.82225265  0.69858510  0.18043238  1
  In  In67  1  -0.02415025  0.85873287  0.47799045  1
  In  In68  1  0.32876122  0.66145929  0.68117143  1
  In  In69  1  0.48349577  0.81114840  -0.00465656  1
  In  In70  1  0.86112901  0.84015329  0.03739646  1
  In  In71  1  0.01082520  0.49511083  0.80968289  1
  Te  Te72  1  0.08122193  0.09068151  0.10407392  1
  Te  Te73  1  0.09818645  0.06963638  0.43648216  1
  Te  Te74  1  0.10134868  0.09230304  0.75638411  1
  Te  Te75  1  0.08913482  0.43311414  0.07338954  1
  Te  Te76  1  0.08034896  0.43680900  0.40635810  1
  Te  Te77  1  0.03325264  0.37984855  0.72202292  1
  Te  Te78  1  0.08247810  0.75453738  0.08606700  1
  Te  Te79  1  0.07037929  0.76320164  0.41631768  1
  Te  Te80  1  0.08864220  0.72703289  0.76660028  1
  Te  Te81  1  0.40998152  0.07144921  0.06609646  1
  Te  Te82  1  0.42000480  0.04866498  0.41470250  1
  Te  Te83  1  0.41703903  0.08861591  0.74329037  1
  Te  Te84  1  0.43001705  0.42978946  0.08017715  1
  Te  Te85  1  0.40992580  0.42319987  0.39977026  1
  Te  Te86  1  0.42706205  0.43347177  0.73184455  1
  Te  Te87  1  0.41726471  0.72015120  0.09696453  1
  Te  Te88  1  0.41243545  0.75133690  0.42391390  1
  Te  Te89  1  0.42905685  0.76401757  0.73658199  1
  Te  Te90  1  0.75299417  0.07406218  0.09046090  1
  Te  Te91  1  0.77313739  0.06850919  0.40519237  1
  Te  Te92  1  0.74889055  0.09685547  0.75826864  1
  Te  Te93  1  0.71605322  0.43069136  0.09845600  1
  Te  Te94  1  0.75610090  0.42142436  0.43623181  1
  Te  Te95  1  0.77428645  0.41452462  0.72174410  1
  Te  Te96  1  0.74134426  0.74072042  0.04124061  1
  Te  Te97  1  0.78113713  0.74649146  0.42069799  1
  Te  Te98  1  0.74646509  0.74025530  0.74338201  1
  Te  Te99  1  0.09981244  0.25083582  0.24072632  1
  Te  Te100  1  0.07355389  0.24160738  0.57057010  1
  Te  Te101  1  0.07985490  0.26203202  0.91121918  1
  Te  Te102  1  0.05976671  0.59955037  0.26801339  1
  Te  Te103  1  0.07617790  0.57043721  0.57740984  1
  Te  Te104  1  0.08986070  0.54995439  0.92147211  1
  Te  Te105  1  0.09397691  0.92884158  0.28181372  1
  Te  Te106  1  0.08513562  0.90574003  0.57706043  1
  Te  Te107  1  0.04044845  0.93081791  0.89627226  1
  Te  Te108  1  0.41986974  0.23612987  0.24835208  1
  Te  Te109  1  0.43135126  0.23530954  0.59000075  1
  Te  Te110  1  0.41426433  0.25070780  0.91241461  1
  Te  Te111  1  0.42220518  0.57357624  0.25089232  1
  Te  Te112  1  0.41738235  0.58648895  0.58421367  1
  Te  Te113  1  0.40213749  0.58900175  0.91305065  1
  Te  Te114  1  0.41613331  0.90250764  0.25663125  1
  Te  Te115  1  0.41267576  0.91173460  0.56765840  1
  Te  Te116  1  0.40241936  0.91387584  0.91866882  1
  Te  Te117  1  0.74762900  0.23808697  0.24327305  1
  Te  Te118  1  0.76095166  0.25192983  0.56839225  1
  Te  Te119  1  0.75286549  0.25378540  0.90183659  1
  Te  Te120  1  0.76056949  0.57989969  0.25326877  1
  Te  Te121  1  0.68894886  0.56347928  0.58765134  1
  Te  Te122  1  0.73285811  0.57134239  0.91281419  1
  Te  Te123  1  0.76905888  0.88472723  0.23905564  1
  Te  Te124  1  0.77337861  0.93176879  0.57916369  1
  Te  Te125  1  0.77510834  0.91520480  0.91692951  1
  Te  Te126  1  0.24011823  0.27270166  0.08985921  1
  Te  Te127  1  0.25442188  0.25642856  0.43780089  1
  Te  Te128  1  0.25172298  0.26727424  0.76085936  1
  Te  Te129  1  0.24471979  0.57504281  0.07832013  1
  Te  Te130  1  0.23866380  0.58342247  0.40973140  1
  Te  Te131  1  0.22433444  0.58413403  0.74684184  1
  Te  Te132  1  0.24828428  0.91393387  0.07415689  1
  Te  Te133  1  0.20129838  0.93834110  0.39684318  1
  Te  Te134  1  0.23239897  0.92418225  0.75873219  1
  Te  Te135  1  0.59917759  0.24414088  0.08979719  1
  Te  Te136  1  0.58280642  0.26561333  0.41328787  1
  Te  Te137  1  0.59638085  0.24444981  0.74895651  1
  Te  Te138  1  0.64215977  0.65601687  0.11965068  1
  Te  Te139  1  0.59032374  0.56626413  0.41600172  1
  Te  Te140  1  0.60192613  0.58170284  0.72591234  1
  Te  Te141  1  0.57086800  0.90785394  0.08432922  1
  Te  Te142  1  0.59845764  0.93010272  0.43042991  1
  Te  Te143  1  0.59354368  0.91562391  0.74163070  1
  Te  Te144  1  0.92683475  0.22881975  0.10260263  1
  Te  Te145  1  0.90067101  0.25694021  0.40601894  1
  Te  Te146  1  0.91253546  0.21961449  0.71415749  1
  Te  Te147  1  0.90616890  0.60038105  0.08676192  1
  Te  Te148  1  0.91713199  0.57954857  0.45758275  1
  Te  Te149  1  0.90322778  0.58350128  0.74957457  1
  Te  Te150  1  0.95059122  0.94134891  0.10259152  1
  Te  Te151  1  0.90703906  0.96670042  0.39014706  1
  Te  Te152  1  0.96076868  0.90592945  0.76254728  1
  Te  Te153  1  0.27301304  0.07929049  0.26571256  1
  Te  Te154  1  0.24198646  0.07199490  0.57537907  1
  Te  Te155  1  0.23727209  0.07034771  0.93105783  1
  Te  Te156  1  0.21963766  0.42514320  0.26135860  1
  Te  Te157  1  0.23594781  0.43273835  0.60319236  1
  Te  Te158  1  0.23513677  0.41032241  0.90229734  1
  Te  Te159  1  0.23009763  0.75939167  0.26447085  1
  Te  Te160  1  0.26103661  0.75792427  0.57671030  1
  Te  Te161  1  0.21297650  0.75246181  0.90456546  1
  Te  Te162  1  0.59812545  0.08658333  0.24671715  1
  Te  Te163  1  0.58004076  0.08865544  0.56822756  1
  Te  Te164  1  0.59203192  0.08153086  0.90799874  1
  Te  Te165  1  0.58493850  0.43050777  0.25493057  1
  Te  Te166  1  0.58084913  0.43652080  0.57953451  1
  Te  Te167  1  0.56723041  0.43274490  0.91848631  1
  Te  Te168  1  0.56462034  0.72496198  0.25531031  1
  Te  Te169  1  0.59522613  0.75765404  0.59093083  1
  Te  Te170  1  0.57775110  0.73272200  0.90791450  1
  Te  Te171  1  0.94240673  0.07278589  0.29295267  1
  Te  Te172  1  0.90689365  0.08987630  0.59564780  1
  Te  Te173  1  0.92643870  0.07505387  0.93037611  1
  Te  Te174  1  0.90735669  0.40874053  0.24042467  1
  Te  Te175  1  0.96495176  0.43618491  0.60164273  1
  Te  Te176  1  0.90695117  0.41500862  0.92256339  1
  Te  Te177  1  0.93727329  0.72512645  0.26946867  1
  Te  Te178  1  0.91307440  0.76280532  0.58611680  1
  Te  Te179  1  0.92601381  0.76232373  0.92227957  1
