# generated using pymatgen
data_In2Te3
_symmetry_space_group_name_H-M   'P 1'
_cell_length_a   18.99221425
_cell_length_b   18.99106548
_cell_length_c   18.98839457
_cell_angle_alpha   90.04224403
_cell_angle_beta   90.11563055
_cell_angle_gamma   89.93203920
_symmetry_Int_Tables_number   1
_chemical_formula_structural   In2Te3
_chemical_formula_sum   'In72 Te108'
_cell_volume   6848.75881726
_cell_formula_units_Z   36
loop_
 _symmetry_equiv_pos_site_id
 _symmetry_equiv_pos_as_xyz
  1  'x, y, z'
loop_
 _atom_site_type_symbol
 _atom_site_label
 _atom_site_symmetry_multiplicity
 _atom_site_fract_x
 _atom_site_fract_y
 _atom_site_fract_z
 _atom_site_occupancy
  In  In0  1  0.18082898  0.15936196  0.00401851  1
  In  In1  1  0.16881831  0.00688939  0.16134939  1
  In  In2  1  -0.02467294  0.51386717  0.18159268  1
  In  In3  1  0.67648931  0.32039071  0.32974070  1
  In  In4  1  0.67199741  -0.00697848  0.65603173  1
  In  In5  1  0.35807212  0.32298612  0.30105533  1
  In  In6  1  0.00982853  0.00452570  0.00647863  1
  In  In7  1  0.17998078  0.32420610  0.15902067  1
  In  In8  1  0.66414679  0.14389323  0.17986703  1
  In  In9  1  0.15456921  0.17025335  0.31432485  1
  In  In10  1  0.52465650  0.33574394  0.16548887  1
  In  In11  1  -0.00981210  0.85995245  0.50435294  1
  In  In12  1  0.79388734  0.20823944  -0.04366449  1
  In  In13  1  0.50398508  0.17371682  0.67768992  1
  In  In14  1  0.17337855  0.28717084  0.52655222  1
  In  In15  1  0.82324117  -0.01000352  0.18914998  1
  In  In16  1  -0.02392071  0.34291742  0.00737083  1
  In  In17  1  0.51905604  0.69998653  0.48999781  1
  In  In18  1  0.13371692  0.83714296  -0.00077325  1
  In  In19  1  -0.01959807  0.16009586  0.52046257  1
  In  In20  1  0.32465877  0.84729256  0.84429440  1
  In  In21  1  0.34749758  0.13964816  0.45798405  1
  In  In22  1  0.16451231  0.49402313  0.67296522  1
  In  In23  1  0.84272311  0.84324803  0.67921361  1
  In  In24  1  -0.02256788  0.84629664  0.84234146  1
  In  In25  1  0.82220560  0.49703634  0.68175221  1
  In  In26  1  0.32644800  0.85802420  0.50343830  1
  In  In27  1  0.52009701  0.18037322  -0.01377943  1
  In  In28  1  0.32884362  0.48570415  0.84774078  1
  In  In29  1  0.16076787  0.48631825  -0.01813792  1
  In  In30  1  0.14847141  0.83870551  0.67511651  1
  In  In31  1  0.66046798  0.00984403  -0.00781535  1
  In  In32  1  0.67431977  0.81697783  0.80809765  1
  In  In33  1  0.50936693  -0.01660602  0.18803300  1
  In  In34  1  -0.01387093  0.36222787  0.34795784  1
  In  In35  1  0.35313279  0.48811636  0.14716948  1
  In  In36  1  0.50317707  0.51929435  0.31400663  1
  In  In37  1  0.68019214  0.13868996  0.47699391  1
  In  In38  1  0.50731728  0.86042032  0.35552961  1
  In  In39  1  -0.00996641  0.01060038  0.33808319  1
  In  In40  1  0.34697726  0.50531729  0.49464897  1
  In  In41  1  0.79798677  0.80206435  0.02821035  1
  In  In42  1  -0.01691197  0.51295590  0.83602535  1
  In  In43  1  0.50812645  0.64578758  0.84156873  1
  In  In44  1  0.83247067  0.32309340  0.50684720  1
  In  In45  1  0.52581673  0.48391236  0.68611536  1
  In  In46  1  0.17060483  0.64032859  0.50382630  1
  In  In47  1  0.82724562  0.67219286  0.49757068  1
  In  In48  1  0.81727680  0.51630285  0.00773204  1
  In  In49  1  0.56775425  0.65179175  0.14442285  1
  In  In50  1  0.35794200  0.02100875  0.65403897  1
  In  In51  1  0.83566607  0.00452298  0.83427199  1
  In  In52  1  0.34715501  0.00949031  0.00487100  1
  In  In53  1  0.66729438  0.67005325  0.31728677  1
  In  In54  1  0.49788920  0.33636684  0.84890255  1
  In  In55  1  -0.01277475  0.82233021  0.16441356  1
  In  In56  1  -0.01084048  0.69379069  0.32950441  1
  In  In57  1  0.18583628  0.83394564  0.33705645  1
  In  In58  1  0.67137015  0.50429317  0.83920258  1
  In  In59  1  0.01861147  0.15307199  0.82888723  1
  In  In60  1  0.14192117  0.49650504  0.34570306  1
  In  In61  1  0.31257038  0.67067746  0.00001623  1
  In  In62  1  0.51268326  0.33551372  0.52854331  1
  In  In63  1  0.81002229  0.51474764  0.32019488  1
  In  In64  1  0.30799137  0.29829964  0.67872690  1
  In  In65  1  0.50048284  0.82290112  0.65862694  1
  In  In66  1  0.83998404  0.16302328  0.68069682  1
  In  In67  1  0.33081979  0.63984830  0.67463449  1
  In  In68  1  -0.02127126  0.50935177  0.53487470  1
  In  In69  1  0.34815022  0.82616729  0.17746220  1
  In  In70  1  0.17646779  0.31918740  0.82412731  1
  In  In71  1  0.52923733  0.84241054  -0.00388591  1
  Te  Te72  1  0.07168280  0.10661695  0.09837980  1
  Te  Te73  1  0.08232822  0.09589059  0.42270518  1
  Te  Te74  1  0.10528055  0.11517565  0.71738923  1
  Te  Te75  1  0.07634487  0.42202521  0.09824209  1
  Te  Te76  1  0.08056365  0.41348061  0.45770825  1
  Te  Te77  1  0.07618333  0.41160461  0.76087982  1
  Te  Te78  1  0.07394534  0.73590771  0.08465150  1
  Te  Te79  1  0.08974371  0.74758875  0.43139643  1
  Te  Te80  1  0.06501086  0.75871851  0.76226019  1
  Te  Te81  1  0.45319143  0.07946616  0.08466591  1
  Te  Te82  1  0.45136659  0.06556817  0.38853122  1
  Te  Te83  1  0.41876975  0.09509759  0.76686790  1
  Te  Te84  1  0.42312612  0.38664670  0.07189356  1
  Te  Te85  1  0.43227311  0.41341781  0.40801144  1
  Te  Te86  1  0.39935204  0.41460992  0.73261464  1
  Te  Te87  1  0.42188411  0.75816266  0.06284727  1
  Te  Te88  1  0.40426811  0.76077250  0.41477047  1
  Te  Te89  1  0.41141168  0.74076003  0.76438152  1
  Te  Te90  1  0.76226688  0.08163403  0.07582379  1
  Te  Te91  1  0.75281051  0.02965874  0.40450608  1
  Te  Te92  1  0.73071349  0.08473772  0.76216415  1
  Te  Te93  1  0.71514169  0.43988563  0.08127477  1
  Te  Te94  1  0.75090522  0.41805023  0.42207195  1
  Te  Te95  1  0.74187895  0.39718232  0.76140540  1
  Te  Te96  1  0.70465937  0.71028073  0.10040249  1
  Te  Te97  1  0.77089591  0.75154437  0.38586667  1
  Te  Te98  1  0.78260762  0.73069282  0.75542223  1
  Te  Te99  1  0.06760130  0.27588716  0.24982652  1
  Te  Te100  1  0.06687588  0.23872741  0.61554235  1
  Te  Te101  1  0.08089956  0.25882622  0.93446623  1
  Te  Te102  1  0.08050726  0.59881834  0.25255441  1
  Te  Te103  1  0.07325640  0.59903155  0.61296379  1
  Te  Te104  1  0.08090163  0.58750814  0.91520323  1
  Te  Te105  1  0.08218887  0.91429566  0.24544635  1
  Te  Te106  1  0.10242846  0.92635740  0.56851183  1
  Te  Te107  1  0.09070240  0.94170919  0.89695960  1
  Te  Te108  1  0.45861889  0.23111637  0.24907209  1
  Te  Te109  1  0.40117272  0.24142591  0.57147002  1
  Te  Te110  1  0.41176587  0.22791632  0.89571925  1
  Te  Te111  1  0.42922253  0.59968393  0.21318163  1
  Te  Te112  1  0.43801574  0.59294534  0.57815360  1
  Te  Te113  1  0.41305257  0.57508653  0.93576324  1
  Te  Te114  1  0.39469425  0.93140963  0.27507003  1
  Te  Te115  1  0.44432946  0.92839713  0.56646470  1
  Te  Te116  1  0.43495792  0.92616884  0.91173853  1
  Te  Te117  1  0.75763847  0.21760125  0.26598135  1
  Te  Te118  1  0.74155411  0.23016625  0.58220740  1
  Te  Te119  1  0.70532283  0.28347817  0.86768630  1
  Te  Te120  1  0.75145810  0.60030973  0.21324646  1
  Te  Te121  1  0.75457210  0.57126645  0.57350695  1
  Te  Te122  1  0.75599684  0.60365366  0.90531261  1
  Te  Te123  1  0.71293628  0.94599767  0.27883347  1
  Te  Te124  1  0.73918110  0.88508319  0.58146746  1
  Te  Te125  1  0.75069600  0.90593048  0.91201237  1
  Te  Te126  1  0.27017479  0.22018028  0.10662694  1
  Te  Te127  1  0.25425254  0.26230407  0.39796603  1
  Te  Te128  1  0.23320719  0.19655441  0.75758018  1
  Te  Te129  1  0.24019207  0.56891937  0.08393463  1
  Te  Te130  1  0.26190935  0.58276076  0.39726559  1
  Te  Te131  1  0.23532742  0.58130693  0.77589653  1
  Te  Te132  1  0.25269157  0.90871836  0.07830064  1
  Te  Te133  1  0.24584692  0.94241695  0.41450442  1
  Te  Te134  1  0.26391544  0.92201148  0.72989942  1
  Te  Te135  1  0.61717482  0.25034645  0.07985990  1
  Te  Te136  1  0.58449279  0.24908471  0.42785512  1
  Te  Te137  1  0.58898868  0.27352446  0.74895278  1
  Te  Te138  1  0.59402307  0.52499099  0.06531257  1
  Te  Te139  1  0.59064171  0.58671322  0.41765590  1
  Te  Te140  1  0.60244370  0.60268748  0.73363013  1
  Te  Te141  1  0.61196011  0.91352273  0.09999634  1
  Te  Te142  1  0.62939342  0.92517543  0.40916294  1
  Te  Te143  1  0.57608274  0.91591523  0.75115083  1
  Te  Te144  1  0.86890833  0.26416995  0.06820150  1
  Te  Te145  1  0.91515549  0.24221262  0.40970350  1
  Te  Te146  1  0.91521994  0.24255528  0.77746324  1
  Te  Te147  1  0.91698626  0.59919470  0.07985716  1
  Te  Te148  1  0.92595453  0.57352881  0.40773237  1
  Te  Te149  1  0.89843086  0.60220206  0.75304294  1
  Te  Te150  1  0.90595265  0.91669224  0.07391242  1
  Te  Te151  1  0.89845238  0.91776512  0.40528095  1
  Te  Te152  1  0.93502795  0.95057154  0.73563426  1
  Te  Te153  1  0.25760888  0.10153238  0.23353493  1
  Te  Te154  1  0.26185779  0.08494027  0.56187757  1
  Te  Te155  1  0.23690145  0.05521155  0.91800983  1
  Te  Te156  1  0.24826313  0.42566212  0.25694073  1
  Te  Te157  1  0.25315712  0.41770323  0.57501997  1
  Te  Te158  1  0.26120469  0.38262238  0.93429828  1
  Te  Te159  1  0.24574429  0.74383966  0.23989936  1
  Te  Te160  1  0.25729448  0.73720768  0.58506340  1
  Te  Te161  1  0.22620733  0.75339553  0.90778784  1
  Te  Te162  1  0.56083660  0.09293110  0.28158287  1
  Te  Te163  1  0.57828623  0.08547688  0.57929918  1
  Te  Te164  1  0.59550179  0.09418778  0.89275717  1
  Te  Te165  1  0.60744374  0.43195938  0.24932739  1
  Te  Te166  1  0.60980105  0.43071089  0.57957321  1
  Te  Te167  1  0.56863219  0.44068221  0.92857113  1
  Te  Te168  1  0.56260091  0.75987547  0.25534245  1
  Te  Te169  1  0.61387948  0.76356249  0.58373351  1
  Te  Te170  1  0.60291551  0.73664062  0.91687935  1
  Te  Te171  1  0.92452879  0.08667109  0.23104981  1
  Te  Te172  1  0.89401887  0.06342182  0.58698955  1
  Te  Te173  1  0.90963262  0.09732886  0.93011721  1
  Te  Te174  1  0.88598971  0.40818088  0.24224975  1
  Te  Te175  1  0.91706393  0.39510811  0.60896397  1
  Te  Te176  1  0.89131408  0.41997669  0.91061842  1
  Te  Te177  1  0.88467955  0.77067151  0.25844404  1
  Te  Te178  1  0.92300849  0.75133100  0.58372883  1
  Te  Te179  1  0.90866793  0.76065427  0.94024897  1
