# generated using pymatgen
data_In2Te3
_symmetry_space_group_name_H-M   'P 1'
_cell_length_a   18.78198423
_cell_length_b   18.76660631
_cell_length_c   18.76497822
_cell_angle_alpha   89.99803597
_cell_angle_beta   89.97597498
_cell_angle_gamma   90.02093554
_symmetry_Int_Tables_number   1
_chemical_formula_structural   In2Te3
_chemical_formula_sum   'In72 Te108'
_cell_volume   6614.16785440
_cell_formula_units_Z   36
loop_
 _symmetry_equiv_pos_site_id
 _symmetry_equiv_pos_as_xyz
  1  'x, y, z'
loop_
 _atom_site_type_symbol
 _atom_site_label
 _atom_site_symmetry_multiplicity
 _atom_site_fract_x
 _atom_site_fract_y
 _atom_site_fract_z
 _atom_site_occupancy
  In  In0  1  0.01458002  0.32249563  0.67590311  1
  In  In1  1  0.36137589  0.67472335  0.35924470  1
  In  In2  1  0.84791250  0.18012040  0.32301457  1
  In  In3  1  0.19388017  0.80304364  0.65077713  1
  In  In4  1  0.67611648  0.86377852  0.84130922  1
  In  In5  1  0.47068840  0.49822875  0.67823457  1
  In  In6  1  0.35175990  0.02546197  0.02449400  1
  In  In7  1  0.33883273  0.30641387  0.00474412  1
  In  In8  1  -0.02057927  0.83708221  0.15030051  1
  In  In9  1  0.16433677  0.31769109  0.82996718  1
  In  In10  1  0.32203932  0.85676964  0.84266942  1
  In  In11  1  0.01172194  0.66369872  0.32186446  1
  In  In12  1  0.66664994  0.67241407  -0.00008896  1
  In  In13  1  0.82245887  0.83768224  0.00397251  1
  In  In14  1  0.15848120  0.00333975  0.85849951  1
  In  In15  1  0.63794510  0.85192018  0.15293515  1
  In  In16  1  0.65214814  0.84166225  0.48883031  1
  In  In17  1  0.51359129  0.31096358  0.16643210  1
  In  In18  1  0.16747528  0.16065059  0.67332868  1
  In  In19  1  0.17765053  0.46928236  0.65846406  1
  In  In20  1  0.34813966  0.00927725  0.32743714  1
  In  In21  1  0.83860460  0.48325803  0.01527365  1
  In  In22  1  0.02441332  0.48798881  0.49537794  1
  In  In23  1  0.83364997  0.67797833  0.48881312  1
  In  In24  1  0.16124770  0.17119201  0.00620992  1
  In  In25  1  0.80327508  0.52252737  0.29867639  1
  In  In26  1  0.15987623  0.83520554  -0.01161304  1
  In  In27  1  0.64654686  0.14219490  0.88317955  1
  In  In28  1  -0.00119571  0.48689486  0.15705139  1
  In  In29  1  0.49170084  0.16286154  0.32076630  1
  In  In30  1  0.83978021  0.03653607  0.86394178  1
  In  In31  1  0.35114479  0.00114817  0.65635894  1
  In  In32  1  0.83314487  0.32679719  0.86257848  1
  In  In33  1  0.66163453  0.15974285  0.51135008  1
  In  In34  1  0.17365041  0.81935353  0.33752223  1
  In  In35  1  0.81133440  0.84400223  0.66518141  1
  In  In36  1  0.15286013  0.48478138  0.01498781  1
  In  In37  1  0.69498548  0.33085647  0.32338863  1
  In  In38  1  0.36951043  0.85297449  0.15947720  1
  In  In39  1  0.66468093  0.51358567  0.47209664  1
  In  In40  1  0.00311974  0.01687298  0.66444772  1
  In  In41  1  -0.00612801  0.02702836  0.31734264  1
  In  In42  1  0.83403676  0.16419198  0.65909841  1
  In  In43  1  0.00127818  0.84033482  0.84269350  1
  In  In44  1  0.65503281  -0.00692964  0.66051556  1
  In  In45  1  0.15959768  0.64442874  0.84745665  1
  In  In46  1  -0.00686153  0.64222133  0.66381900  1
  In  In47  1  0.17066085  0.17152503  0.31570613  1
  In  In48  1  0.16182295  0.00197093  0.48569815  1
  In  In49  1  0.66650074  0.32693722  0.66634254  1
  In  In50  1  0.15923000  0.01716808  0.17471297  1
  In  In51  1  0.48648274  0.33152742  0.50380379  1
  In  In52  1  0.30293113  0.46993058  0.18605967  1
  In  In53  1  0.50208923  0.16464664  0.66598861  1
  In  In54  1  0.16696074  0.65672885  0.17301852  1
  In  In55  1  0.36388637  0.48811307  0.83186595  1
  In  In56  1  0.35025312  0.65279863  0.64534324  1
  In  In57  1  0.00439058  0.83838572  0.46999814  1
  In  In58  1  0.84779168  0.51255065  0.65896567  1
  In  In59  1  0.50723868  0.50373211  0.33112752  1
  In  In60  1  0.83827076  0.30916219  0.14757570  1
  In  In61  1  0.83368338  0.68689357  0.81650765  1
  In  In62  1  0.49097503  0.34614205  0.85334285  1
  In  In63  1  0.01473567  0.32291263  0.33012659  1
  In  In64  1  0.32096105  0.48902624  0.49619628  1
  In  In65  1  0.51939907  0.49672108  0.00516773  1
  In  In66  1  0.50506826  0.68124570  0.16311130  1
  In  In67  1  0.82358965  0.85147347  0.31455108  1
  In  In68  1  0.51019926  0.67722644  0.83642242  1
  In  In69  1  0.51696472  0.83604735  0.66349798  1
  In  In70  1  0.65770391  0.00158585  0.32173821  1
  In  In71  1  0.64306804  0.48786295  0.84313618  1
  Te  Te72  1  0.06539911  0.08804757  0.08727409  1
  Te  Te73  1  0.07463339  0.10663027  0.41917645  1
  Te  Te74  1  0.06905962  0.09588305  0.77498880  1
  Te  Te75  1  0.09661637  0.38364126  0.11017319  1
  Te  Te76  1  0.11581941  0.39885579  0.41519054  1
  Te  Te77  1  0.07850519  0.42914782  0.76569138  1
  Te  Te78  1  0.07940308  0.74316257  0.08084652  1
  Te  Te79  1  0.09852576  0.72534651  0.43197289  1
  Te  Te80  1  0.08242526  0.74786724  0.75109871  1
  Te  Te81  1  0.46251003  0.09099427  0.10466896  1
  Te  Te82  1  0.41003249  0.10001328  0.42801490  1
  Te  Te83  1  0.42229761  0.07894917  0.75860704  1
  Te  Te84  1  0.41698976  0.41849588  0.08701277  1
  Te  Te85  1  0.41040543  0.40580670  0.39552701  1
  Te  Te86  1  0.39865122  0.37697551  0.73159010  1
  Te  Te87  1  0.41958966  0.75115672  0.06506501  1
  Te  Te88  1  0.41300069  0.77221271  0.45661880  1
  Te  Te89  1  0.40504920  0.75235436  0.75073731  1
  Te  Te90  1  0.71144322  0.13764799  0.07022055  1
  Te  Te91  1  0.74737978  0.09060854  0.40665955  1
  Te  Te92  1  0.73788555  0.08542841  0.75143375  1
  Te  Te93  1  0.73959009  0.40327003  0.08929489  1
  Te  Te94  1  0.77228256  0.42285413  0.41745299  1
  Te  Te95  1  0.75753200  0.41703322  0.75206334  1
  Te  Te96  1  0.74828966  0.74878880  0.10370527  1
  Te  Te97  1  0.74054034  0.75233082  0.39608403  1
  Te  Te98  1  0.71756523  0.75182541  0.74200550  1
  Te  Te99  1  0.07908516  0.24492585  0.22080332  1
  Te  Te100  1  0.09296386  0.24613913  0.57796052  1
  Te  Te101  1  0.06836936  0.26415090  0.93091470  1
  Te  Te102  1  0.09564025  0.55420629  0.25997927  1
  Te  Te103  1  0.10735364  0.58407328  0.58215881  1
  Te  Te104  1  0.06672773  0.58214499  0.94248729  1
  Te  Te105  1  0.07683730  0.90473655  0.25633146  1
  Te  Te106  1  0.08531239  0.91205101  0.58629211  1
  Te  Te107  1  0.05362149  0.93792580  0.94787909  1
  Te  Te108  1  0.40251028  0.25811775  0.24915746  1
  Te  Te109  1  0.40520652  0.23158769  0.57485709  1
  Te  Te110  1  0.42530967  0.22923001  0.91459906  1
  Te  Te111  1  0.40878718  0.57749439  0.23695967  1
  Te  Te112  1  0.44000191  0.57449170  0.55098592  1
  Te  Te113  1  0.42520720  0.58998860  0.92903959  1
  Te  Te114  1  0.44965009  0.91343404  0.26939317  1
  Te  Te115  1  0.41291331  0.89417122  0.57102349  1
  Te  Te116  1  0.41516117  0.91949017  0.93802346  1
  Te  Te117  1  0.73126740  0.21997550  0.22497150  1
  Te  Te118  1  0.76079402  0.26342618  0.56597688  1
  Te  Te119  1  0.76179685  0.22134484  0.94919367  1
  Te  Te120  1  0.71401341  0.60636458  0.22113155  1
  Te  Te121  1  0.74611108  0.59363290  0.58179952  1
  Te  Te122  1  0.74733524  0.58366424  0.90425571  1
  Te  Te123  1  0.75114745  0.94140436  0.21628089  1
  Te  Te124  1  0.75468374  0.93535845  0.55952884  1
  Te  Te125  1  0.74002863  0.95397832  0.94630989  1
  Te  Te126  1  0.24392995  0.25138090  0.10262519  1
  Te  Te127  1  0.24779415  0.27392802  0.39117443  1
  Te  Te128  1  0.26316668  0.23560148  0.75929640  1
  Te  Te129  1  0.25849587  0.57563048  0.08221305  1
  Te  Te130  1  0.25489468  0.58217181  0.40178106  1
  Te  Te131  1  0.25960036  0.57706466  0.74912451  1
  Te  Te132  1  0.24334253  0.92059795  0.08602870  1
  Te  Te133  1  0.26326960  0.91350498  0.41561402  1
  Te  Te134  1  0.22789161  0.92776100  0.74282306  1
  Te  Te135  1  0.58283354  0.22168130  0.06515990  1
  Te  Te136  1  0.59100990  0.25687804  0.41093180  1
  Te  Te137  1  0.59194396  0.24703135  0.77047662  1
  Te  Te138  1  0.61092661  0.57075371  0.10407697  1
  Te  Te139  1  0.58319313  0.61156490  0.39908513  1
  Te  Te140  1  0.58235478  0.58286846  0.74009079  1
  Te  Te141  1  0.55271086  0.94512107  0.07199173  1
  Te  Te142  1  0.55988244  0.92320869  0.40374462  1
  Te  Te143  1  0.56261266  0.93747495  0.76915202  1
  Te  Te144  1  0.92893190  0.24414699  0.04852147  1
  Te  Te145  1  0.92497975  0.25334755  0.42514157  1
  Te  Te146  1  0.91472157  0.24321060  0.76153494  1
  Te  Te147  1  0.90907476  0.58614465  0.09451123  1
  Te  Te148  1  0.92213349  0.57724394  0.41528993  1
  Te  Te149  1  0.92518951  0.56864640  0.77867974  1
  Te  Te150  1  0.89744926  0.93959433  0.08360311  1
  Te  Te151  1  0.90740354  0.93669614  0.41036270  1
  Te  Te152  1  0.89952543  0.92415408  0.76342753  1
  Te  Te153  1  0.27573662  0.09879699  0.22767753  1
  Te  Te154  1  0.25599966  0.08633482  0.57013362  1
  Te  Te155  1  0.26401390  0.09367591  0.91878909  1
  Te  Te156  1  0.22914184  0.38505569  0.28485511  1
  Te  Te157  1  0.25640928  0.37903437  0.57400714  1
  Te  Te158  1  0.25762142  0.41736366  0.91695690  1
  Te  Te159  1  0.26860618  0.75298522  0.23924382  1
  Te  Te160  1  0.27609556  0.73765986  0.54372141  1
  Te  Te161  1  0.25642697  0.73943280  0.91974661  1
  Te  Te162  1  0.56805204  0.07594596  0.22277364  1
  Te  Te163  1  0.55840686  0.06182247  0.56456470  1
  Te  Te164  1  0.55345621  0.05769377  0.96310977  1
  Te  Te165  1  0.59680638  0.41516984  0.24277483  1
  Te  Te166  1  0.58570820  0.42354334  0.58048970  1
  Te  Te167  1  0.60846314  0.38472840  0.94857756  1
  Te  Te168  1  0.57508015  0.76862870  0.25981862  1
  Te  Te169  1  0.59621629  0.74176188  0.58298781  1
  Te  Te170  1  0.58174584  0.77647580  0.92776928  1
  Te  Te171  1  0.90779387  0.09243528  0.21819170  1
  Te  Te172  1  0.91552576  0.08222174  0.56704292  1
  Te  Te173  1  0.92405786  0.12594840  0.94528108  1
  Te  Te174  1  0.90092792  0.41301007  0.25388269  1
  Te  Te175  1  0.92611300  0.40835003  0.58158059  1
  Te  Te176  1  0.93730169  0.40011992  0.93944749  1
  Te  Te177  1  0.90650487  0.74053696  0.24531559  1
  Te  Te178  1  0.92069154  0.75948568  0.59231474  1
  Te  Te179  1  0.91892661  0.74449473  0.92935188  1
