# generated using pymatgen
data_In2Te3
_symmetry_space_group_name_H-M   'P 1'
_cell_length_a   18.98248166
_cell_length_b   18.98996641
_cell_length_c   18.96394191
_cell_angle_alpha   89.86472470
_cell_angle_beta   90.06359551
_cell_angle_gamma   90.02803190
_symmetry_Int_Tables_number   1
_chemical_formula_structural   In2Te3
_chemical_formula_sum   'In72 Te108'
_cell_volume   6836.03491864
_cell_formula_units_Z   36
loop_
 _symmetry_equiv_pos_site_id
 _symmetry_equiv_pos_as_xyz
  1  'x, y, z'
loop_
 _atom_site_type_symbol
 _atom_site_label
 _atom_site_symmetry_multiplicity
 _atom_site_fract_x
 _atom_site_fract_y
 _atom_site_fract_z
 _atom_site_occupancy
  In  In0  1  0.65477205  0.34643871  0.30516988  1
  In  In1  1  0.48862356  0.62904451  0.85725408  1
  In  In2  1  0.83242193  0.67765880  0.83933462  1
  In  In3  1  0.68605669  0.16545079  0.81652511  1
  In  In4  1  0.04058173  0.32085978  -0.03116615  1
  In  In5  1  0.66056336  0.18587410  0.51637879  1
  In  In6  1  0.60853018  0.80274982  0.15263263  1
  In  In7  1  0.65238669  0.63888282  0.01785917  1
  In  In8  1  0.64427866  -0.01034671  0.67932461  1
  In  In9  1  0.52523012  0.18172118  -0.00787832  1
  In  In10  1  0.32635552  0.33543783  -0.00586510  1
  In  In11  1  -0.00337466  0.49143197  0.46457307  1
  In  In12  1  0.67225145  -0.04315087  0.35605784  1
  In  In13  1  0.83564461  0.50028427  0.31879403  1
  In  In14  1  0.52200210  0.00763592  0.14475683  1
  In  In15  1  0.00407968  0.32168411  0.67520693  1
  In  In16  1  0.17308618  0.83885979  0.69333357  1
  In  In17  1  0.48947296  0.15250584  0.30470859  1
  In  In18  1  0.47601109  0.35116106  0.46443568  1
  In  In19  1  0.17331555  0.49922358  0.68683790  1
  In  In20  1  0.18422411  0.83935891  0.35617818  1
  In  In21  1  0.34810514  0.81898669  0.11388821  1
  In  In22  1  0.15940380  0.69058369  0.51994587  1
  In  In23  1  0.32479920  0.15531318  0.50422563  1
  In  In24  1  0.69784305  -0.00287318  -0.00007609  1
  In  In25  1  0.59597841  0.75909531  0.47868728  1
  In  In26  1  0.33601020  -0.01189762  0.33644666  1
  In  In27  1  0.43668345  0.39762866  0.18867435  1
  In  In28  1  0.01214671  0.32740384  0.31209980  1
  In  In29  1  0.65767630  0.35591766  -0.00572881  1
  In  In30  1  0.35647326  -0.00984728  0.66652031  1
  In  In31  1  0.18139795  0.18219398  0.33037307  1
  In  In32  1  0.33015611  0.65455493  0.68580009  1
  In  In33  1  0.33043266  0.77946511  0.88045709  1
  In  In34  1  0.85384981  -0.00699344  0.20333693  1
  In  In35  1  0.00600251  0.81073218  0.15729345  1
  In  In36  1  0.31190326  0.50549665  0.49605654  1
  In  In37  1  -0.00496255  0.51675018  0.86555651  1
  In  In38  1  0.84666256  0.33243286  0.48415894  1
  In  In39  1  0.00043582  0.84866583  0.52143288  1
  In  In40  1  0.31235721  0.16271530  0.82873075  1
  In  In41  1  0.16448817  -0.01407891  0.14816808  1
  In  In42  1  0.18687645  0.64918289  0.16317078  1
  In  In43  1  0.83735029  0.12001013  0.31748699  1
  In  In44  1  0.49547060  0.16624929  0.68344090  1
  In  In45  1  0.87428766  0.17887579  -0.02418334  1
  In  In46  1  0.50658773  0.35851055  0.82099073  1
  In  In47  1  0.77233508  0.79930962  0.32691048  1
  In  In48  1  0.17607341  0.50001044  -0.00842788  1
  In  In49  1  0.47415502  0.80853540  0.31444416  1
  In  In50  1  0.68651380  0.18111951  0.14891414  1
  In  In51  1  0.83262368  -0.01315944  0.52646479  1
  In  In52  1  0.00410024  0.66983174  0.67644485  1
  In  In53  1  0.80600625  0.37833764  0.80535810  1
  In  In54  1  0.33050675  0.32049664  0.69084888  1
  In  In55  1  0.83442916  0.65811496  0.16878354  1
  In  In56  1  0.00530086  0.00334042  0.35651174  1
  In  In57  1  0.63843473  0.56930743  0.54199406  1
  In  In58  1  0.33082761  0.65826973  0.31284614  1
  In  In59  1  0.32793210  0.18233244  0.14057008  1
  In  In60  1  0.02131811  0.00905722  -0.02419862  1
  In  In61  1  0.17240382  0.00676086  0.83423829  1
  In  In62  1  0.84669410  0.17772947  0.64650987  1
  In  In63  1  0.83845492  0.83261904  -0.00731403  1
  In  In64  1  0.00575411  -0.00344846  0.69482262  1
  In  In65  1  0.49551998  0.49311482  0.65610610  1
  In  In66  1  0.17413447  0.48512057  0.30656983  1
  In  In67  1  0.04458850  0.18557337  0.49240727  1
  In  In68  1  0.83521597  0.51079909  0.01769606  1
  In  In69  1  0.84974886  0.33449466  0.13994077  1
  In  In70  1  0.82947784  0.83521799  0.66760032  1
  In  In71  1  0.65795012  0.81576716  0.81463984  1
  Te  Te72  1  0.11263865  0.09161248  0.05829444  1
  Te  Te73  1  0.11988446  0.07430386  0.42362688  1
  Te  Te74  1  0.07460157  0.10539030  0.77059818  1
  Te  Te75  1  0.06683351  0.42875147  0.06192295  1
  Te  Te76  1  0.10259421  0.39917878  0.41110895  1
  Te  Te77  1  0.06759213  0.42612163  0.76571713  1
  Te  Te78  1  0.11448849  0.75061364  0.07683652  1
  Te  Te79  1  0.07106886  0.76042502  0.41822529  1
  Te  Te80  1  0.05939785  0.77490705  0.76518883  1
  Te  Te81  1  0.42549011  0.09243014  0.06454104  1
  Te  Te82  1  0.42616197  0.07809521  0.42009924  1
  Te  Te83  1  0.42476541  0.07399012  0.77795494  1
  Te  Te84  1  0.43451385  0.42524878  0.04160219  1
  Te  Te85  1  0.40548882  0.45692869  0.39195353  1
  Te  Te86  1  0.39505564  0.44048198  0.75844516  1
  Te  Te87  1  0.43374897  0.69714925  0.08117225  1
  Te  Te88  1  0.38244980  0.75136350  0.41394150  1
  Te  Te89  1  0.42671614  0.73703468  0.76674554  1
  Te  Te90  1  0.78522925  0.08546060  0.08730226  1
  Te  Te91  1  0.74581055  0.08350067  0.43830803  1
  Te  Te92  1  0.76494578  0.07539593  0.72413735  1
  Te  Te93  1  0.73690288  0.42892614  0.10154368  1
  Te  Te94  1  0.74541073  0.41409183  0.40653214  1
  Te  Te95  1  0.70080343  0.46028692  0.74252951  1
  Te  Te96  1  0.73984513  0.75351051  0.07903080  1
  Te  Te97  1  0.74054533  0.73336440  0.45306369  1
  Te  Te98  1  0.74115492  0.72620731  0.72585845  1
  Te  Te99  1  0.12080799  0.27153491  0.22921766  1
  Te  Te100  1  0.10967508  0.24829426  0.60559016  1
  Te  Te101  1  0.09040055  0.22208991  0.87453052  1
  Te  Te102  1  0.08686046  0.58722030  0.25109665  1
  Te  Te103  1  0.08293625  0.57433075  0.58092144  1
  Te  Te104  1  0.10916348  0.60389848  0.90244790  1
  Te  Te105  1  0.08067649  0.91157627  0.25619993  1
  Te  Te106  1  0.10158142  0.93201377  0.59533686  1
  Te  Te107  1  0.09459688  0.90402797  0.90583608  1
  Te  Te108  1  0.39893192  0.25767287  0.25162994  1
  Te  Te109  1  0.42954678  0.26538400  0.58725332  1
  Te  Te110  1  0.42778701  0.25072235  0.89811481  1
  Te  Te111  1  0.43473923  0.61718295  0.21146074  1
  Te  Te112  1  0.40992812  0.58957100  0.57484483  1
  Te  Te113  1  0.35922909  0.63141416  0.94049454  1
  Te  Te114  1  0.42251919  0.92495856  0.22350168  1
  Te  Te115  1  0.46702345  0.89318815  0.61970781  1
  Te  Te116  1  0.39722675  0.87061710  0.97742863  1
  Te  Te117  1  0.77423085  0.25229736  0.25237557  1
  Te  Te118  1  0.75000858  0.28118248  0.59166825  1
  Te  Te119  1  0.74523452  0.25061255  0.92988076  1
  Te  Te120  1  0.73735248  0.58258915  0.24625069  1
  Te  Te121  1  0.75549554  0.52388845  0.61506273  1
  Te  Te122  1  0.74585050  0.57722489  0.91569701  1
  Te  Te123  1  0.72602254  0.90327825  0.22484909  1
  Te  Te124  1  0.72116571  0.90204674  0.58150401  1
  Te  Te125  1  0.75576313  0.90868337  0.89136926  1
  Te  Te126  1  0.22744597  0.27581977  0.08636412  1
  Te  Te127  1  0.26694334  0.25932218  0.42090700  1
  Te  Te128  1  0.22360495  0.27846593  0.79050748  1
  Te  Te129  1  0.26465690  0.53520329  0.10709139  1
  Te  Te130  1  0.22246272  0.59866478  0.41107650  1
  Te  Te131  1  0.21522702  0.61374865  0.77075762  1
  Te  Te132  1  0.25564260  0.91942368  0.05144844  1
  Te  Te133  1  0.27175983  0.91479678  0.44599476  1
  Te  Te134  1  0.27988510  0.90739060  0.77571884  1
  Te  Te135  1  0.57755013  0.27236648  0.10170165  1
  Te  Te136  1  0.58078690  0.24469088  0.39937072  1
  Te  Te137  1  0.59699681  0.26287841  0.74226368  1
  Te  Te138  1  0.54423152  0.58342330  0.10303168  1
  Te  Te139  1  0.56913862  0.62248930  0.42430403  1
  Te  Te140  1  0.57891815  0.57443686  0.74959329  1
  Te  Te141  1  0.58146822  0.90890089  0.04663128  1
  Te  Te142  1  0.55206423  0.89755506  0.41494373  1
  Te  Te143  1  0.55431891  0.91278698  0.76904024  1
  Te  Te144  1  0.95635976  0.24562659  0.08085576  1
  Te  Te145  1  0.92721980  0.22985768  0.40664024  1
  Te  Te146  1  0.89544544  0.26223257  0.76328918  1
  Te  Te147  1  0.93220477  0.61029044  0.06811919  1
  Te  Te148  1  0.90570476  0.59027229  0.41164143  1
  Te  Te149  1  0.91150077  0.57819387  0.75432846  1
  Te  Te150  1  0.92577745  0.91829741  0.08505324  1
  Te  Te151  1  0.90156012  0.91022507  0.41580656  1
  Te  Te152  1  0.93120008  0.88768342  0.76111178  1
  Te  Te153  1  0.26046983  0.07772049  0.23922795  1
  Te  Te154  1  0.26380654  0.09349881  0.62139163  1
  Te  Te155  1  0.23978326  0.09256553  0.93647434  1
  Te  Te156  1  0.29474895  0.44003983  0.23436990  1
  Te  Te157  1  0.24848739  0.40812886  0.59235611  1
  Te  Te158  1  0.24595879  0.41084803  0.89433925  1
  Te  Te159  1  0.25328996  0.77410323  0.23741350  1
  Te  Te160  1  0.26416588  0.76298018  0.59901044  1
  Te  Te161  1  0.23141003  0.71170699  0.97235504  1
  Te  Te162  1  0.61050519  0.08235076  0.24440211  1
  Te  Te163  1  0.57102540  0.08280931  0.58187735  1
  Te  Te164  1  0.60366427  0.08021257  0.91144132  1
  Te  Te165  1  0.55463885  0.44388272  0.26406824  1
  Te  Te166  1  0.57807597  0.42532501  0.54702069  1
  Te  Te167  1  0.56122155  0.44722319  0.92785250  1
  Te  Te168  1  0.58324939  0.71721152  0.26956031  1
  Te  Te169  1  0.53981807  0.76510653  0.61560564  1
  Te  Te170  1  0.58404660  0.73126683  0.91831952  1
  Te  Te171  1  0.96567744  0.09369121  0.24014906  1
  Te  Te172  1  0.94095939  0.08317314  0.57383258  1
  Te  Te173  1  0.91054955  0.06454184  0.89600429  1
  Te  Te174  1  0.93233179  0.42579090  0.22882682  1
  Te  Te175  1  0.92950302  0.41604252  0.57837875  1
  Te  Te176  1  0.89889160  0.40866523  0.92300453  1
  Te  Te177  1  0.90386539  0.76008494  0.25695436  1
  Te  Te178  1  0.91091869  0.74072123  0.57985523  1
  Te  Te179  1  0.92787440  0.72650080  0.94234473  1
