# generated using pymatgen
data_In2Te3
_symmetry_space_group_name_H-M   'P 1'
_cell_length_a   18.93174264
_cell_length_b   18.91898749
_cell_length_c   18.93025633
_cell_angle_alpha   89.96797547
_cell_angle_beta   89.95438538
_cell_angle_gamma   89.82789289
_symmetry_Int_Tables_number   1
_chemical_formula_structural   In2Te3
_chemical_formula_sum   'In72 Te108'
_cell_volume   6780.20480644
_cell_formula_units_Z   36
loop_
 _symmetry_equiv_pos_site_id
 _symmetry_equiv_pos_as_xyz
  1  'x, y, z'
loop_
 _atom_site_type_symbol
 _atom_site_label
 _atom_site_symmetry_multiplicity
 _atom_site_fract_x
 _atom_site_fract_y
 _atom_site_fract_z
 _atom_site_occupancy
  In  In0  1  0.80519681  -0.02263389  0.83185985  1
  In  In1  1  0.47309791  0.01688139  0.48256203  1
  In  In2  1  0.01542961  0.00306192  0.65124092  1
  In  In3  1  0.15868867  0.82093678  0.65611892  1
  In  In4  1  0.62012207  0.81047458  0.13639089  1
  In  In5  1  0.34403556  -0.01451994  0.00117427  1
  In  In6  1  0.53359756  0.50808021  0.66877315  1
  In  In7  1  0.17499257  0.64519323  0.86410713  1
  In  In8  1  -0.00774712  0.63317959  0.05479118  1
  In  In9  1  0.66171234  0.33320452  -0.00982901  1
  In  In10  1  0.36058813  0.70034813  0.04125091  1
  In  In11  1  0.79002872  0.80038470  0.35886375  1
  In  In12  1  0.48151619  0.85002915  0.30533981  1
  In  In13  1  0.81928003  0.17785661  0.02445949  1
  In  In14  1  0.66238589  0.14947306  0.82390944  1
  In  In15  1  0.51728558  0.51019628  -0.01778019  1
  In  In16  1  0.32723194  0.83685842  0.50188567  1
  In  In17  1  0.67233681  0.82477383  0.83376011  1
  In  In18  1  -0.00038339  0.65786153  0.65114425  1
  In  In19  1  0.16847566  0.00494734  0.83479063  1
  In  In20  1  0.82578376  0.16425861  0.36010311  1
  In  In21  1  0.68124428  0.65290434  -0.00876644  1
  In  In22  1  0.68488692  0.50038674  0.17252837  1
  In  In23  1  0.17064465  0.16936526  0.32313293  1
  In  In24  1  -0.00777351  0.18442307  0.84093334  1
  In  In25  1  0.64747039  -0.00383944  0.31753296  1
  In  In26  1  0.01405161  0.33178259  0.67656512  1
  In  In27  1  0.82661934  0.00651600  0.16599451  1
  In  In28  1  0.32994574  0.34863838  0.66134476  1
  In  In29  1  0.50884663  0.83539641  0.65560062  1
  In  In30  1  0.01578928  0.18441081  0.14988333  1
  In  In31  1  0.21958222  0.05791860  0.49709612  1
  In  In32  1  0.00538374  0.83249530  0.85556788  1
  In  In33  1  0.34185583  0.20137284  0.81907767  1
  In  In34  1  -0.00507944  0.05173606  0.02095127  1
  In  In35  1  -0.00649338  0.19726120  0.48996318  1
  In  In36  1  0.17190040  0.50268421  0.32192279  1
  In  In37  1  -0.01498093  0.45340007  0.83395614  1
  In  In38  1  0.31869309  0.50535270  0.16602660  1
  In  In39  1  0.00206788  0.63552210  0.31350360  1
  In  In40  1  0.19132812  0.84889983  0.01939247  1
  In  In41  1  0.67527790  0.35035770  0.66119464  1
  In  In42  1  0.81835124  0.84165218  -0.00623558  1
  In  In43  1  0.33459927  0.32441438  -0.02199601  1
  In  In44  1  0.84414312  -0.01757851  0.52356516  1
  In  In45  1  0.46788426  0.32161337  0.17117273  1
  In  In46  1  0.18758682  0.82552225  0.33639721  1
  In  In47  1  0.34196275  0.14995530  0.15286034  1
  In  In48  1  0.51779327  0.64022556  0.48899669  1
  In  In49  1  0.35011296  0.50253210  0.84093397  1
  In  In50  1  0.80449079  0.52859924  0.64827363  1
  In  In51  1  0.16554402  0.18636294  -0.00517137  1
  In  In52  1  0.83553112  0.32866675  0.50106064  1
  In  In53  1  0.83685334  0.48374854  0.32558557  1
  In  In54  1  0.63961150  0.15525541  0.19671974  1
  In  In55  1  0.15270481  0.48151418  0.03686197  1
  In  In56  1  0.49717317  0.01819940  0.82437270  1
  In  In57  1  0.64672249  0.18529608  0.50236152  1
  In  In58  1  0.66931562  0.33940807  0.33630318  1
  In  In59  1  0.18369642  0.33427549  0.48260506  1
  In  In60  1  0.46039277  0.47539652  0.34279080  1
  In  In61  1  0.34852019  0.67991931  0.65254927  1
  In  In62  1  0.80850911  0.82009938  0.69307169  1
  In  In63  1  -0.00169840  0.81506969  0.17824166  1
  In  In64  1  0.01041537  -0.00530338  0.32117513  1
  In  In65  1  -0.00898110  0.80985682  0.48230999  1
  In  In66  1  0.01047075  0.50338145  0.49685554  1
  In  In67  1  0.49715238  0.18114407  0.64968242  1
  In  In68  1  0.86353457  0.32860211  0.16154607  1
  In  In69  1  0.81393043  0.66466582  0.83021406  1
  In  In70  1  0.35202165  0.83288831  0.80263321  1
  In  In71  1  0.32311632  0.65507576  0.33658331  1
  Te  Te72  1  0.12002987  0.08067452  0.09730371  1
  Te  Te73  1  0.07292310  0.08008225  0.42774026  1
  Te  Te74  1  0.08317341  0.09593258  0.74902200  1
  Te  Te75  1  0.07357534  0.39409771  0.12279272  1
  Te  Te76  1  0.07856976  0.40943472  0.40133225  1
  Te  Te77  1  0.08885502  0.44525242  0.73295198  1
  Te  Te78  1  0.08901641  0.74806444  0.07595215  1
  Te  Te79  1  0.08903966  0.72910725  0.40222698  1
  Te  Te80  1  0.09083285  0.74002572  0.76749471  1
  Te  Te81  1  0.44051524  0.07628687  0.06811563  1
  Te  Te82  1  0.44088131  0.11840780  0.37956521  1
  Te  Te83  1  0.39345260  0.08746432  0.72800699  1
  Te  Te84  1  0.41532490  0.42717221  0.06933429  1
  Te  Te85  1  0.46475822  0.37661844  0.45351116  1
  Te  Te86  1  0.43396564  0.41790341  0.75009275  1
  Te  Te87  1  0.46923449  0.78411871  0.10127055  1
  Te  Te88  1  0.41598724  0.74707295  0.41985164  1
  Te  Te89  1  0.45339181  0.72735550  0.75390035  1
  Te  Te90  1  0.71961444  0.08038511  0.08883652  1
  Te  Te91  1  0.74034854  0.06191560  0.42463018  1
  Te  Te92  1  0.74815261  0.06899212  0.73474655  1
  Te  Te93  1  0.76037777  0.40725393  0.08076271  1
  Te  Te94  1  0.74077171  0.42651476  0.43576974  1
  Te  Te95  1  0.74640215  0.44219896  0.75210480  1
  Te  Te96  1  0.75510939  0.74501430  0.08907146  1
  Te  Te97  1  0.73554730  0.72519735  0.47308232  1
  Te  Te98  1  0.69994066  0.70354528  0.73494188  1
  Te  Te99  1  0.09018891  0.26764846  0.24599948  1
  Te  Te100  1  0.09966487  0.24994515  0.58230959  1
  Te  Te101  1  0.11136810  0.26326772  0.88072694  1
  Te  Te102  1  0.11406186  0.59980514  0.22564952  1
  Te  Te103  1  0.10182524  0.58250483  0.58018472  1
  Te  Te104  1  0.06368521  0.56842354  0.93595766  1
  Te  Te105  1  0.10104495  0.90976840  0.23798678  1
  Te  Te106  1  0.08459680  0.90679091  0.55506571  1
  Te  Te107  1  0.08062527  0.93455556  0.94075183  1
  Te  Te108  1  0.38808144  0.24018249  0.26477178  1
  Te  Te109  1  0.41075955  0.26561392  0.56318778  1
  Te  Te110  1  0.44262300  0.24564257  0.91634670  1
  Te  Te111  1  0.42151207  0.58650511  0.24183616  1
  Te  Te112  1  0.42069075  0.56896069  0.58016051  1
  Te  Te113  1  0.41396980  0.61042795  0.93045582  1
  Te  Te114  1  0.37165139  0.92979285  0.24834267  1
  Te  Te115  1  0.40623468  0.92671250  0.59207485  1
  Te  Te116  1  0.43495263  0.90584297  0.90721401  1
  Te  Te117  1  0.75883292  0.24697826  0.24259579  1
  Te  Te118  1  0.75632790  0.23780397  0.59153732  1
  Te  Te119  1  0.75383467  0.24471426  0.90648168  1
  Te  Te120  1  0.73803992  0.58358848  0.28222371  1
  Te  Te121  1  0.71009556  0.59930730  0.56131068  1
  Te  Te122  1  0.76190151  0.55625557  0.91391618  1
  Te  Te123  1  0.75168814  0.90666960  0.25005403  1
  Te  Te124  1  0.74243576  0.90491885  0.59369873  1
  Te  Te125  1  0.71037227  0.93199035  0.94143485  1
  Te  Te126  1  0.25350553  0.26384522  0.08914486  1
  Te  Te127  1  0.25266673  0.20181435  0.44623901  1
  Te  Te128  1  0.23570141  0.28343892  0.75805043  1
  Te  Te129  1  0.25109159  0.59962169  0.06686919  1
  Te  Te130  1  0.26967758  0.54911537  0.42498205  1
  Te  Te131  1  0.26559128  0.59505483  0.75343538  1
  Te  Te132  1  0.28949948  0.90445285  0.11728191  1
  Te  Te133  1  0.26145028  0.93940450  0.41192708  1
  Te  Te134  1  0.24457843  0.91826228  0.73446896  1
  Te  Te135  1  0.58206832  0.25457997  0.09653149  1
  Te  Te136  1  0.57173035  0.23660406  0.38627566  1
  Te  Te137  1  0.58669644  0.25614917  0.74406250  1
  Te  Te138  1  0.58669045  0.58569264  0.09348663  1
  Te  Te139  1  0.57474608  0.56262365  0.37761432  1
  Te  Te140  1  0.57875610  0.60971138  0.76432740  1
  Te  Te141  1  0.52573461  0.92639466  0.13565036  1
  Te  Te142  1  0.56851959  0.91651087  0.41914328  1
  Te  Te143  1  0.59009574  0.92302622  0.74865439  1
  Te  Te144  1  0.94396969  0.27421495  0.03772742  1
  Te  Te145  1  0.92029999  0.27891070  0.38344630  1
  Te  Te146  1  0.90872945  0.25584536  0.74564964  1
  Te  Te147  1  0.88838470  0.56153479  0.12411730  1
  Te  Te148  1  0.90663802  0.58263574  0.42084189  1
  Te  Te149  1  0.92015910  0.58127127  0.75325039  1
  Te  Te150  1  0.92191213  0.91578496  0.08805902  1
  Te  Te151  1  0.90963187  0.91184420  0.39980523  1
  Te  Te152  1  0.93300758  0.91558045  0.74898526  1
  Te  Te153  1  0.24996604  0.07384919  0.24356426  1
  Te  Te154  1  0.27851929  0.09852795  0.62252946  1
  Te  Te155  1  0.26510366  0.09130215  0.91420624  1
  Te  Te156  1  0.27740068  0.41028116  0.27041185  1
  Te  Te157  1  0.25479615  0.43418765  0.56385589  1
  Te  Te158  1  0.24247690  0.43056150  0.92160828  1
  Te  Te159  1  0.24892113  0.73565843  0.23744124  1
  Te  Te160  1  0.23664164  0.73108172  0.56187737  1
  Te  Te161  1  0.25485862  0.77009902  0.90520248  1
  Te  Te162  1  0.52978148  0.07204762  0.25892818  1
  Te  Te163  1  0.58006481  0.07457711  0.58000471  1
  Te  Te164  1  0.56390381  0.10342397  0.92472959  1
  Te  Te165  1  0.57301746  0.41093501  0.23986532  1
  Te  Te166  1  0.57304566  0.40438411  0.56451782  1
  Te  Te167  1  0.59408730  0.42232235  0.89451612  1
  Te  Te168  1  0.59654146  0.76410380  0.27460414  1
  Te  Te169  1  0.58896596  0.75006922  0.56238851  1
  Te  Te170  1  0.58927607  0.74639421  0.92395622  1
  Te  Te171  1  0.92281215  0.09521627  0.24464280  1
  Te  Te172  1  0.91834013  0.09932332  0.58387060  1
  Te  Te173  1  0.88548323  0.07663282  0.92159902  1
  Te  Te174  1  0.94712642  0.44740015  0.21142824  1
  Te  Te175  1  0.91270255  0.42288176  0.59073513  1
  Te  Te176  1  0.91468740  0.39743933  0.94548636  1
  Te  Te177  1  0.90174900  0.74206963  0.26743201  1
  Te  Te178  1  0.89970629  0.75052252  0.58791512  1
  Te  Te179  1  0.91125847  0.73845358  0.92866363  1
