# generated using pymatgen
data_In2Te3
_symmetry_space_group_name_H-M   'P 1'
_cell_length_a   18.74834752
_cell_length_b   18.75552192
_cell_length_c   18.75012243
_cell_angle_alpha   90.01579548
_cell_angle_beta   90.00328361
_cell_angle_gamma   89.91372476
_symmetry_Int_Tables_number   1
_chemical_formula_structural   In2Te3
_chemical_formula_sum   'In72 Te108'
_cell_volume   6593.19236896
_cell_formula_units_Z   36
loop_
 _symmetry_equiv_pos_site_id
 _symmetry_equiv_pos_as_xyz
  1  'x, y, z'
loop_
 _atom_site_type_symbol
 _atom_site_label
 _atom_site_symmetry_multiplicity
 _atom_site_fract_x
 _atom_site_fract_y
 _atom_site_fract_z
 _atom_site_occupancy
  In  In0  1  0.32035314  0.65130374  0.33758270  1
  In  In1  1  0.68865660  0.51443326  0.49212027  1
  In  In2  1  -0.00244005  0.81614562  0.83804155  1
  In  In3  1  0.84152543  -0.00389587  0.16150415  1
  In  In4  1  0.16970142  0.82119271  0.02681008  1
  In  In5  1  0.13901251  0.82401145  0.69487619  1
  In  In6  1  0.64834550  0.36446671  -0.01699285  1
  In  In7  1  0.12521455  0.85962800  0.30709512  1
  In  In8  1  0.31878015  0.03617655  0.32559635  1
  In  In9  1  0.67634969  0.84397830  0.16646447  1
  In  In10  1  0.85362159  0.16744438  0.01140207  1
  In  In11  1  0.52906195  0.65176326  0.50716735  1
  In  In12  1  -0.01170893  0.46265729  0.50055027  1
  In  In13  1  0.17351055  0.00111584  0.82934778  1
  In  In14  1  0.50464342  0.82760513  -0.00917513  1
  In  In15  1  0.82251412  0.86606545  -0.01734824  1
  In  In16  1  0.68660784  0.00697097  0.32218419  1
  In  In17  1  0.49248648  0.63574744  0.17114728  1
  In  In18  1  -0.00884972  0.31476521  -0.00125226  1
  In  In19  1  0.30497503  0.32305027  0.34231604  1
  In  In20  1  0.13760211  0.19297192  0.64226386  1
  In  In21  1  0.83988640  0.47528470  0.33513914  1
  In  In22  1  0.15459267  0.48839253  0.64926667  1
  In  In23  1  0.66744555  0.17003353  0.81662825  1
  In  In24  1  0.13219641  0.34054297  0.83297237  1
  In  In25  1  0.31070443  0.64868994  0.67867097  1
  In  In26  1  0.33991943  0.85422084  0.50255989  1
  In  In27  1  0.87853047  0.69351753  0.19486927  1
  In  In28  1  0.48743733  0.50004507  0.67810261  1
  In  In29  1  0.82575003  0.49730772  0.00209380  1
  In  In30  1  0.16649543  0.66064361  0.49040236  1
  In  In31  1  -0.00427942  -0.00888056  0.66383562  1
  In  In32  1  0.83918671  0.32615099  0.82135976  1
  In  In33  1  0.30716705  0.48331018  0.48936302  1
  In  In34  1  0.50444731  0.17775528  0.33914730  1
  In  In35  1  0.53364045  0.83363334  0.67897667  1
  In  In36  1  0.33602830  0.32007587  0.02660539  1
  In  In37  1  0.33804008  0.48794185  0.82495166  1
  In  In38  1  0.85582863  0.18329882  0.34028185  1
  In  In39  1  0.49849633  0.66516691  0.83306493  1
  In  In40  1  0.14674969  0.32361808  0.19741553  1
  In  In41  1  0.30884464  0.82609587  0.16643778  1
  In  In42  1  -0.01482648  0.84349537  0.50282382  1
  In  In43  1  0.68959727  0.65013899  -0.00539130  1
  In  In44  1  0.00025195  0.01610430  0.01555658  1
  In  In45  1  0.32512006  0.02930734  0.67115344  1
  In  In46  1  0.50620626  0.35613784  0.16256233  1
  In  In47  1  0.33253562  0.82397753  0.87652685  1
  In  In48  1  0.68566251  0.33470426  0.66869288  1
  In  In49  1  0.29635928  0.16733925  0.17697701  1
  In  In50  1  0.13573368  0.03521504  0.46284956  1
  In  In51  1  0.68644081  0.66621299  0.35030512  1
  In  In52  1  0.32418195  -0.02474633  -0.01142937  1
  In  In53  1  0.33688709  0.17275198  0.83110277  1
  In  In54  1  0.51156617  0.84251220  0.34089228  1
  In  In55  1  0.48998650  -0.01857400  0.14269234  1
  In  In56  1  0.00843931  0.50204991  0.20466424  1
  In  In57  1  0.49785692  0.18703007  0.66324157  1
  In  In58  1  0.82879075  0.82957544  0.67847577  1
  In  In59  1  0.84627919  0.66036636  0.49569990  1
  In  In60  1  0.31075581  0.65594424  -0.01056047  1
  In  In61  1  0.50446459  0.16669542  -0.01279423  1
  In  In62  1  0.66651698  0.00923312  0.66701550  1
  In  In63  1  0.69797302  0.16850204  0.17887690  1
  In  In64  1  0.00187314  0.67243063  -0.01113736  1
  In  In65  1  0.50901974  0.02348288  0.48447846  1
  In  In66  1  0.66973403  0.64865133  0.66603986  1
  In  In67  1  0.49840753  0.32418905  0.50337074  1
  In  In68  1  0.16121179  0.51493285  0.00205117  1
  In  In69  1  0.85324743  0.00749971  0.48531291  1
  In  In70  1  0.67371532  0.48699706  0.16915080  1
  In  In71  1  0.83760277  0.18522525  0.65080799  1
  Te  Te72  1  0.08526418  0.07290843  0.12370216  1
  Te  Te73  1  0.03574864  0.11521237  0.38456329  1
  Te  Te74  1  0.08242547  0.08831305  0.74534262  1
  Te  Te75  1  0.07639632  0.41835075  0.08510757  1
  Te  Te76  1  0.09953158  0.39083369  0.42273317  1
  Te  Te77  1  0.04158720  0.40959842  0.72356357  1
  Te  Te78  1  0.07663846  0.73468241  0.10135977  1
  Te  Te79  1  0.07167494  0.75193970  0.41066866  1
  Te  Te80  1  0.05723834  0.70753346  0.74866689  1
  Te  Te81  1  0.40081408  0.08965110  0.08145716  1
  Te  Te82  1  0.39671872  0.11379677  0.43088617  1
  Te  Te83  1  0.43801012  0.08254123  0.75851825  1
  Te  Te84  1  0.41034338  0.43486824  0.08225791  1
  Te  Te85  1  0.41433599  0.41102829  0.40766100  1
  Te  Te86  1  0.39553031  0.39420943  0.72544346  1
  Te  Te87  1  0.41383696  0.74758897  0.08581832  1
  Te  Te88  1  0.41933091  0.74714841  0.41914283  1
  Te  Te89  1  0.41298123  0.75252991  0.74040322  1
  Te  Te90  1  0.74596315  0.07361908  0.07087474  1
  Te  Te91  1  0.75041810  0.10141722  0.42186782  1
  Te  Te92  1  0.77398101  0.08518416  0.74673219  1
  Te  Te93  1  0.75898642  0.38992934  0.08685324  1
  Te  Te94  1  0.77153809  0.39931183  0.44435851  1
  Te  Te95  1  0.76416722  0.43157538  0.74835584  1
  Te  Te96  1  0.76560908  0.74502301  0.09115217  1
  Te  Te97  1  0.76902395  0.76321368  0.42194561  1
  Te  Te98  1  0.75379045  0.72862553  0.75790172  1
  Te  Te99  1  0.07380096  0.24408663  0.30244320  1
  Te  Te100  1  0.07075011  0.27953684  0.53484054  1
  Te  Te101  1  0.07798836  0.22884293  0.91420776  1
  Te  Te102  1  0.11276758  0.58246287  0.26670791  1
  Te  Te103  1  0.06351613  0.58157763  0.57020419  1
  Te  Te104  1  0.05049604  0.55814572  0.89768836  1
  Te  Te105  1  0.05283636  0.94927781  0.20858507  1
  Te  Te106  1  0.10265659  0.92032422  0.57754628  1
  Te  Te107  1  0.09009110  0.91179655  0.92170443  1
  Te  Te108  1  0.41078732  0.24922721  0.23913123  1
  Te  Te109  1  0.39343650  0.25214619  0.58050412  1
  Te  Te110  1  0.42412177  0.27144551  0.91023391  1
  Te  Te111  1  0.40208873  0.55752204  0.25698334  1
  Te  Te112  1  0.40448117  0.58584438  0.56805607  1
  Te  Te113  1  0.41975730  0.57124682  0.92476138  1
  Te  Te114  1  0.40506035  0.91740245  0.25743953  1
  Te  Te115  1  0.44015622  0.93063595  0.59239256  1
  Te  Te116  1  0.43963020  0.93187156  0.89867053  1
  Te  Te117  1  0.75723718  0.26961023  0.26694259  1
  Te  Te118  1  0.76367950  0.27382805  0.55566132  1
  Te  Te119  1  0.74661188  0.25335754  0.92345201  1
  Te  Te120  1  0.76455475  0.58996252  0.24287016  1
  Te  Te121  1  0.78385364  0.56747291  0.60019337  1
  Te  Te122  1  0.76849317  0.57780285  0.89160292  1
  Te  Te123  1  0.77785649  0.89896599  0.26478009  1
  Te  Te124  1  0.76186382  0.92593225  0.58014079  1
  Te  Te125  1  0.72626125  0.92608984  0.89129368  1
  Te  Te126  1  0.21282452  0.24572316  0.07660850  1
  Te  Te127  1  0.19492697  0.26186240  0.42372564  1
  Te  Te128  1  0.23069334  0.25086846  0.75243422  1
  Te  Te129  1  0.24323696  0.58932054  0.10129894  1
  Te  Te130  1  0.20421010  0.54734519  0.38997519  1
  Te  Te131  1  0.22113581  0.56906444  0.76857667  1
  Te  Te132  1  0.23100579  0.94095582  0.10465668  1
  Te  Te133  1  0.24164528  0.91801770  0.40299142  1
  Te  Te134  1  0.26595956  0.90932721  0.74828170  1
  Te  Te135  1  0.58984972  0.24562799  0.08794597  1
  Te  Te136  1  0.59963643  0.25620043  0.41826177  1
  Te  Te137  1  0.57582295  0.27797706  0.75908891  1
  Te  Te138  1  0.58608670  0.56683104  0.07168086  1
  Te  Te139  1  0.57879504  0.56691709  0.39158375  1
  Te  Te140  1  0.59322238  0.55549951  0.77592836  1
  Te  Te141  1  0.60392501  0.92389619  0.05903126  1
  Te  Te142  1  0.60779120  0.92095501  0.42598497  1
  Te  Te143  1  0.61997041  0.91130445  0.77434533  1
  Te  Te144  1  0.93014433  0.24239729  0.11365204  1
  Te  Te145  1  0.95179376  0.26203248  0.42763667  1
  Te  Te146  1  0.94070401  0.25551171  0.73513036  1
  Te  Te147  1  0.91923753  0.58157086  0.09361230  1
  Te  Te148  1  0.93259307  0.57473256  0.40386248  1
  Te  Te149  1  0.97484687  0.57074682  0.76688089  1
  Te  Te150  1  0.93152095  0.89455198  0.08274102  1
  Te  Te151  1  0.93587823  0.92733739  0.39068061  1
  Te  Te152  1  0.91140148  0.92300428  0.76969507  1
  Te  Te153  1  0.19651041  0.09566249  0.26269419  1
  Te  Te154  1  0.23411168  0.09423981  0.57095244  1
  Te  Te155  1  0.24642051  0.09321576  0.92653530  1
  Te  Te156  1  0.25723737  0.41422296  0.23544783  1
  Te  Te157  1  0.25671840  0.39324518  0.59581278  1
  Te  Te158  1  0.24459663  0.40699381  0.92385362  1
  Te  Te159  1  0.22487374  0.74435463  0.26172049  1
  Te  Te160  1  0.24585463  0.75635101  0.58169193  1
  Te  Te161  1  0.21427222  0.73385636  0.90166143  1
  Te  Te162  1  0.57206796  0.07119391  0.24173062  1
  Te  Te163  1  0.59741821  0.11032107  0.57507939  1
  Te  Te164  1  0.59742075  0.07983461  0.91254213  1
  Te  Te165  1  0.59904289  0.40466699  0.26694881  1
  Te  Te166  1  0.58632241  0.43312217  0.58072291  1
  Te  Te167  1  0.57328968  0.44911578  0.89215397  1
  Te  Te168  1  0.58135448  0.74710032  0.24103455  1
  Te  Te169  1  0.61475731  0.75843019  0.57183002  1
  Te  Te170  1  0.60345463  0.74620183  0.90831674  1
  Te  Te171  1  0.92664615  0.08690926  0.24575095  1
  Te  Te172  1  0.93879296  0.09856386  0.57208963  1
  Te  Te173  1  0.92244117  0.08395621  0.91018420  1
  Te  Te174  1  0.92128102  0.38900718  0.24565266  1
  Te  Te175  1  0.92907559  0.39247825  0.62058256  1
  Te  Te176  1  0.92324200  0.41955208  0.91149040  1
  Te  Te177  1  0.96687568  0.77431910  0.28026988  1
  Te  Te178  1  0.92719638  0.74197433  0.59957779  1
  Te  Te179  1  0.88781906  0.74265759  0.91381849  1
