# generated using pymatgen
data_In2Te3
_symmetry_space_group_name_H-M   'P 1'
_cell_length_a   18.83823553
_cell_length_b   18.82772432
_cell_length_c   18.83022574
_cell_angle_alpha   89.95509275
_cell_angle_beta   90.03200478
_cell_angle_gamma   90.00537441
_symmetry_Int_Tables_number   1
_chemical_formula_structural   In2Te3
_chemical_formula_sum   'In72 Te108'
_cell_volume   6678.72215637
_cell_formula_units_Z   36
loop_
 _symmetry_equiv_pos_site_id
 _symmetry_equiv_pos_as_xyz
  1  'x, y, z'
loop_
 _atom_site_type_symbol
 _atom_site_label
 _atom_site_symmetry_multiplicity
 _atom_site_fract_x
 _atom_site_fract_y
 _atom_site_fract_z
 _atom_site_occupancy
  In  In0  1  0.46858410  0.63783482  0.86834348  1
  In  In1  1  0.18639472  -0.00917996  0.47512084  1
  In  In2  1  0.33783185  0.00935724  0.03020475  1
  In  In3  1  0.34003020  0.81749488  0.17713850  1
  In  In4  1  0.37758328  -0.02414873  0.66616707  1
  In  In5  1  -0.01876599  0.50259456  0.16635737  1
  In  In6  1  0.34341169  0.16554988  0.18678321  1
  In  In7  1  0.34883268  0.65747109  0.65192950  1
  In  In8  1  0.84686032  0.80859850  0.34241156  1
  In  In9  1  0.33702817  0.32247533  0.35074531  1
  In  In10  1  0.81124120  0.18396079  -0.01914135  1
  In  In11  1  0.31810173  0.19900983  0.84552000  1
  In  In12  1  0.66619204  0.81275032  0.17455084  1
  In  In13  1  0.00769890  -0.01797209  0.01256769  1
  In  In14  1  0.51102512  0.36877510  0.47534584  1
  In  In15  1  0.81097026  0.17315281  0.66526881  1
  In  In16  1  -0.00876068  0.85249449  0.81581718  1
  In  In17  1  0.66115390  -0.01421075  0.02171017  1
  In  In18  1  0.50920187  0.67682161  0.19214848  1
  In  In19  1  0.87974360  -0.01016496  0.81267209  1
  In  In20  1  0.14895250  0.65342304  0.52129583  1
  In  In21  1  0.86910468  0.66688136  0.52773334  1
  In  In22  1  0.33718068  0.36758359  0.65940080  1
  In  In23  1  0.83151208  -0.01982396  0.17762289  1
  In  In24  1  0.82630655  0.35651696  0.16871767  1
  In  In25  1  0.17639339  -0.00482931  0.18505926  1
  In  In26  1  -0.00787719  0.33623843  -0.02924418  1
  In  In27  1  0.66048450  0.51293555  0.47980944  1
  In  In28  1  0.69127517  0.17653277  0.86569774  1
  In  In29  1  0.48544530  0.84162705  0.00912048  1
  In  In30  1  0.00580005  0.15915094  0.48937032  1
  In  In31  1  0.16077365  0.69089668  0.14593545  1
  In  In32  1  0.16027700  0.82632760  0.66669627  1
  In  In33  1  0.65304835  0.49941449  0.82755353  1
  In  In34  1  0.66478644  0.83303176  0.81199590  1
  In  In35  1  0.81745576  0.82836554  -0.00401451  1
  In  In36  1  0.16505079  0.49951971  -0.01195190  1
  In  In37  1  0.65725506  0.67059362  0.02647892  1
  In  In38  1  -0.00860742  0.14914498  0.16250583  1
  In  In39  1  0.84643277  0.64149988  0.80242457  1
  In  In40  1  0.17268225  0.50746264  0.35162248  1
  In  In41  1  0.16364370  0.36125085  0.51606247  1
  In  In42  1  0.16208152  0.16687057  0.64423555  1
  In  In43  1  0.49760571  0.81507269  0.34160544  1
  In  In44  1  -0.00589082  0.65243785  0.34710102  1
  In  In45  1  0.34222638  0.17329348  0.49727994  1
  In  In46  1  0.33142086  0.35759425  0.01154056  1
  In  In47  1  0.01226063  -0.01300707  0.66531025  1
  In  In48  1  0.83474134  -0.01927585  0.48388774  1
  In  In49  1  0.62856764  0.19732591  0.16365962  1
  In  In50  1  0.82737599  0.33782686  0.83192755  1
  In  In51  1  0.68177207  -0.01102439  0.63966614  1
  In  In52  1  0.52334693  0.00170646  0.84390813  1
  In  In53  1  0.50469737  0.16256046  0.33453095  1
  In  In54  1  0.30537230  0.81170613  0.82787728  1
  In  In55  1  0.51185843  0.16239753  0.67507208  1
  In  In56  1  0.50956074  0.79107361  0.62534515  1
  In  In57  1  0.65427250  0.65631839  0.63734614  1
  In  In58  1  0.14789176  -0.00862191  0.85955255  1
  In  In59  1  0.82984695  0.50667199  0.01543832  1
  In  In60  1  -0.02519904  0.34820191  0.30431451  1
  In  In61  1  0.00168789  0.20276101  0.84459490  1
  In  In62  1  0.16138830  0.82823475  0.32581091  1
  In  In63  1  0.48225755  0.35646486  0.83788164  1
  In  In64  1  0.65863292  0.35532664  0.31226205  1
  In  In65  1  0.16297295  0.64223240  0.82458385  1
  In  In66  1  0.51328971  -0.01251003  0.50021440  1
  In  In67  1  0.14426883  0.37377122  0.82428642  1
  In  In68  1  0.16511213  0.31525163  0.17265207  1
  In  In69  1  0.36124439  0.50059477  0.16579613  1
  In  In70  1  0.83874887  0.15726166  0.34837468  1
  In  In71  1  0.66741237  0.33377513  0.65237390  1
  Te  Te72  1  0.09766762  0.08462015  0.07619681  1
  Te  Te73  1  0.09344712  0.07937509  0.40274342  1
  Te  Te74  1  0.08263219  0.09587226  0.75942438  1
  Te  Te75  1  0.07539028  0.40668426  0.08658213  1
  Te  Te76  1  0.06747388  0.41574587  0.41026382  1
  Te  Te77  1  0.06171327  0.44342912  0.72260398  1
  Te  Te78  1  0.07653000  0.76470145  0.05334813  1
  Te  Te79  1  0.07648051  0.74979699  0.42835632  1
  Te  Te80  1  0.06362021  0.73723020  0.73954653  1
  Te  Te81  1  0.43776119  0.08868318  0.10101881  1
  Te  Te82  1  0.41377016  0.06946998  0.41426679  1
  Te  Te83  1  0.41244212  0.09653996  0.76945520  1
  Te  Te84  1  0.44180789  0.39089141  0.10540780  1
  Te  Te85  1  0.38928798  0.43525934  0.42897237  1
  Te  Te86  1  0.43466660  0.44965365  0.73309387  1
  Te  Te87  1  0.41342283  0.72869198  0.07689719  1
  Te  Te88  1  0.43313147  0.70773645  0.42437572  1
  Te  Te89  1  0.42426773  0.75199189  0.75498615  1
  Te  Te90  1  0.76091844  0.08152217  0.08784366  1
  Te  Te91  1  0.74150431  0.07648978  0.42293450  1
  Te  Te92  1  0.74397476  0.07382558  0.75927827  1
  Te  Te93  1  0.72431320  0.43755928  0.09622717  1
  Te  Te94  1  0.74595125  0.40881362  0.41889285  1
  Te  Te95  1  0.75360801  0.42986691  0.73615117  1
  Te  Te96  1  0.77392961  0.72937095  0.10397483  1
  Te  Te97  1  0.76986756  0.70766574  0.42116105  1
  Te  Te98  1  0.74835471  0.73695726  0.73091349  1
  Te  Te99  1  0.07071174  0.23596081  0.26076329  1
  Te  Te100  1  0.06463006  0.26535040  0.58589162  1
  Te  Te101  1  0.11697961  0.26037616  0.92612420  1
  Te  Te102  1  0.09159864  0.57898159  0.24102350  1
  Te  Te103  1  0.05080517  0.55789648  0.58336088  1
  Te  Te104  1  0.06433713  0.57486881  0.91293221  1
  Te  Te105  1  0.07179495  0.90771029  0.23999717  1
  Te  Te106  1  0.08645297  0.90844718  0.56078228  1
  Te  Te107  1  0.09321816  0.86888250  0.93569133  1
  Te  Te108  1  0.43758998  0.27064473  0.24974057  1
  Te  Te109  1  0.42937431  0.25852973  0.58922390  1
  Te  Te110  1  0.42404013  0.25334838  0.93627098  1
  Te  Te111  1  0.41575455  0.59089039  0.27013923  1
  Te  Te112  1  0.45573632  0.61686401  0.55328417  1
  Te  Te113  1  0.38022307  0.54029480  0.93078749  1
  Te  Te114  1  0.41568858  0.90983962  0.26332895  1
  Te  Te115  1  0.41102653  0.88412571  0.55177391  1
  Te  Te116  1  0.40736934  0.91921024  0.90397142  1
  Te  Te117  1  0.75894304  0.24108235  0.24379867  1
  Te  Te118  1  0.76006406  0.26414163  0.56196342  1
  Te  Te119  1  0.72224772  0.30722215  0.94429748  1
  Te  Te120  1  0.67261783  0.56848005  0.22508607  1
  Te  Te121  1  0.76058567  0.56454474  0.58427603  1
  Te  Te122  1  0.74324652  0.59832286  0.91385103  1
  Te  Te123  1  0.74163141  0.90479620  0.27020672  1
  Te  Te124  1  0.74442722  0.88308068  0.55598330  1
  Te  Te125  1  0.74975856  0.93087117  0.90426247  1
  Te  Te126  1  0.25925202  0.24125090  0.08174272  1
  Te  Te127  1  0.22951354  0.24845878  0.42906505  1
  Te  Te128  1  0.23799921  0.26797147  0.73343729  1
  Te  Te129  1  0.24610780  0.57276403  0.09203398  1
  Te  Te130  1  0.25463821  0.59741338  0.43328358  1
  Te  Te131  1  0.24724914  0.57338910  0.72162275  1
  Te  Te132  1  0.24936014  0.90123625  0.08575682  1
  Te  Te133  1  0.27057262  0.89763156  0.39925527  1
  Te  Te134  1  0.23798315  0.93131240  0.74842293  1
  Te  Te135  1  0.60575861  0.29912863  0.06362031  1
  Te  Te136  1  0.59230848  0.25676711  0.41704824  1
  Te  Te137  1  0.59276256  0.25288644  0.76765286  1
  Te  Te138  1  0.56519780  0.57558143  0.09436418  1
  Te  Te139  1  0.54774858  0.59726809  0.42674764  1
  Te  Te140  1  0.57054795  0.60641981  0.75783872  1
  Te  Te141  1  0.56551078  0.91516338  0.11552207  1
  Te  Te142  1  0.59446559  0.90388006  0.40979688  1
  Te  Te143  1  0.56744680  0.91800808  0.72271152  1
  Te  Te144  1  0.91528115  0.25673900  0.08025848  1
  Te  Te145  1  0.91680118  0.26550143  0.42114319  1
  Te  Te146  1  0.91651586  0.26277549  0.73425202  1
  Te  Te147  1  0.92836617  0.60153118  0.07075254  1
  Te  Te148  1  0.91553129  0.56054392  0.43226417  1
  Te  Te149  1  0.94073990  0.56772111  0.71015867  1
  Te  Te150  1  0.92013950  0.88891279  0.09348366  1
  Te  Te151  1  0.93648177  0.90452869  0.41215274  1
  Te  Te152  1  0.89320665  0.88569157  0.69469318  1
  Te  Te153  1  0.24891759  0.09035025  0.27153639  1
  Te  Te154  1  0.26949713  0.07245682  0.59126835  1
  Te  Te155  1  0.25382805  0.08159925  0.92315078  1
  Te  Te156  1  0.25225047  0.41296974  0.24962803  1
  Te  Te157  1  0.24649715  0.46284273  0.58855660  1
  Te  Te158  1  0.27298383  0.43289551  0.88698429  1
  Te  Te159  1  0.25445187  0.72412410  0.26095454  1
  Te  Te160  1  0.25729191  0.75403564  0.57693121  1
  Te  Te161  1  0.24515310  0.71911399  0.92237373  1
  Te  Te162  1  0.59695728  0.08390626  0.25008652  1
  Te  Te163  1  0.59811911  0.09668507  0.56975777  1
  Te  Te164  1  0.58451127  0.09628764  0.94518102  1
  Te  Te165  1  0.57156048  0.47026286  0.27548477  1
  Te  Te166  1  0.57396488  0.43752206  0.59427398  1
  Te  Te167  1  0.56145884  0.44315958  0.92877637  1
  Te  Te168  1  0.63819648  0.70863379  0.28494962  1
  Te  Te169  1  0.63032551  0.76935104  0.53856729  1
  Te  Te170  1  0.58285907  0.76105479  0.92106976  1
  Te  Te171  1  0.92564195  0.06029339  0.26687508  1
  Te  Te172  1  0.91548630  0.08247419  0.59316120  1
  Te  Te173  1  0.92744581  0.08787429  0.92442703  1
  Te  Te174  1  0.87520594  0.46192181  0.26782046  1
  Te  Te175  1  0.94754928  0.44478879  0.61416654  1
  Te  Te176  1  0.91474301  0.44370158  0.89934165  1
  Te  Te177  1  0.91495276  0.72163001  0.24307183  1
  Te  Te178  1  0.94556505  0.75816612  0.61733455  1
  Te  Te179  1  0.90241769  0.75284595  0.89481003  1
