# generated using pymatgen
data_In2Te3
_symmetry_space_group_name_H-M   'P 1'
_cell_length_a   18.76156435
_cell_length_b   18.76392265
_cell_length_c   18.75342368
_cell_angle_alpha   90.01906246
_cell_angle_beta   90.01532358
_cell_angle_gamma   90.06783707
_symmetry_Int_Tables_number   1
_chemical_formula_structural   In2Te3
_chemical_formula_sum   'In72 Te108'
_cell_volume   6601.96021203
_cell_formula_units_Z   36
loop_
 _symmetry_equiv_pos_site_id
 _symmetry_equiv_pos_as_xyz
  1  'x, y, z'
loop_
 _atom_site_type_symbol
 _atom_site_label
 _atom_site_symmetry_multiplicity
 _atom_site_fract_x
 _atom_site_fract_y
 _atom_site_fract_z
 _atom_site_occupancy
  In  In0  1  0.33193620  0.15415863  0.84242920  1
  In  In1  1  0.83799365  0.83031742  -0.01811685  1
  In  In2  1  0.31636164  0.17264885  0.53068561  1
  In  In3  1  -0.00344822  0.33882153  0.31907185  1
  In  In4  1  0.50508625  -0.00453962  0.16615300  1
  In  In5  1  0.32758120  0.66603868  0.33066574  1
  In  In6  1  0.82621699  0.01773639  0.13463567  1
  In  In7  1  0.35289144  -0.02347162  0.32147628  1
  In  In8  1  0.01412085  0.01881006  0.68462944  1
  In  In9  1  -0.00360806  0.31973986  0.70391492  1
  In  In10  1  0.64142783  0.82823513  0.50809897  1
  In  In11  1  0.19899237  0.67880110  0.84941636  1
  In  In12  1  0.49315452  0.14379197  0.32553383  1
  In  In13  1  0.66588471  0.50348147  0.81877841  1
  In  In14  1  -0.00217094  0.17122133  0.17107023  1
  In  In15  1  0.66662639  0.15617920  0.50105911  1
  In  In16  1  0.20219300  0.84873232  0.70009802  1
  In  In17  1  0.01874269  0.83386265  0.49237931  1
  In  In18  1  0.17026780  0.67892541  0.50015518  1
  In  In19  1  0.64557424  0.81458691  0.83221789  1
  In  In20  1  0.34337654  0.33956250  0.66622647  1
  In  In21  1  0.49968949  0.33053055  0.83239504  1
  In  In22  1  0.51091880  0.00132058  0.85352641  1
  In  In23  1  0.01054109  -0.01447782  -0.00463400  1
  In  In24  1  0.02367335  -0.00724715  0.33944722  1
  In  In25  1  0.69486481  0.32010174  0.32108408  1
  In  In26  1  0.18650518  -0.00573482  0.14609610  1
  In  In27  1  0.35584465  0.52947799  0.51369201  1
  In  In28  1  0.84061505  0.34339252  0.50820562  1
  In  In29  1  0.14565763  0.16084067  0.34734661  1
  In  In30  1  0.83564403  0.00815326  0.84677230  1
  In  In31  1  0.83074041  0.19801407  0.32351858  1
  In  In32  1  0.16453618  0.67719595  0.13528655  1
  In  In33  1  0.01018555  0.50158184  0.83285158  1
  In  In34  1  0.49820764  0.33630361  0.51535955  1
  In  In35  1  0.33411429  -0.01285758  -0.02077267  1
  In  In36  1  0.63966798  0.66249384  -0.00992986  1
  In  In37  1  0.64695767  0.84416814  0.15860500  1
  In  In38  1  0.00411154  0.50049127  0.17542620  1
  In  In39  1  0.66243688  0.51341292  0.14974911  1
  In  In40  1  0.02338203  0.31109587  -0.02390175  1
  In  In41  1  0.49316439  0.51702954  0.33853890  1
  In  In42  1  0.30216707  0.37100005  0.29685395  1
  In  In43  1  0.17656595  0.34096679  0.50275075  1
  In  In44  1  0.65009976  0.33953760  0.68420198  1
  In  In45  1  0.65697266  -0.00473107  0.34135889  1
  In  In46  1  0.84205053  0.65553684  0.15805875  1
  In  In47  1  0.80903424  0.83541880  0.66693417  1
  In  In48  1  0.32455983  0.33694524  -0.00462228  1
  In  In49  1  0.15845283  0.81336678  0.33109448  1
  In  In50  1  0.01350700  0.82943669  0.86017726  1
  In  In51  1  0.66497805  0.48959001  0.49862884  1
  In  In52  1  0.33073184  0.51945469  0.84265614  1
  In  In53  1  0.65246391  0.67860250  0.32133621  1
  In  In54  1  0.33882993  0.81843276  0.51111194  1
  In  In55  1  0.16311805  0.17402902  0.68004787  1
  In  In56  1  0.50014046  -0.02284206  0.51687003  1
  In  In57  1  -0.00858073  0.49893515  0.49211614  1
  In  In58  1  0.18226328  0.02547890  0.50519980  1
  In  In59  1  0.84699605  0.79993545  0.29935950  1
  In  In60  1  0.32731682  0.17367256  0.15357506  1
  In  In61  1  0.66975884  0.31817779  -0.01010864  1
  In  In62  1  0.47276067  0.51840544  0.00303848  1
  In  In63  1  0.83299483  0.64472475  0.49576171  1
  In  In64  1  0.64943318  0.67277599  0.66984601  1
  In  In65  1  -0.00691667  0.65273034  0.67617695  1
  In  In66  1  0.86838510  0.00959040  0.52727146  1
  In  In67  1  0.84380745  0.48001678  -0.00126340  1
  In  In68  1  0.51291713  0.33649492  0.14771425  1
  In  In69  1  0.17206936  0.51325578  -0.00184172  1
  In  In70  1  0.66668133  0.00617799  0.70602076  1
  In  In71  1  0.82527885  0.18130711  -0.00577140  1
  Te  Te72  1  0.08879781  0.09052429  0.07897490  1
  Te  Te73  1  0.05638049  0.09263150  0.45176342  1
  Te  Te74  1  0.09902716  0.08838267  0.78904807  1
  Te  Te75  1  0.08683205  0.41431396  0.07688695  1
  Te  Te76  1  0.09247449  0.42247658  0.40534253  1
  Te  Te77  1  0.09814391  0.41600265  0.74986116  1
  Te  Te78  1  0.05094492  0.76052178  0.09338406  1
  Te  Te79  1  0.05976700  0.71878930  0.40011902  1
  Te  Te80  1  0.08584793  0.75719813  0.74409887  1
  Te  Te81  1  0.41558297  0.08035688  0.07402585  1
  Te  Te82  1  0.40616015  0.07987253  0.43362595  1
  Te  Te83  1  0.43056914  0.08200550  0.75871275  1
  Te  Te84  1  0.39809446  0.42376769  0.09842995  1
  Te  Te85  1  0.40721999  0.41014183  0.41798977  1
  Te  Te86  1  0.42530625  0.43575087  0.75221826  1
  Te  Te87  1  0.36532928  0.71811917  0.03018319  1
  Te  Te88  1  0.42195966  0.74147530  0.41737035  1
  Te  Te89  1  0.44854316  0.70479916  0.72857166  1
  Te  Te90  1  0.72288574  0.07776785  0.04452812  1
  Te  Te91  1  0.76511594  0.08095047  0.41180562  1
  Te  Te92  1  0.76420814  0.10704914  0.75827918  1
  Te  Te93  1  0.74959899  0.40373930  0.09192797  1
  Te  Te94  1  0.76710918  0.42748165  0.40358534  1
  Te  Te95  1  0.76024125  0.41030834  0.75494354  1
  Te  Te96  1  0.74411622  0.74500403  0.08071750  1
  Te  Te97  1  0.74760574  0.75981495  0.42046329  1
  Te  Te98  1  0.75746241  0.73230175  0.76417190  1
  Te  Te99  1  0.10319536  0.25940943  0.24049814  1
  Te  Te100  1  0.08060821  0.25640507  0.58271051  1
  Te  Te101  1  0.08702408  0.21558802  0.88321775  1
  Te  Te102  1  0.11947228  0.57598709  0.24261772  1
  Te  Te103  1  0.08734037  0.57832903  0.58293399  1
  Te  Te104  1  0.08291582  0.60876263  0.91908313  1
  Te  Te105  1  0.08854525  0.90921216  0.23218963  1
  Te  Te106  1  0.09667596  0.91782533  0.59282868  1
  Te  Te107  1  0.11727867  0.91673909  0.91753878  1
  Te  Te108  1  0.41854179  0.25394372  0.25067183  1
  Te  Te109  1  0.43564586  0.23239943  0.60744770  1
  Te  Te110  1  0.42544062  0.24202972  0.93181779  1
  Te  Te111  1  0.40276835  0.57538620  0.23874808  1
  Te  Te112  1  0.43701049  0.60598585  0.61102484  1
  Te  Te113  1  0.41741938  0.62612663  0.90950539  1
  Te  Te114  1  0.41803971  0.88801120  0.22432452  1
  Te  Te115  1  0.40121343  0.91376479  0.60723893  1
  Te  Te116  1  0.40043278  0.88624235  0.87916838  1
  Te  Te117  1  0.73927529  0.22991899  0.21211619  1
  Te  Te118  1  0.74141164  0.25772772  0.58562999  1
  Te  Te119  1  0.75683704  0.25872011  0.88634879  1
  Te  Te120  1  0.74998421  0.58111106  0.25596002  1
  Te  Te121  1  0.74706321  0.57415495  0.59765851  1
  Te  Te122  1  0.74872489  0.57740635  0.92546809  1
  Te  Te123  1  0.75372241  0.91667782  0.24426136  1
  Te  Te124  1  0.73562326  0.93642227  0.57455094  1
  Te  Te125  1  0.73338813  0.91589890  0.91250416  1
  Te  Te126  1  0.23159306  0.25335113  0.07613721  1
  Te  Te127  1  0.26008393  0.24943502  0.40950487  1
  Te  Te128  1  0.25438580  0.26445054  0.76313403  1
  Te  Te129  1  0.27726429  0.59539774  0.07007288  1
  Te  Te130  1  0.24455223  0.57251367  0.41882786  1
  Te  Te131  1  0.24339292  0.58685043  0.74328994  1
  Te  Te132  1  0.26989295  0.89160826  0.07760226  1
  Te  Te133  1  0.24183685  0.91286414  0.41820190  1
  Te  Te134  1  0.29887359  0.93368496  0.77371980  1
  Te  Te135  1  0.57110499  0.23208069  0.06187033  1
  Te  Te136  1  0.58258319  0.25440667  0.41455211  1
  Te  Te137  1  0.58547454  0.23268467  0.76374744  1
  Te  Te138  1  0.55147802  0.60561784  0.10380650  1
  Te  Te139  1  0.58042133  0.59937704  0.43286357  1
  Te  Te140  1  0.56121261  0.60854113  0.77844895  1
  Te  Te141  1  0.56572739  0.91401982  0.05536740  1
  Te  Te142  1  0.55643005  0.89671655  0.39869571  1
  Te  Te143  1  0.56445183  0.90073394  0.73761564  1
  Te  Te144  1  0.91845649  0.26551509  0.08373651  1
  Te  Te145  1  0.93018635  0.25042366  0.42630425  1
  Te  Te146  1  0.90720713  0.21020226  0.74677265  1
  Te  Te147  1  0.93670288  0.58235766  0.06313475  1
  Te  Te148  1  0.91917229  0.58473947  0.39348925  1
  Te  Te149  1  0.90193861  0.57421324  0.75928576  1
  Te  Te150  1  0.91938904  0.90505324  0.08809758  1
  Te  Te151  1  0.91130472  0.90641995  0.40879186  1
  Te  Te152  1  0.91548485  0.91303592  0.74644322  1
  Te  Te153  1  0.25135147  0.07725891  0.26435115  1
  Te  Te154  1  0.26265528  0.06626524  0.62736844  1
  Te  Te155  1  0.23366284  0.08810631  0.93280148  1
  Te  Te156  1  0.21320118  0.45223482  0.21570206  1
  Te  Te157  1  0.25532976  0.43740499  0.59015346  1
  Te  Te158  1  0.23373185  0.41368990  0.89995325  1
  Te  Te159  1  0.25745402  0.75924762  0.23120880  1
  Te  Te160  1  0.25870606  0.73568395  0.61228564  1
  Te  Te161  1  0.25995088  0.78333184  0.93833777  1
  Te  Te162  1  0.60404489  0.09345887  0.23554187  1
  Te  Te163  1  0.57915474  0.08035331  0.59760602  1
  Te  Te164  1  0.60958595  0.07361200  0.93403770  1
  Te  Te165  1  0.58614726  0.42055214  0.25794576  1
  Te  Te166  1  0.56517041  0.44045454  0.60351936  1
  Te  Te167  1  0.57736773  0.43215394  0.93088410  1
  Te  Te168  1  0.55788658  0.75159031  0.23532109  1
  Te  Te169  1  0.54348408  0.75122090  0.59399618  1
  Te  Te170  1  0.54979212  0.76922934  0.93838582  1
  Te  Te171  1  0.91696090  0.07336263  0.25678160  1
  Te  Te172  1  0.91758466  0.11900648  0.62068725  1
  Te  Te173  1  0.93333722  0.09604175  0.92353745  1
  Te  Te174  1  0.89994470  0.41344587  0.23679196  1
  Te  Te175  1  0.92289967  0.42389212  0.60578272  1
  Te  Te176  1  0.91904113  0.39418411  0.89890738  1
  Te  Te177  1  0.95860032  0.73580638  0.21782963  1
  Te  Te178  1  0.91179482  0.75716398  0.57985941  1
  Te  Te179  1  0.91347062  0.73053531  0.90402021  1
