# generated using pymatgen
data_In2Te3
_symmetry_space_group_name_H-M   'P 1'
_cell_length_a   18.94079620
_cell_length_b   18.96117228
_cell_length_c   18.95766430
_cell_angle_alpha   89.96081231
_cell_angle_beta   89.93070576
_cell_angle_gamma   90.18089574
_symmetry_Int_Tables_number   1
_chemical_formula_structural   In2Te3
_chemical_formula_sum   'In72 Te108'
_cell_volume   6808.40934509
_cell_formula_units_Z   36
loop_
 _symmetry_equiv_pos_site_id
 _symmetry_equiv_pos_as_xyz
  1  'x, y, z'
loop_
 _atom_site_type_symbol
 _atom_site_label
 _atom_site_symmetry_multiplicity
 _atom_site_fract_x
 _atom_site_fract_y
 _atom_site_fract_z
 _atom_site_occupancy
  In  In0  1  -0.01526430  0.50674713  0.81621461  1
  In  In1  1  0.67691658  0.16281303  0.81242035  1
  In  In2  1  0.15995306  0.81645542  0.02153890  1
  In  In3  1  0.32052028  -0.01463468  0.34599671  1
  In  In4  1  0.33141630  0.33762107  0.66220466  1
  In  In5  1  0.80770920  0.39340480  0.48197282  1
  In  In6  1  0.01880669  0.82906550  0.50584773  1
  In  In7  1  0.17176424  0.15924468  0.33171163  1
  In  In8  1  0.50043562  0.15371595  0.66193088  1
  In  In9  1  0.31964820  -0.00460156  0.65263928  1
  In  In10  1  0.32399793  0.37848927  0.01287605  1
  In  In11  1  0.16134119  0.68131264  0.85592971  1
  In  In12  1  0.83442368  0.01161153  0.83876360  1
  In  In13  1  -0.01254337  0.14004884  0.15121376  1
  In  In14  1  0.17714627  0.01578787  0.50246712  1
  In  In15  1  -0.02432983  0.65239615  0.65902659  1
  In  In16  1  0.14656945  0.02330616  0.79879345  1
  In  In17  1  0.48255497  -0.02831888  0.16160151  1
  In  In18  1  0.53153683  0.16619263  -0.02164605  1
  In  In19  1  0.82993660  -0.01005149  0.47584283  1
  In  In20  1  0.49666868  -0.01487180  0.52507656  1
  In  In21  1  0.84566003  0.50495018  0.64065007  1
  In  In22  1  0.33061398  0.64655886  0.01240179  1
  In  In23  1  0.47650735  0.69820138  0.49734097  1
  In  In24  1  0.50688890  0.51539725  0.33849602  1
  In  In25  1  0.33872259  0.52840561  0.83699315  1
  In  In26  1  0.65742759  0.67835051  0.66130711  1
  In  In27  1  0.49323678  0.81768211  0.01173766  1
  In  In28  1  0.36586859  0.51426891  0.52050456  1
  In  In29  1  0.00156635  0.83350001  0.85492398  1
  In  In30  1  0.32474162  0.50269370  0.18769925  1
  In  In31  1  -0.03173474  -0.04545678  0.00350362  1
  In  In32  1  0.67453520  0.51964636  0.83040800  1
  In  In33  1  0.02088075  -0.02641771  0.30876658  1
  In  In34  1  0.49610034  0.35226024  0.20468302  1
  In  In35  1  0.66538837  0.16390493  0.16220910  1
  In  In36  1  0.00232728  0.31321797  0.03225145  1
  In  In37  1  0.35393400  0.18321318  0.81054534  1
  In  In38  1  -0.01156422  0.53542787  0.19755557  1
  In  In39  1  0.31742252  -0.00859177  -0.01375333  1
  In  In40  1  0.65510334  0.33884877  0.65676850  1
  In  In41  1  0.15775301  -0.03292282  0.18439480  1
  In  In42  1  0.18340762  0.17932221  0.01573766  1
  In  In43  1  0.82835727  0.18228978  0.65523417  1
  In  In44  1  0.81541250  -0.06522239  0.12274840  1
  In  In45  1  0.85430892  0.31887445  0.82359709  1
  In  In46  1  0.81459979  0.51806018  -0.01245570  1
  In  In47  1  0.18062937  0.50256981  0.68413590  1
  In  In48  1  0.62346893  0.83673535  0.81915671  1
  In  In49  1  -0.01148521  0.65843963  0.01566733  1
  In  In50  1  0.02018880  0.34444452  0.34575297  1
  In  In51  1  0.33098873  0.18091465  0.49114810  1
  In  In52  1  0.14850116  0.37001029  0.19700122  1
  In  In53  1  -0.00813706  0.18082863  0.51747770  1
  In  In54  1  0.37943568  0.81632751  0.80577560  1
  In  In55  1  0.67414308  0.82109060  0.46783933  1
  In  In56  1  0.00549577  0.29759265  0.66564686  1
  In  In57  1  0.83787763  0.35242810  0.19020253  1
  In  In58  1  0.16776908  0.83016281  0.65541924  1
  In  In59  1  0.57126040  0.36925790  0.45663502  1
  In  In60  1  0.64943573  -0.01813656  -0.00955605  1
  In  In61  1  0.67874291  -0.00414812  0.31688196  1
  In  In62  1  0.30943494  0.69962170  0.32762228  1
  In  In63  1  0.66979953  0.65813223  0.32158029  1
  In  In64  1  0.53578936  0.65130455  0.14938966  1
  In  In65  1  0.66958074  0.33279047  -0.01823808  1
  In  In66  1  0.17648812  0.66476199  0.51042516  1
  In  In67  1  0.47703706  0.35833635  0.84498648  1
  In  In68  1  0.86677028  0.77544597  0.29334563  1
  In  In69  1  0.83269413  0.85193366  0.67317123  1
  In  In70  1  0.82958920  0.16583897  0.31520565  1
  In  In71  1  0.36714816  0.17956020  0.16778320  1
  Te  Te72  1  0.10132649  0.06795464  0.08263728  1
  Te  Te73  1  0.06343205  0.08164143  0.40842139  1
  Te  Te74  1  0.06798133  0.12235405  0.73136272  1
  Te  Te75  1  0.05865773  0.43561169  0.09667735  1
  Te  Te76  1  0.09456006  0.46449988  0.38650211  1
  Te  Te77  1  0.07539578  0.41071398  0.74637402  1
  Te  Te78  1  0.10868441  0.69993516  0.09846722  1
  Te  Te79  1  0.05956315  0.70958572  0.43095800  1
  Te  Te80  1  0.06728366  0.74558647  0.74453771  1
  Te  Te81  1  0.42397624  0.07962703  0.06293908  1
  Te  Te82  1  0.41293731  0.07243988  0.42677615  1
  Te  Te83  1  0.42267999  0.05531014  0.74818532  1
  Te  Te84  1  0.43238872  0.44036044  0.09562545  1
  Te  Te85  1  0.42584381  0.41831401  0.42123368  1
  Te  Te86  1  0.41648635  0.43986211  0.73572730  1
  Te  Te87  1  0.40990738  0.73556624  0.10579570  1
  Te  Te88  1  0.41945524  0.77986974  0.38703928  1
  Te  Te89  1  0.45592836  0.71019873  0.73987498  1
  Te  Te90  1  0.74215794  0.06458237  0.07821967  1
  Te  Te91  1  0.73920272  0.09527149  0.41520798  1
  Te  Te92  1  0.74979756  0.06947354  0.72200300  1
  Te  Te93  1  0.75041004  0.41438573  0.07948811  1
  Te  Te94  1  0.69626284  0.43110822  0.38699073  1
  Te  Te95  1  0.75309401  0.40725705  0.75415684  1
  Te  Te96  1  0.82118769  0.79832538  0.06582276  1
  Te  Te97  1  0.77787403  0.72792616  0.40776050  1
  Te  Te98  1  0.74439604  0.76042058  0.75380036  1
  Te  Te99  1  0.06925426  0.23693527  0.23632872  1
  Te  Te100  1  0.10143477  0.26927822  0.55688443  1
  Te  Te101  1  0.08908334  0.25342295  0.93248523  1
  Te  Te102  1  0.11276368  0.56307234  0.27851047  1
  Te  Te103  1  0.08116216  0.57112466  0.58976489  1
  Te  Te104  1  0.07522850  0.57473420  0.91777983  1
  Te  Te105  1  0.10905244  0.85504663  0.27461949  1
  Te  Te106  1  0.08115571  0.93746515  0.59311414  1
  Te  Te107  1  0.10214360  0.92501589  0.92306198  1
  Te  Te108  1  0.43523032  0.24128190  0.28677173  1
  Te  Te109  1  0.42970521  0.25767861  0.57812873  1
  Te  Te110  1  0.40740078  0.25974751  0.93857190  1
  Te  Te111  1  0.41701683  0.60399284  0.25563781  1
  Te  Te112  1  0.41423492  0.62235282  0.61247256  1
  Te  Te113  1  0.43539467  0.58709526  0.93010296  1
  Te  Te114  1  0.40065490  0.89535746  0.25868763  1
  Te  Te115  1  0.38876747  0.89287772  0.57260877  1
  Te  Te116  1  0.42539217  0.91324673  0.91500353  1
  Te  Te117  1  0.72994419  0.26409317  0.25701204  1
  Te  Te118  1  0.75124750  0.27159090  0.56117920  1
  Te  Te119  1  0.76221240  0.23359273  0.91529790  1
  Te  Te120  1  0.73527963  0.53324944  0.27634500  1
  Te  Te121  1  0.73609901  0.58385675  0.57594932  1
  Te  Te122  1  0.72206820  0.62446316  0.93106861  1
  Te  Te123  1  0.76341193  0.88596862  0.25787049  1
  Te  Te124  1  0.73898344  0.91479548  0.57148789  1
  Te  Te125  1  0.74230337  0.90822625  0.89800819  1
  Te  Te126  1  0.25703914  0.27127027  0.11205940  1
  Te  Te127  1  0.24112828  0.26350123  0.40728625  1
  Te  Te128  1  0.24736991  0.26707131  0.75933781  1
  Te  Te129  1  0.23428259  0.56458237  0.08845091  1
  Te  Te130  1  0.27316247  0.58697712  0.42246988  1
  Te  Te131  1  0.24994771  0.62021979  0.74936178  1
  Te  Te132  1  0.26359419  0.90131658  0.09509921  1
  Te  Te133  1  0.21457877  0.90602264  0.41207288  1
  Te  Te134  1  0.24716797  0.90714197  0.76060832  1
  Te  Te135  1  0.57347177  0.26605269  0.09089711  1
  Te  Te136  1  0.56612818  0.25241461  0.37026551  1
  Te  Te137  1  0.57010841  0.26036623  0.76591118  1
  Te  Te138  1  0.64781014  0.60659453  0.06741122  1
  Te  Te139  1  0.57906465  0.60696326  0.43489037  1
  Te  Te140  1  0.57187918  0.59548782  0.75383606  1
  Te  Te141  1  0.59576224  0.89122157  0.09971866  1
  Te  Te142  1  0.58103714  0.92415845  0.40767171  1
  Te  Te143  1  0.54584566  0.93918415  0.75206988  1
  Te  Te144  1  0.88730974  0.24031677  0.09675661  1
  Te  Te145  1  0.91204686  0.25222570  0.40829600  1
  Te  Te146  1  0.93692243  0.20193361  0.76950302  1
  Te  Te147  1  0.88020431  0.59350781  0.09994285  1
  Te  Te148  1  0.86387394  0.53520854  0.48664138  1
  Te  Te149  1  0.87916749  0.59772490  0.76225177  1
  Te  Te150  1  0.95316734  0.86336499  0.11970622  1
  Te  Te151  1  0.92241705  0.89540953  0.40070992  1
  Te  Te152  1  0.93371637  0.92821197  0.75749469  1
  Te  Te153  1  0.26167455  0.08298864  0.23473670  1
  Te  Te154  1  0.24447868  0.11375315  0.59758632  1
  Te  Te155  1  0.25183398  0.09588092  0.89748121  1
  Te  Te156  1  0.26838321  0.39757094  0.27645749  1
  Te  Te157  1  0.24978906  0.42779293  0.57172209  1
  Te  Te158  1  0.24603414  0.43321066  0.90385110  1
  Te  Te159  1  0.20652879  0.74025575  0.23089983  1
  Te  Te160  1  0.26779089  0.76946164  0.56617680  1
  Te  Te161  1  0.26983939  0.76328149  0.92089385  1
  Te  Te162  1  0.57241754  0.07061707  0.23751324  1
  Te  Te163  1  0.58984662  0.09253106  0.56533942  1
  Te  Te164  1  0.58154723  0.06218903  0.87845334  1
  Te  Te165  1  0.60291173  0.45390591  0.23658810  1
  Te  Te166  1  0.57837667  0.43926565  0.58601349  1
  Te  Te167  1  0.57982569  0.43810282  0.92260943  1
  Te  Te168  1  0.59548733  0.75223080  0.23783834  1
  Te  Te169  1  0.57952526  0.77798626  0.57905900  1
  Te  Te170  1  0.58694882  0.74108970  0.92697693  1
  Te  Te171  1  0.90504711  0.05485511  0.24508971  1
  Te  Te172  1  0.90528660  0.07289749  0.57939738  1
  Te  Te173  1  0.92194086  0.07631651  0.93876834  1
  Te  Te174  1  0.91212935  0.43607350  0.28939387  1
  Te  Te175  1  0.93247805  0.39814987  0.57573219  1
  Te  Te176  1  0.91517670  0.41495646  0.92403646  1
  Te  Te177  1  0.96505805  0.66682023  0.27601070  1
  Te  Te178  1  0.90253458  0.75660784  0.57856834  1
  Te  Te179  1  0.90542167  0.74990584  0.93028678  1
