# generated using pymatgen
data_In2Te3
_symmetry_space_group_name_H-M   'P 1'
_cell_length_a   18.81252517
_cell_length_b   18.82491437
_cell_length_c   18.81348256
_cell_angle_alpha   89.98984932
_cell_angle_beta   90.07539299
_cell_angle_gamma   89.92656946
_symmetry_Int_Tables_number   1
_chemical_formula_structural   In2Te3
_chemical_formula_sum   'In72 Te108'
_cell_volume   6662.67392261
_cell_formula_units_Z   36
loop_
 _symmetry_equiv_pos_site_id
 _symmetry_equiv_pos_as_xyz
  1  'x, y, z'
loop_
 _atom_site_type_symbol
 _atom_site_label
 _atom_site_symmetry_multiplicity
 _atom_site_fract_x
 _atom_site_fract_y
 _atom_site_fract_z
 _atom_site_occupancy
  In  In0  1  0.49553791  0.81174001  0.63095359  1
  In  In1  1  0.32720266  0.82942138  0.17205107  1
  In  In2  1  0.65908305  0.35353931  0.34197361  1
  In  In3  1  0.49907345  0.48020311  0.67883593  1
  In  In4  1  0.15540107  0.49118919  0.67193866  1
  In  In5  1  0.33925696  0.00357712  0.02476780  1
  In  In6  1  0.31998798  0.34325102  -0.00214806  1
  In  In7  1  0.33521819  0.31030580  0.33147702  1
  In  In8  1  0.84480878  0.16804197  -0.02617078  1
  In  In9  1  0.83953466  0.64267874  0.82917392  1
  In  In10  1  0.48352541  0.65278936  0.83590608  1
  In  In11  1  0.01425900  0.82288498  0.17869947  1
  In  In12  1  0.31856073  -0.00800774  0.33138487  1
  In  In13  1  -0.02371191  0.48592556  0.51080759  1
  In  In14  1  0.66850942  0.50599137  0.82507421  1
  In  In15  1  0.16536871  0.35560508  0.82306354  1
  In  In16  1  0.84779703  0.01181266  0.81785912  1
  In  In17  1  0.00736339  0.67298908  0.69800673  1
  In  In18  1  0.32138723  0.50900292  0.15450793  1
  In  In19  1  -0.02177950  0.33676757  0.35210347  1
  In  In20  1  0.17774338  0.67873695  0.16884545  1
  In  In21  1  0.49594104  0.31617092  0.48240116  1
  In  In22  1  0.15323046  0.16779329  0.65530392  1
  In  In23  1  0.69582472  0.48188254  0.50918410  1
  In  In24  1  0.83230547  -0.01164203  0.17703147  1
  In  In25  1  0.32167694  0.84382621  0.49608054  1
  In  In26  1  0.65920377  -0.00779881  -0.01643218  1
  In  In27  1  0.00766218  -0.00445134  0.33692379  1
  In  In28  1  0.65420770  0.82324453  0.83888803  1
  In  In29  1  0.01664614  0.16519150  0.15672571  1
  In  In30  1  0.83105879  0.36315428  0.17859698  1
  In  In31  1  0.67086257  0.84184723  0.16741541  1
  In  In32  1  0.01178313  0.85916288  0.82316266  1
  In  In33  1  0.15616359  0.16569904  0.02204110  1
  In  In34  1  0.50718728  0.50891501  0.30932247  1
  In  In35  1  0.49123245  0.34002081  0.80251977  1
  In  In36  1  0.85905460  0.02219125  0.51657880  1
  In  In37  1  0.00120430  0.35763623  -0.00124488  1
  In  In38  1  -0.02065382  0.17739919  0.82442089  1
  In  In39  1  0.48287879  0.83273141  -0.01485541  1
  In  In40  1  -0.00056288  0.66353366  0.00325543  1
  In  In41  1  0.51475206  0.68769262  0.49908174  1
  In  In42  1  0.15664617  0.33553938  0.15168430  1
  In  In43  1  0.84442131  0.82621388  0.67508973  1
  In  In44  1  -0.00964994  0.68215657  0.34142357  1
  In  In45  1  0.48965301  0.84290813  0.35399768  1
  In  In46  1  0.50773382  0.14302226  0.00361593  1
  In  In47  1  0.00548694  0.49557600  0.83020320  1
  In  In48  1  0.31105219  0.50014671  0.50989493  1
  In  In49  1  0.67199598  -0.00069098  0.67048925  1
  In  In50  1  0.82862924  0.17658999  0.35952155  1
  In  In51  1  0.34055012  0.65785827  0.69429677  1
  In  In52  1  0.65760096  0.15009614  0.17324257  1
  In  In53  1  0.18781754  -0.01677150  0.82455617  1
  In  In54  1  0.83694741  0.64993692  0.17520292  1
  In  In55  1  0.51318898  0.00168043  0.49351300  1
  In  In56  1  0.82678347  0.65556630  0.49942907  1
  In  In57  1  0.16997783  0.15076156  0.35481612  1
  In  In58  1  0.13282170  0.50526143  0.33100753  1
  In  In59  1  0.48143650  0.00546442  0.85379161  1
  In  In60  1  0.69169653  0.33300779  0.00392718  1
  In  In61  1  0.17003517  0.67507308  0.49074081  1
  In  In62  1  0.49337793  0.16101315  0.67442148  1
  In  In63  1  0.84458238  0.81797767  0.02522369  1
  In  In64  1  0.32644467  0.16008292  0.52333092  1
  In  In65  1  0.34174524  0.17246426  0.82292769  1
  In  In66  1  0.02510994  0.86859560  0.52176496  1
  In  In67  1  0.68018380  0.66402612  0.32790585  1
  In  In68  1  0.52316511  0.17203363  0.32890513  1
  In  In69  1  0.84737984  0.33761019  0.79719576  1
  In  In70  1  0.49883291  0.50601136  0.00567081  1
  In  In71  1  0.49134496  0.66785437  0.14538234  1
  Te  Te72  1  0.10081749  0.05591916  0.10454852  1
  Te  Te73  1  0.06566650  0.08756377  0.44042522  1
  Te  Te74  1  0.08865105  0.08742995  0.76731491  1
  Te  Te75  1  0.09530812  0.44418607  0.07253643  1
  Te  Te76  1  0.08654156  0.40912435  0.43872138  1
  Te  Te77  1  0.05295532  0.39058889  0.72581347  1
  Te  Te78  1  0.09655346  0.76247407  0.06521440  1
  Te  Te79  1  0.08646154  0.77524591  0.41341115  1
  Te  Te80  1  0.10893572  0.76177972  0.76040410  1
  Te  Te81  1  0.42694749  0.08478635  0.11088148  1
  Te  Te82  1  0.41381857  0.09322539  0.41619255  1
  Te  Te83  1  0.39650035  0.06041603  0.73674034  1
  Te  Te84  1  0.41894056  0.40884478  0.09452123  1
  Te  Te85  1  0.41481473  0.42540951  0.41094037  1
  Te  Te86  1  0.38552066  0.43321651  0.76014764  1
  Te  Te87  1  0.38821611  0.74099967  0.06093187  1
  Te  Te88  1  0.39770838  0.73881813  0.41414477  1
  Te  Te89  1  0.42381996  0.77651393  0.75922311  1
  Te  Te90  1  0.75642050  0.07966425  0.06788974  1
  Te  Te91  1  0.74930027  0.07965147  0.43503016  1
  Te  Te92  1  0.75703140  0.09815137  0.74108583  1
  Te  Te93  1  0.75497772  0.44179964  0.07971018  1
  Te  Te94  1  0.78011250  0.40041910  0.41606574  1
  Te  Te95  1  0.73236692  0.40938885  0.72842838  1
  Te  Te96  1  0.73557178  0.73385325  0.08305509  1
  Te  Te97  1  0.75201509  0.75441319  0.41893534  1
  Te  Te98  1  0.74608691  0.73907122  0.75098050  1
  Te  Te99  1  0.08308136  0.25528055  0.26313244  1
  Te  Te100  1  0.05386798  0.22418094  0.55750628  1
  Te  Te101  1  0.08324428  0.25489376  0.91792799  1
  Te  Te102  1  0.06310941  0.59969480  0.23524483  1
  Te  Te103  1  0.07841220  0.58760985  0.57500013  1
  Te  Te104  1  0.08308476  0.60197221  0.89607801  1
  Te  Te105  1  0.09986062  0.91886999  0.25141398  1
  Te  Te106  1  0.12200411  0.93722933  0.61214469  1
  Te  Te107  1  0.10574867  0.91192474  0.92484437  1
  Te  Te108  1  0.43743711  0.25558959  0.24235406  1
  Te  Te109  1  0.41029083  0.26480310  0.59680927  1
  Te  Te110  1  0.42528862  0.25015277  0.92396345  1
  Te  Te111  1  0.40106713  0.59957965  0.24852296  1
  Te  Te112  1  0.42059897  0.58565326  0.57661495  1
  Te  Te113  1  0.39130981  0.57040819  0.92290525  1
  Te  Te114  1  0.42398185  0.92468152  0.24436101  1
  Te  Te115  1  0.41301122  0.92975560  0.58376640  1
  Te  Te116  1  0.37643006  0.90905775  0.90716020  1
  Te  Te117  1  0.75280340  0.24900086  0.24535658  1
  Te  Te118  1  0.76935424  0.29595667  0.62047272  1
  Te  Te119  1  0.75250081  0.25264423  0.89045656  1
  Te  Te120  1  0.75315974  0.55871555  0.25665787  1
  Te  Te121  1  0.75232939  0.58147640  0.60211095  1
  Te  Te122  1  0.74205944  0.58682941  0.92329263  1
  Te  Te123  1  0.73906080  0.92338195  0.26925402  1
  Te  Te124  1  0.76323544  0.91560812  0.58295668  1
  Te  Te125  1  0.76321262  0.90943888  0.90870682  1
  Te  Te126  1  0.26463637  0.24201028  0.09880893  1
  Te  Te127  1  0.24240330  0.25706804  0.43901949  1
  Te  Te128  1  0.24766786  0.25734921  0.73984693  1
  Te  Te129  1  0.23569213  0.58869161  0.06551395  1
  Te  Te130  1  0.24690314  0.58291772  0.39754652  1
  Te  Te131  1  0.22758182  0.58365461  0.76587522  1
  Te  Te132  1  0.23978994  0.91337139  0.08499389  1
  Te  Te133  1  0.22453809  0.93085575  0.42692248  1
  Te  Te134  1  0.22179018  0.88286907  0.71958557  1
  Te  Te135  1  0.58923140  0.24960158  0.08021055  1
  Te  Te136  1  0.61650202  0.23806467  0.43092383  1
  Te  Te137  1  0.58969317  0.25250998  0.73871910  1
  Te  Te138  1  0.59210772  0.57118352  0.09984380  1
  Te  Te139  1  0.58784286  0.57156184  0.42478756  1
  Te  Te140  1  0.58196907  0.59476821  0.73425496  1
  Te  Te141  1  0.56949658  0.91842701  0.07933532  1
  Te  Te142  1  0.60012126  0.89971057  0.43237338  1
  Te  Te143  1  0.57164876  0.92022174  0.75481107  1
  Te  Te144  1  0.91578825  0.25461733  0.08029813  1
  Te  Te145  1  0.92517406  0.24057002  0.45592430  1
  Te  Te146  1  0.89604317  0.22378020  0.70597720  1
  Te  Te147  1  0.91126024  0.57082815  0.07466084  1
  Te  Te148  1  0.90788206  0.56982102  0.40254457  1
  Te  Te149  1  0.91058903  0.55895303  0.72405470  1
  Te  Te150  1  0.93337132  0.92325352  0.08515150  1
  Te  Te151  1  0.91457420  0.91214592  0.42272786  1
  Te  Te152  1  0.93707365  0.93954275  0.71741555  1
  Te  Te153  1  0.25189976  0.09381339  0.24703545  1
  Te  Te154  1  0.23117800  0.06090454  0.58202494  1
  Te  Te155  1  0.25488422  0.09761719  0.92240452  1
  Te  Te156  1  0.24260209  0.41604966  0.25898097  1
  Te  Te157  1  0.23691977  0.40098919  0.58799033  1
  Te  Te158  1  0.22688688  0.43577950  0.93066109  1
  Te  Te159  1  0.24157273  0.76206086  0.27194456  1
  Te  Te160  1  0.25593078  0.74520514  0.59307411  1
  Te  Te161  1  0.31055092  0.69073114  0.84977998  1
  Te  Te162  1  0.59291903  0.05728065  0.26597400  1
  Te  Te163  1  0.59476133  0.09704717  0.57967904  1
  Te  Te164  1  0.59931940  0.09623119  0.89000593  1
  Te  Te165  1  0.58326524  0.41077565  0.23045506  1
  Te  Te166  1  0.58109967  0.40356487  0.57605525  1
  Te  Te167  1  0.57976955  0.41119776  0.91384281  1
  Te  Te168  1  0.56969185  0.75085159  0.25169855  1
  Te  Te169  1  0.62032505  0.75472837  0.57917035  1
  Te  Te170  1  0.57997169  0.72852484  0.93120641  1
  Te  Te171  1  0.91453491  0.09718370  0.25153286  1
  Te  Te172  1  0.95321903  0.10863367  0.59399334  1
  Te  Te173  1  0.94398007  0.06475802  0.92575963  1
  Te  Te174  1  0.94848360  0.42717196  0.23917299  1
  Te  Te175  1  0.86561532  0.39714558  0.56326898  1
  Te  Te176  1  0.89624093  0.42642487  0.91298358  1
  Te  Te177  1  0.89569355  0.76637180  0.25581442  1
  Te  Te178  1  0.93869885  0.74734240  0.58048588  1
  Te  Te179  1  0.91423002  0.75954381  0.90188356  1
