# generated using pymatgen
data_In2Te3
_symmetry_space_group_name_H-M   'P 1'
_cell_length_a   18.99313461
_cell_length_b   18.98677693
_cell_length_c   19.00415436
_cell_angle_alpha   90.00875704
_cell_angle_beta   89.95958931
_cell_angle_gamma   90.04975029
_symmetry_Int_Tables_number   1
_chemical_formula_structural   In2Te3
_chemical_formula_sum   'In72 Te108'
_cell_volume   6853.24356269
_cell_formula_units_Z   36
loop_
 _symmetry_equiv_pos_site_id
 _symmetry_equiv_pos_as_xyz
  1  'x, y, z'
loop_
 _atom_site_type_symbol
 _atom_site_label
 _atom_site_symmetry_multiplicity
 _atom_site_fract_x
 _atom_site_fract_y
 _atom_site_fract_z
 _atom_site_occupancy
  In  In0  1  0.01909720  -0.01875407  0.34144639  1
  In  In1  1  0.83542306  0.31410790  0.81466655  1
  In  In2  1  0.17581573  -0.00656216  0.17615788  1
  In  In3  1  0.84001862  0.11817778  0.67005735  1
  In  In4  1  0.49236795  0.55693970  -0.03374636  1
  In  In5  1  0.82751009  -0.01288652  0.17139832  1
  In  In6  1  0.65904961  -0.00617389  0.67783939  1
  In  In7  1  -0.01809032  0.66911240  -0.00402454  1
  In  In8  1  0.17541092  0.68759100  0.51441216  1
  In  In9  1  0.30908033  -0.01604923  0.70917846  1
  In  In10  1  0.84472337  0.66821255  0.17415364  1
  In  In11  1  0.02171386  0.12230893  0.84103565  1
  In  In12  1  -0.00454877  0.16807528  0.51027528  1
  In  In13  1  0.01037473  0.32751509  0.02377118  1
  In  In14  1  0.00632767  0.82435542  0.49500205  1
  In  In15  1  0.19375912  0.33480516  0.84994071  1
  In  In16  1  0.01906416  0.32641121  0.34448887  1
  In  In17  1  0.82506070  0.33488326  0.16774368  1
  In  In18  1  0.35240633  0.50334266  0.51015518  1
  In  In19  1  0.86092462  0.16102396  0.32565420  1
  In  In20  1  0.18140947  0.33669123  0.17468123  1
  In  In21  1  0.48230692  0.14029803  0.01107825  1
  In  In22  1  0.48616381  0.68215913  0.17842307  1
  In  In23  1  0.50942237  0.33436760  0.16835584  1
  In  In24  1  0.17645415  0.51205292  0.64938995  1
  In  In25  1  0.82799083  0.68609382  0.82008525  1
  In  In26  1  0.19269197  0.13731230  -0.02263335  1
  In  In27  1  0.49422676  0.34088717  0.83871547  1
  In  In28  1  0.83464898  0.82604987  -0.00885650  1
  In  In29  1  0.15976148  0.68893361  0.82793410  1
  In  In30  1  0.17315592  0.15334044  0.70918884  1
  In  In31  1  0.66463323  0.53548613  0.82473748  1
  In  In32  1  0.02695940  0.51096315  0.82838715  1
  In  In33  1  0.48389193  0.53617530  0.71979454  1
  In  In34  1  0.69759747  0.19564794  0.48495306  1
  In  In35  1  0.01479534  0.48284874  0.17146349  1
  In  In36  1  0.52976429  0.37077502  0.49982481  1
  In  In37  1  0.80900887  0.51938377  0.35494188  1
  In  In38  1  0.65679397  -0.04081553  -0.02936618  1
  In  In39  1  0.01542324  -0.01467563  0.00820502  1
  In  In40  1  0.33906037  0.50583264  0.18355361  1
  In  In41  1  0.15275101  -0.01221578  0.50443809  1
  In  In42  1  0.33258096  0.14837919  0.16711340  1
  In  In43  1  0.47580094  0.16925102  0.32202433  1
  In  In44  1  0.66063021  0.82495058  0.17371042  1
  In  In45  1  -0.00099472  0.66687614  0.68173615  1
  In  In46  1  0.16172011  0.34554390  0.49672609  1
  In  In47  1  0.33133437  0.84515301  0.50819723  1
  In  In48  1  0.49995959  0.01509360  0.49263984  1
  In  In49  1  0.50331599  0.79809916  -0.01008036  1
  In  In50  1  0.66985834  0.82021200  0.48462350  1
  In  In51  1  0.35765399  0.34285190  -0.00506914  1
  In  In52  1  0.51505841  0.17377120  0.67109149  1
  In  In53  1  0.65465725  0.14383113  0.13534551  1
  In  In54  1  0.80366006  0.52836341  0.63814027  1
  In  In55  1  -0.02055297  0.34423094  0.65603020  1
  In  In56  1  0.82459437  0.47637681  -0.02445404  1
  In  In57  1  0.69088634  0.34313291  0.32513916  1
  In  In58  1  0.67260606  0.51688814  0.16002996  1
  In  In59  1  0.66156023  0.33188127  0.66055512  1
  In  In60  1  0.50321964  0.64916736  0.50596689  1
  In  In61  1  0.49728892  -0.01233249  0.82743451  1
  In  In62  1  0.83357669  0.85607977  0.66905335  1
  In  In63  1  0.00160649  0.67074812  0.32189783  1
  In  In64  1  0.44997145  -0.05165092  0.18327861  1
  In  In65  1  0.66194703  0.01399152  0.32106376  1
  In  In66  1  0.15888872  0.83101818  0.01018319  1
  In  In67  1  0.46556289  0.81862826  0.68755106  1
  In  In68  1  0.19120339  0.66699608  0.16425552  1
  In  In69  1  0.85955918  0.17276818  -0.02446468  1
  In  In70  1  0.32265625  0.67434114  0.33973394  1
  In  In71  1  0.32397763  0.18679334  0.51539161  1
  Te  Te72  1  0.09369553  0.09079672  0.07930732  1
  Te  Te73  1  0.08929172  0.09556472  0.41731250  1
  Te  Te74  1  0.07252703  0.04452447  0.72476401  1
  Te  Te75  1  0.11388297  0.42673872  0.06966577  1
  Te  Te76  1  0.06673717  0.43368890  0.42801524  1
  Te  Te77  1  0.09035946  0.40418740  0.74242868  1
  Te  Te78  1  0.07258702  0.73652406  0.09461066  1
  Te  Te79  1  0.10306408  0.75481362  0.39984595  1
  Te  Te80  1  0.08642629  0.77458396  0.72992744  1
  Te  Te81  1  0.38614712  0.04072973  0.07264234  1
  Te  Te82  1  0.39241030  0.08548807  0.41421930  1
  Te  Te83  1  0.41760959  0.08823975  0.74704835  1
  Te  Te84  1  0.44050565  0.43762682  0.08084773  1
  Te  Te85  1  0.42366183  0.41804339  0.41393482  1
  Te  Te86  1  0.40423442  0.41695073  0.75402724  1
  Te  Te87  1  0.39797891  0.74431728  0.07811557  1
  Te  Te88  1  0.41793309  0.75236059  0.42724861  1
  Te  Te89  1  0.38217002  0.77529168  0.80359307  1
  Te  Te90  1  0.75025805  0.05466498  0.05963225  1
  Te  Te91  1  0.76465434  0.08121941  0.41160710  1
  Te  Te92  1  0.73878664  0.07836132  0.76645753  1
  Te  Te93  1  0.73163721  0.40654468  0.07352863  1
  Te  Te94  1  0.73108882  0.42543627  0.43950090  1
  Te  Te95  1  0.74763911  0.42563948  0.75424457  1
  Te  Te96  1  0.74755598  0.74175751  0.08205984  1
  Te  Te97  1  0.77284042  0.72057254  0.44630002  1
  Te  Te98  1  0.74965315  0.73907309  0.70898621  1
  Te  Te99  1  0.07538564  0.25407640  0.23317870  1
  Te  Te100  1  0.09024718  0.24535001  0.59872481  1
  Te  Te101  1  0.08312100  0.24078132  0.91967381  1
  Te  Te102  1  0.10006408  0.57880748  0.25076585  1
  Te  Te103  1  0.07197267  0.58992298  0.57452136  1
  Te  Te104  1  0.09324289  0.58740100  0.93522151  1
  Te  Te105  1  0.08763468  0.89829904  0.24357336  1
  Te  Te106  1  0.10551945  0.87844994  0.59333010  1
  Te  Te107  1  0.08658392  0.90910421  0.90329527  1
  Te  Te108  1  0.39540179  0.26863794  0.24164981  1
  Te  Te109  1  0.44463807  0.26074125  0.57113441  1
  Te  Te110  1  0.41326473  0.22934649  0.91126913  1
  Te  Te111  1  0.42789427  0.58298640  0.27917393  1
  Te  Te112  1  0.40273597  0.60481767  0.61056349  1
  Te  Te113  1  0.42168396  0.63261136  0.85626151  1
  Te  Te114  1  0.35164109  0.90001156  0.27996979  1
  Te  Te115  1  0.42291091  0.94219724  0.60070468  1
  Te  Te116  1  0.41829256  0.89281269  0.90996807  1
  Te  Te117  1  0.73963321  0.22028898  0.23671687  1
  Te  Te118  1  0.77260821  0.24735140  0.60269280  1
  Te  Te119  1  0.75442919  0.25589023  0.92162473  1
  Te  Te120  1  0.73301330  0.61196793  0.26130157  1
  Te  Te121  1  0.71863680  0.60715814  0.54187394  1
  Te  Te122  1  0.75668970  0.60252384  0.92640183  1
  Te  Te123  1  0.75144815  0.90177904  0.26975307  1
  Te  Te124  1  0.73926832  0.92533031  0.56956762  1
  Te  Te125  1  0.74366765  0.87703148  0.88814929  1
  Te  Te126  1  0.26024732  0.24565431  0.06751675  1
  Te  Te127  1  0.24270134  0.25444233  0.41593581  1
  Te  Te128  1  0.26931197  0.25192378  0.75640800  1
  Te  Te129  1  0.28881299  0.59725050  0.07904787  1
  Te  Te130  1  0.24728876  0.58169738  0.43239012  1
  Te  Te131  1  0.23591272  0.57997458  0.76325996  1
  Te  Te132  1  0.25237513  0.93226513  0.06534957  1
  Te  Te133  1  0.25045978  0.92293163  0.41111682  1
  Te  Te134  1  0.21803560  0.92201581  0.80650383  1
  Te  Te135  1  0.57687371  0.25031493  0.06222709  1
  Te  Te136  1  0.58370436  0.24726140  0.39437695  1
  Te  Te137  1  0.59767608  0.25067987  0.77073666  1
  Te  Te138  1  0.57894700  0.60516165  0.08238772  1
  Te  Te139  1  0.60638654  0.56044390  0.44867405  1
  Te  Te140  1  0.59415728  0.63709126  0.74289646  1
  Te  Te141  1  0.56977059  0.91203328  0.08596055  1
  Te  Te142  1  0.57678444  0.92095678  0.40502754  1
  Te  Te143  1  0.58489580  0.88683993  0.75537231  1
  Te  Te144  1  0.91790568  0.23453903  0.10077556  1
  Te  Te145  1  0.90840733  0.26264407  0.42649779  1
  Te  Te146  1  0.93625113  0.22105298  0.75009332  1
  Te  Te147  1  0.91052093  0.55482563  0.07839634  1
  Te  Te148  1  0.89811393  0.62157151  0.41912239  1
  Te  Te149  1  0.90458810  0.56282247  0.75596116  1
  Te  Te150  1  0.92120421  0.89868073  0.09037083  1
  Te  Te151  1  0.91702051  0.92097960  0.42848556  1
  Te  Te152  1  0.92876126  0.96427929  0.70282968  1
  Te  Te153  1  0.24103530  0.09200847  0.26396019  1
  Te  Te154  1  0.25040693  0.07465475  0.59279136  1
  Te  Te155  1  0.24528934  0.06283216  0.86090010  1
  Te  Te156  1  0.24261240  0.43249251  0.26511358  1
  Te  Te157  1  0.26513805  0.40687628  0.58948354  1
  Te  Te158  1  0.27994406  0.43588564  0.91151387  1
  Te  Te159  1  0.27415729  0.77173866  0.23536442  1
  Te  Te160  1  0.25848949  0.76480107  0.60744913  1
  Te  Te161  1  0.24618003  0.73555033  0.93705516  1
  Te  Te162  1  0.55081916  0.07464547  0.22836903  1
  Te  Te163  1  0.60240957  0.10135910  0.56772961  1
  Te  Te164  1  0.58293297  0.07889493  0.91450645  1
  Te  Te165  1  0.59020204  0.42969054  0.25388558  1
  Te  Te166  1  0.56913124  0.44441669  0.62349212  1
  Te  Te167  1  0.57996218  0.44517293  0.91222967  1
  Te  Te168  1  0.57409395  0.75705196  0.26998916  1
  Te  Te169  1  0.56348938  0.76945795  0.57854907  1
  Te  Te170  1  0.55913915  0.69823986  0.89193100  1
  Te  Te171  1  0.93659658  0.06756100  0.23788157  1
  Te  Te172  1  0.92356925  0.04851034  0.56610673  1
  Te  Te173  1  0.91070588  0.04709740  0.91244320  1
  Te  Te174  1  0.89600174  0.43464300  0.25515705  1
  Te  Te175  1  0.90450310  0.44075125  0.57688005  1
  Te  Te176  1  0.93579569  0.39958198  0.90609975  1
  Te  Te177  1  0.92126320  0.76807178  0.24681974  1
  Te  Te178  1  0.91216272  0.75021685  0.59084743  1
  Te  Te179  1  0.93503428  0.76591729  0.88971865  1
