# generated using pymatgen
data_In2Te3
_symmetry_space_group_name_H-M   'P 1'
_cell_length_a   18.99343350
_cell_length_b   18.98851602
_cell_length_c   18.99870368
_cell_angle_alpha   89.98128946
_cell_angle_beta   90.09038145
_cell_angle_gamma   89.84065360
_symmetry_Int_Tables_number   1
_chemical_formula_structural   In2Te3
_chemical_formula_sum   'In72 Te108'
_cell_volume   6851.98228728
_cell_formula_units_Z   36
loop_
 _symmetry_equiv_pos_site_id
 _symmetry_equiv_pos_as_xyz
  1  'x, y, z'
loop_
 _atom_site_type_symbol
 _atom_site_label
 _atom_site_symmetry_multiplicity
 _atom_site_fract_x
 _atom_site_fract_y
 _atom_site_fract_z
 _atom_site_occupancy
  In  In0  1  -0.00137243  0.16417191  0.51161218  1
  In  In1  1  0.32633143  0.65704431  0.32784112  1
  In  In2  1  0.86034415  0.67347598  0.84647020  1
  In  In3  1  0.18301335  -0.02649511  0.16854349  1
  In  In4  1  0.28999209  0.18159409  0.13063379  1
  In  In5  1  0.34001159  0.48068592  0.16521596  1
  In  In6  1  0.31647861  -0.00827265  0.65733228  1
  In  In7  1  0.81850341  0.47889563  0.68170428  1
  In  In8  1  0.52301872  0.14872568  0.63719389  1
  In  In9  1  0.14483798  0.49569831  0.30228469  1
  In  In10  1  0.68884053  0.00802484  -0.00874410  1
  In  In11  1  0.04728499  0.30397211  -0.00323403  1
  In  In12  1  0.67628628  0.29060795  0.63306513  1
  In  In13  1  0.81164452  0.48001094  0.00812387  1
  In  In14  1  -0.03070800  0.31805682  0.69133993  1
  In  In15  1  0.70217093  0.19346728  0.87060384  1
  In  In16  1  0.66225591  0.48503701  0.17813348  1
  In  In17  1  0.34309553  0.84193860  0.48691522  1
  In  In18  1  0.50287942  0.33330671  0.16035735  1
  In  In19  1  0.68100984  0.84094624  0.15201011  1
  In  In20  1  0.49062613  0.01746010  0.16519050  1
  In  In21  1  0.14652325  0.49086718  0.00085909  1
  In  In22  1  0.66967318  0.66714873  0.35292817  1
  In  In23  1  0.48899413  0.33297922  0.84153489  1
  In  In24  1  0.34078511  0.00017400  0.31737940  1
  In  In25  1  0.00426619  0.68843315  -0.00116010  1
  In  In26  1  0.50217493  0.16717234  0.33719808  1
  In  In27  1  0.17877786  0.82255673  0.33207929  1
  In  In28  1  0.48654325  -0.00482333  0.82040321  1
  In  In29  1  0.66538665  0.01706314  0.65382562  1
  In  In30  1  0.31838469  0.85280150  0.85402946  1
  In  In31  1  0.49788456  0.68773656  0.17750789  1
  In  In32  1  0.84198707  0.67345193  0.16161086  1
  In  In33  1  0.33350124  0.31832074  0.66195490  1
  In  In34  1  0.15807590  0.83754576  0.00343651  1
  In  In35  1  0.50200514  0.52936047  0.64418763  1
  In  In36  1  0.67373612  0.66622266  -0.02387952  1
  In  In37  1  0.32140133  0.67867294  0.01536254  1
  In  In38  1  0.32034284  0.67431710  0.68603540  1
  In  In39  1  -0.00090236  0.66812934  0.33269046  1
  In  In40  1  0.84055548  0.02357159  0.82635709  1
  In  In41  1  0.12866830  0.15507929  0.69959215  1
  In  In42  1  0.84032455  0.46501666  0.32595924  1
  In  In43  1  0.30332867  0.47871432  0.82385281  1
  In  In44  1  0.49681096  0.68834961  0.49553189  1
  In  In45  1  -0.01470051  0.49472819  0.85580262  1
  In  In46  1  0.83592021  -0.01622805  0.16584282  1
  In  In47  1  0.01624939  0.18419471  0.16023139  1
  In  In48  1  0.48689792  0.51145409  0.00903817  1
  In  In49  1  0.02254949  0.69422950  0.69817254  1
  In  In50  1  0.13324218  -0.00638223  0.53880941  1
  In  In51  1  -0.01065724  0.32300451  0.31528367  1
  In  In52  1  0.18201394  0.32901078  0.48673608  1
  In  In53  1  0.29530550  0.13564240  0.83732121  1
  In  In54  1  0.34658962  0.32935922  0.32850284  1
  In  In55  1  0.65017956  0.47532677  0.81132875  1
  In  In56  1  -0.00745833  0.49281238  0.52777611  1
  In  In57  1  0.00783347  -0.00209854  0.35535988  1
  In  In58  1  0.67243704  0.86712240  0.48850906  1
  In  In59  1  0.66495454  0.16387296  0.17165634  1
  In  In60  1  0.47437753  0.70940839  0.87776519  1
  In  In61  1  0.67839784  0.48257303  0.48429633  1
  In  In62  1  0.52923885  0.85095112  0.66261926  1
  In  In63  1  0.68977316  0.67796852  0.70378201  1
  In  In64  1  -0.01900672  0.01449943  -0.00533112  1
  In  In65  1  0.50260182  0.33232706  0.47876321  1
  In  In66  1  0.13235821  0.47901058  0.66235029  1
  In  In67  1  0.85826892  0.00966082  0.52391419  1
  In  In68  1  0.82352421  0.14807273  0.33153451  1
  In  In69  1  0.18499820  0.67927844  0.48161566  1
  In  In70  1  0.85243805  0.67225425  0.52685476  1
  In  In71  1  0.48561767  0.16214464  -0.00725686  1
  Te  Te72  1  0.08035302  0.06259403  0.09721989  1
  Te  Te73  1  0.09996937  0.09446783  0.42534132  1
  Te  Te74  1  0.07849211  0.03726504  0.77396716  1
  Te  Te75  1  0.04805615  0.42208676  0.08636704  1
  Te  Te76  1  0.07184704  0.41966311  0.42210914  1
  Te  Te77  1  0.07015565  0.39887821  0.77321538  1
  Te  Te78  1  0.09338285  0.74666958  0.09967962  1
  Te  Te79  1  0.07241944  0.76211621  0.42683492  1
  Te  Te80  1  0.11543499  0.80482837  0.72429156  1
  Te  Te81  1  0.38641024  0.07988390  0.07059334  1
  Te  Te82  1  0.42059157  0.07372433  0.41636187  1
  Te  Te83  1  0.41039351  0.09420299  0.73600222  1
  Te  Te84  1  0.40542598  0.39428885  0.05964158  1
  Te  Te85  1  0.41089679  0.42693107  0.41628258  1
  Te  Te86  1  0.42052408  0.42763458  0.73556264  1
  Te  Te87  1  0.44931119  0.74413988  0.04901225  1
  Te  Te88  1  0.42220612  0.76220970  0.38699229  1
  Te  Te89  1  0.42098271  0.77322943  0.74337548  1
  Te  Te90  1  0.76860745  0.09409945  0.08514964  1
  Te  Te91  1  0.75449960  0.07343941  0.43859414  1
  Te  Te92  1  0.73943045  0.11073633  0.75239743  1
  Te  Te93  1  0.74991106  0.39026886  0.10755865  1
  Te  Te94  1  0.73876349  0.38500673  0.39453123  1
  Te  Te95  1  0.74067937  0.37140634  0.75141943  1
  Te  Te96  1  0.76549000  0.75497076  0.05896408  1
  Te  Te97  1  0.76078674  0.75394080  0.43574668  1
  Te  Te98  1  0.77627240  0.77005930  0.77394559  1
  Te  Te99  1  0.10108552  0.24842320  0.26052864  1
  Te  Te100  1  0.08234948  0.26718542  0.59276348  1
  Te  Te101  1  0.12062610  0.18967750  0.92733665  1
  Te  Te102  1  0.08558576  0.60833011  0.23036045  1
  Te  Te103  1  0.08618078  0.60302315  0.57604018  1
  Te  Te104  1  0.08512315  0.59295247  0.90794577  1
  Te  Te105  1  0.07790640  0.90586587  0.25548209  1
  Te  Te106  1  0.05291703  0.90002098  0.61892338  1
  Te  Te107  1  0.09445830  0.94616122  0.91840629  1
  Te  Te108  1  0.41114721  0.22874745  0.22234616  1
  Te  Te109  1  0.42189530  0.23856638  0.56821484  1
  Te  Te110  1  0.38977615  0.24068292  0.90529813  1
  Te  Te111  1  0.42707713  0.57432377  0.24648510  1
  Te  Te112  1  0.39432362  0.60428698  0.57076217  1
  Te  Te113  1  0.40177152  0.57606733  0.90086739  1
  Te  Te114  1  0.41656953  0.91013305  0.23220565  1
  Te  Te115  1  0.43001847  0.92858211  0.57799725  1
  Te  Te116  1  0.41368491  0.93281829  0.92916383  1
  Te  Te117  1  0.76341976  0.24736059  0.24084419  1
  Te  Te118  1  0.80589129  0.24924706  0.58341131  1
  Te  Te119  1  0.78129706  0.28598433  0.95182213  1
  Te  Te120  1  0.75456207  0.58335371  0.25804250  1
  Te  Te121  1  0.74161564  0.57779609  0.59303126  1
  Te  Te122  1  0.75064523  0.56649780  0.88991210  1
  Te  Te123  1  0.75030992  0.91146728  0.25990292  1
  Te  Te124  1  0.75990327  0.91265549  0.60091227  1
  Te  Te125  1  0.78419728  0.92491315  0.91993555  1
  Te  Te126  1  0.19248359  0.25991354  0.04715472  1
  Te  Te127  1  0.27542566  0.24024666  0.41999010  1
  Te  Te128  1  0.23778148  0.25161561  0.75589511  1
  Te  Te129  1  0.24686994  0.57040724  0.08608733  1
  Te  Te130  1  0.23877807  0.56146871  0.40514907  1
  Te  Te131  1  0.22052215  0.57639313  0.74338859  1
  Te  Te132  1  0.26836845  0.89223170  0.08284927  1
  Te  Te133  1  0.23370333  0.92968613  0.43071842  1
  Te  Te134  1  0.23048876  0.92149379  0.75454558  1
  Te  Te135  1  0.58614479  0.24534492  0.06987458  1
  Te  Te136  1  0.60057187  0.25597067  0.40219781  1
  Te  Te137  1  0.56824076  0.25133800  0.74176945  1
  Te  Te138  1  0.59655118  0.59065837  0.08589749  1
  Te  Te139  1  0.57291179  0.57646139  0.42463960  1
  Te  Te140  1  0.57324946  0.59715124  0.75928593  1
  Te  Te141  1  0.58819224  0.93521807  0.07743270  1
  Te  Te142  1  0.55733951  0.94756564  0.45299549  1
  Te  Te143  1  0.60888733  0.92555799  0.76525253  1
  Te  Te144  1  0.92693956  0.25045686  0.06346290  1
  Te  Te145  1  0.91139234  0.24164090  0.41479845  1
  Te  Te146  1  0.94059783  0.20221685  0.77533454  1
  Te  Te147  1  0.90904784  0.58314948  0.06092145  1
  Te  Te148  1  0.90283963  0.56844085  0.42688926  1
  Te  Te149  1  0.92534645  0.57292145  0.73462426  1
  Te  Te150  1  0.91511132  0.90758913  0.07054019  1
  Te  Te151  1  0.92551616  0.91231117  0.43815807  1
  Te  Te152  1  0.94689632  0.97715143  0.72855053  1
  Te  Te153  1  0.24356542  0.09121668  0.24471243  1
  Te  Te154  1  0.22926670  0.09823892  0.59646050  1
  Te  Te155  1  0.20745320  0.06345794  0.93080236  1
  Te  Te156  1  0.23858676  0.39635569  0.23802131  1
  Te  Te157  1  0.25143763  0.42159568  0.58592722  1
  Te  Te158  1  0.23625339  0.40072254  0.92506106  1
  Te  Te159  1  0.25758725  0.74631460  0.23501444  1
  Te  Te160  1  0.25403633  0.76646246  0.58418656  1
  Te  Te161  1  0.23849144  0.73788825  0.90596047  1
  Te  Te162  1  0.59344015  0.06905344  0.26391163  1
  Te  Te163  1  0.60425109  0.07945632  0.53072245  1
  Te  Te164  1  0.58539653  0.09428937  0.90081134  1
  Te  Te165  1  0.56762682  0.41384342  0.26301206  1
  Te  Te166  1  0.58726924  0.41630402  0.59208251  1
  Te  Te167  1  0.58007819  0.41543204  0.93064490  1
  Te  Te168  1  0.59897521  0.76324523  0.25953969  1
  Te  Te169  1  0.60361812  0.74283427  0.58759640  1
  Te  Te170  1  0.60000735  0.77385118  0.90886814  1
  Te  Te171  1  0.93229329  0.08145299  0.25124988  1
  Te  Te172  1  0.91342865  0.10949483  0.62312535  1
  Te  Te173  1  0.92045362  0.12244214  0.90782010  1
  Te  Te174  1  0.93719068  0.42636495  0.22322467  1
  Te  Te175  1  0.88772520  0.39178804  0.57478326  1
  Te  Te176  1  0.87874879  0.39834888  0.89979171  1
  Te  Te177  1  0.90188266  0.75502529  0.26566993  1
  Te  Te178  1  0.91872145  0.76370934  0.61987332  1
  Te  Te179  1  0.96666727  0.76759927  0.87947567  1
