# generated using pymatgen
data_In2Te3
_symmetry_space_group_name_H-M   'P 1'
_cell_length_a   18.75614879
_cell_length_b   18.75382966
_cell_length_c   18.75267312
_cell_angle_alpha   90.09732406
_cell_angle_beta   90.09547845
_cell_angle_gamma   90.01506947
_symmetry_Int_Tables_number   1
_chemical_formula_structural   In2Te3
_chemical_formula_sum   'In72 Te108'
_cell_volume   6596.22672589
_cell_formula_units_Z   36
loop_
 _symmetry_equiv_pos_site_id
 _symmetry_equiv_pos_as_xyz
  1  'x, y, z'
loop_
 _atom_site_type_symbol
 _atom_site_label
 _atom_site_symmetry_multiplicity
 _atom_site_fract_x
 _atom_site_fract_y
 _atom_site_fract_z
 _atom_site_occupancy
  In  In0  1  0.49145881  0.18291020  0.67357897  1
  In  In1  1  0.17762539  0.33708179  0.49620137  1
  In  In2  1  -0.03162847  0.87423081  0.13058302  1
  In  In3  1  0.83538885  0.31950772  0.85026558  1
  In  In4  1  0.00852280  0.68747668  0.00131270  1
  In  In5  1  0.50062248  0.66244724  0.83285256  1
  In  In6  1  0.83500105  0.65314836  0.84175412  1
  In  In7  1  0.50275487  0.00059095  0.48635717  1
  In  In8  1  0.50859351  0.82650779  0.67434412  1
  In  In9  1  0.17927596  0.68261651  0.82522506  1
  In  In10  1  0.66875727  0.18742733  0.18719238  1
  In  In11  1  0.33333974  0.65707695  0.67119063  1
  In  In12  1  0.32373499  0.32096515  -0.00472417  1
  In  In13  1  0.17472797  0.83776494  -0.01720504  1
  In  In14  1  0.47767864  0.85287255  -0.02616203  1
  In  In15  1  0.32918874  0.14939408  0.85519711  1
  In  In16  1  0.00433855  0.49182832  0.81927590  1
  In  In17  1  0.33164952  0.50396772  0.18322050  1
  In  In18  1  0.30755970  -0.01402152  0.68749025  1
  In  In19  1  0.15006366  0.00294033  0.15010505  1
  In  In20  1  0.32586204  0.32936757  0.33519669  1
  In  In21  1  0.14633470  0.64379315  0.54762109  1
  In  In22  1  0.18297663  0.48437149  0.00197821  1
  In  In23  1  0.49075429  0.15203962  -0.00874579  1
  In  In24  1  -0.01667577  0.48966238  0.16889937  1
  In  In25  1  0.01053784  0.84912589  0.83737638  1
  In  In26  1  0.66807213  0.64060222  0.68856359  1
  In  In27  1  0.83986626  0.83972226  0.34124207  1
  In  In28  1  -0.00126205  0.36076567  0.68958338  1
  In  In29  1  0.67056824  0.83698657  0.15734751  1
  In  In30  1  0.65565906  0.65094644  0.31959205  1
  In  In31  1  0.16399769  0.84872470  0.31465210  1
  In  In32  1  0.32985030  0.48903309  0.49843853  1
  In  In33  1  0.36677884  0.64129573  0.32154925  1
  In  In34  1  0.84339170  0.65373535  0.50665423  1
  In  In35  1  -0.00529277  0.00207645  0.68120011  1
  In  In36  1  0.32954145  0.80904779  0.49654517  1
  In  In37  1  0.33893439  0.83390006  0.15297379  1
  In  In38  1  -0.01479095  0.67280784  0.35582600  1
  In  In39  1  0.01376518  0.15601259  0.84969457  1
  In  In40  1  0.51826010  0.34206081  0.17092074  1
  In  In41  1  0.66517012  0.84883949  0.51530429  1
  In  In42  1  0.68488091  0.16970889  0.48999728  1
  In  In43  1  0.00819368  0.16937720  0.48141578  1
  In  In44  1  0.52445785  0.51995415  0.00054978  1
  In  In45  1  0.18453738  0.48752080  0.33576250  1
  In  In46  1  0.80465755  0.00285449  0.48245046  1
  In  In47  1  0.47095152  0.66019849  0.48634479  1
  In  In48  1  0.80641139  0.67400080  0.16731951  1
  In  In49  1  0.00641793  0.31701635  -0.00806286  1
  In  In50  1  0.17439645  0.64571496  0.15321933  1
  In  In51  1  -0.00105675  0.83889142  0.50918640  1
  In  In52  1  0.17456875  0.16531431  0.67148406  1
  In  In53  1  0.15283901  0.02174576  0.51029191  1
  In  In54  1  0.32588434  0.16569825  0.13585877  1
  In  In55  1  0.67258644  0.48691701  0.84949519  1
  In  In56  1  0.66425824  0.01896680  0.00439353  1
  In  In57  1  0.52712256  0.17361646  0.33885291  1
  In  In58  1  0.48487098  0.49204621  0.32416393  1
  In  In59  1  0.61988192  0.35052101  0.64814380  1
  In  In60  1  0.84060928  0.51565175  0.67760330  1
  In  In61  1  0.34154143  0.00495097  0.31480847  1
  In  In62  1  0.36013954  0.35058487  0.67681893  1
  In  In63  1  0.67517803  -0.00539994  0.68622749  1
  In  In64  1  0.83099586  0.16784836  -0.00215495  1
  In  In65  1  0.81131761  0.14898391  0.67323588  1
  In  In66  1  -0.01525326  0.14815422  0.18323601  1
  In  In67  1  0.67258448  0.83493750  0.85004216  1
  In  In68  1  0.67049748  0.00526569  0.31403766  1
  In  In69  1  0.81719788  0.36733928  0.48152415  1
  In  In70  1  0.79338614  0.48192524  0.03028108  1
  In  In71  1  0.00330917  0.33228081  0.32082081  1
  Te  Te72  1  0.06865952  0.09618091  0.06937792  1
  Te  Te73  1  0.09276626  0.08743382  0.39295827  1
  Te  Te74  1  0.10648304  0.06672326  0.76530422  1
  Te  Te75  1  0.08544590  0.40636543  0.09093305  1
  Te  Te76  1  0.07744776  0.42605574  0.42186400  1
  Te  Te77  1  0.11306010  0.40144052  0.77442234  1
  Te  Te78  1  0.09328593  0.76723514  0.10271817  1
  Te  Te79  1  0.09801885  0.75219128  0.42288103  1
  Te  Te80  1  0.07913153  0.75464122  0.74455157  1
  Te  Te81  1  0.41741085  0.06230774  0.08366675  1
  Te  Te82  1  0.41538609  0.10078422  0.41429663  1
  Te  Te83  1  0.41724074  0.07532394  0.75051618  1
  Te  Te84  1  0.41162698  0.41125915  0.08668278  1
  Te  Te85  1  0.42728776  0.39417833  0.42929986  1
  Te  Te86  1  0.44476935  0.43934134  0.75906159  1
  Te  Te87  1  0.41590651  0.74751672  0.05871620  1
  Te  Te88  1  0.42886875  0.76799119  0.38745849  1
  Te  Te89  1  0.40468188  0.75918311  0.76229033  1
  Te  Te90  1  0.75546231  0.08962140  0.10744714  1
  Te  Te91  1  0.77152752  0.11079415  0.37070024  1
  Te  Te92  1  0.74404342  0.08214708  0.78526189  1
  Te  Te93  1  0.72792648  0.38801859  0.12111285  1
  Te  Te94  1  0.70674894  0.39769929  0.38630477  1
  Te  Te95  1  0.75783546  0.40736458  0.74652801  1
  Te  Te96  1  0.75825420  0.76372181  0.06151808  1
  Te  Te97  1  0.74451758  0.75066508  0.42010823  1
  Te  Te98  1  0.75361610  0.74905919  0.74980019  1
  Te  Te99  1  0.08785803  0.23820141  0.24619383  1
  Te  Te100  1  0.07571201  0.25446693  0.59248764  1
  Te  Te101  1  0.11303660  0.24886875  0.91246155  1
  Te  Te102  1  0.08211191  0.58081047  0.25736744  1
  Te  Te103  1  0.04557424  0.55024475  0.59115833  1
  Te  Te104  1  0.08431491  0.57985450  0.92550433  1
  Te  Te105  1  0.05473418  0.93112376  0.24747712  1
  Te  Te106  1  0.09561756  0.91581424  0.60187758  1
  Te  Te107  1  0.07977340  0.93982821  0.93349627  1
  Te  Te108  1  0.41967508  0.24567648  0.24316531  1
  Te  Te109  1  0.41791123  0.26075827  0.57282735  1
  Te  Te110  1  0.42716304  0.25901402  0.90082047  1
  Te  Te111  1  0.46239459  0.59428189  0.20398761  1
  Te  Te112  1  0.42543471  0.56284721  0.59431874  1
  Te  Te113  1  0.42029097  0.55358409  0.89695399  1
  Te  Te114  1  0.42894756  0.91112274  0.24360877  1
  Te  Te115  1  0.41852502  0.91270155  0.58244666  1
  Te  Te116  1  0.37798176  0.93506839  0.89576674  1
  Te  Te117  1  0.76560891  0.29009399  0.23819291  1
  Te  Te118  1  0.75859858  0.26558753  0.58805903  1
  Te  Te119  1  0.72999908  0.25019816  0.92509180  1
  Te  Te120  1  0.77136632  0.57230526  0.26838811  1
  Te  Te121  1  0.73665212  0.56370292  0.57470453  1
  Te  Te122  1  0.73422759  0.59397442  0.93913974  1
  Te  Te123  1  0.77416560  0.92581350  0.23311239  1
  Te  Te124  1  0.77345362  0.91128559  0.60186270  1
  Te  Te125  1  0.75976260  0.91919473  0.93952838  1
  Te  Te126  1  0.22065508  0.22427353  0.04681539  1
  Te  Te127  1  0.24219047  0.23541662  0.41232799  1
  Te  Te128  1  0.26915572  0.24953140  0.75463248  1
  Te  Te129  1  0.28109757  0.58798050  0.06367557  1
  Te  Te130  1  0.25261763  0.60001971  0.42426778  1
  Te  Te131  1  0.24184556  0.57167860  0.74922239  1
  Te  Te132  1  0.26577025  0.94018834  0.07073831  1
  Te  Te133  1  0.25259364  0.92024659  0.42171609  1
  Te  Te134  1  0.25692509  0.90419848  0.79976194  1
  Te  Te135  1  0.58438366  0.24614514  0.07351601  1
  Te  Te136  1  0.60722718  0.27503464  0.41514350  1
  Te  Te137  1  0.59734588  0.24974207  0.75166330  1
  Te  Te138  1  0.58816912  0.58553335  0.11618161  1
  Te  Te139  1  0.57859591  0.56856490  0.42720670  1
  Te  Te140  1  0.56435796  0.54332699  0.74676989  1
  Te  Te141  1  0.57094674  0.92008101  0.07524824  1
  Te  Te142  1  0.58658427  0.90825090  0.39797160  1
  Te  Te143  1  0.57114544  0.92307785  0.77383867  1
  Te  Te144  1  0.91091154  0.25808542  0.09155807  1
  Te  Te145  1  0.90423765  0.25882564  0.41569920  1
  Te  Te146  1  0.92550812  0.23611937  0.75008794  1
  Te  Te147  1  0.91363484  0.58952233  0.07610527  1
  Te  Te148  1  0.89683595  0.56299202  0.40072922  1
  Te  Te149  1  0.94413769  0.60995542  0.74161221  1
  Te  Te150  1  0.89250495  0.95571260  0.03368825  1
  Te  Te151  1  0.92924636  0.93854258  0.41703856  1
  Te  Te152  1  0.90300156  0.92299210  0.76359169  1
  Te  Te153  1  0.24062266  0.09085682  0.24074687  1
  Te  Te154  1  0.27150255  0.08968953  0.57924221  1
  Te  Te155  1  0.25870701  0.03416405  0.92012008  1
  Te  Te156  1  0.23571660  0.39194222  0.22807367  1
  Te  Te157  1  0.23967186  0.42615742  0.60229636  1
  Te  Te158  1  0.26200486  0.41619341  0.89810249  1
  Te  Te159  1  0.25627251  0.73770505  0.25370017  1
  Te  Te160  1  0.23591103  0.75655929  0.60377409  1
  Te  Te161  1  0.26906862  0.73570060  0.93203133  1
  Te  Te162  1  0.56592104  0.07624365  0.22945009  1
  Te  Te163  1  0.59611153  0.08036915  0.57897954  1
  Te  Te164  1  0.58085316  0.07938108  0.89691897  1
  Te  Te165  1  0.60776623  0.42497157  0.25936684  1
  Te  Te166  1  0.58405006  0.45259828  0.55209167  1
  Te  Te167  1  0.59160667  0.40244079  0.93911264  1
  Te  Te168  1  0.58018908  0.74685838  0.23561888  1
  Te  Te169  1  0.58360199  0.73242183  0.57956804  1
  Te  Te170  1  0.58269032  0.74325352  0.93208773  1
  Te  Te171  1  0.88387484  0.07693818  0.26524234  1
  Te  Te172  1  0.91247694  0.08628017  0.57362661  1
  Te  Te173  1  0.91514791  0.06669240  0.92116064  1
  Te  Te174  1  0.89093671  0.40363081  0.24843883  1
  Te  Te175  1  0.92709551  0.43443444  0.57531244  1
  Te  Te176  1  0.90824246  0.43127571  0.92714763  1
  Te  Te177  1  0.92653367  0.75554880  0.24077485  1
  Te  Te178  1  0.91216251  0.75275784  0.59153887  1
  Te  Te179  1  0.90635086  0.76299179  0.92107156  1
