# generated using pymatgen
data_In2Te3
_symmetry_space_group_name_H-M   'P 1'
_cell_length_a   18.75684484
_cell_length_b   18.75927134
_cell_length_c   18.76437788
_cell_angle_alpha   90.05307891
_cell_angle_beta   90.10659441
_cell_angle_gamma   89.99563812
_symmetry_Int_Tables_number   1
_chemical_formula_structural   In2Te3
_chemical_formula_sum   'In72 Te108'
_cell_volume   6602.50869724
_cell_formula_units_Z   36
loop_
 _symmetry_equiv_pos_site_id
 _symmetry_equiv_pos_as_xyz
  1  'x, y, z'
loop_
 _atom_site_type_symbol
 _atom_site_label
 _atom_site_symmetry_multiplicity
 _atom_site_fract_x
 _atom_site_fract_y
 _atom_site_fract_z
 _atom_site_occupancy
  In  In0  1  0.36310812  0.85007155  0.86323554  1
  In  In1  1  0.82307805  0.50035707  0.34094093  1
  In  In2  1  0.65820873  0.15592880  0.16553628  1
  In  In3  1  0.17482707  0.00501773  0.83880967  1
  In  In4  1  -0.02859217  0.81607734  0.84521575  1
  In  In5  1  0.81881744  0.84806921  0.03345274  1
  In  In6  1  0.83729707  0.34480669  0.49457197  1
  In  In7  1  0.32348671  0.49944319  0.17971588  1
  In  In8  1  0.17809706  0.84288771  0.30795039  1
  In  In9  1  0.35145325  0.82810051  0.48123431  1
  In  In10  1  0.84971843  0.00545847  0.83064979  1
  In  In11  1  0.65380571  0.36757866  0.63802962  1
  In  In12  1  0.20204213  0.16930902  0.62522315  1
  In  In13  1  0.49361184  0.50045020  0.00309782  1
  In  In14  1  0.01792968  0.65244370  0.65700641  1
  In  In15  1  0.51967405  0.52187300  0.35258532  1
  In  In16  1  0.65398984  0.17547875  0.85931278  1
  In  In17  1  0.65371564  -0.00216712  0.31453589  1
  In  In18  1  0.19487931  0.84144023  0.04517606  1
  In  In19  1  0.36952407  0.65626841  0.63318008  1
  In  In20  1  0.33660070  0.14599201  0.83770727  1
  In  In21  1  0.84228451  0.65840576  0.14884279  1
  In  In22  1  -0.01302740  -0.01992392  0.01419853  1
  In  In23  1  0.32916965  0.31013230  0.02016640  1
  In  In24  1  0.50437600  0.66830689  0.18562103  1
  In  In25  1  0.81106286  0.34394195  0.83722546  1
  In  In26  1  -0.00462343  0.65290030  0.32253876  1
  In  In27  1  0.85109075  0.16292471  0.66605545  1
  In  In28  1  0.16932267  0.15138494  0.32815788  1
  In  In29  1  0.49071751  -0.00081452  0.48852854  1
  In  In30  1  -0.00448277  0.15325991  0.17436277  1
  In  In31  1  0.51126361  0.81128188  0.33953220  1
  In  In32  1  0.80399354  0.81374367  0.33529326  1
  In  In33  1  0.65365623  0.33607598  0.32407063  1
  In  In34  1  0.48416775  0.17182470  0.68175632  1
  In  In35  1  0.18217023  0.17265185  0.01997169  1
  In  In36  1  0.65949701  0.52149687  0.17629569  1
  In  In37  1  0.52245245  0.79876316  0.65101262  1
  In  In38  1  0.65860976  0.81717026  0.83406237  1
  In  In39  1  0.15721402  0.67815135  0.17723902  1
  In  In40  1  0.33891644  0.16696087  0.51315668  1
  In  In41  1  0.53455716  0.65404088  0.81657208  1
  In  In42  1  0.01097643  0.50950192  0.84551951  1
  In  In43  1  0.33570832  0.49573193  0.81021543  1
  In  In44  1  0.64929152  -0.00539701  0.02188180  1
  In  In45  1  0.65354241  0.34862922  0.00880096  1
  In  In46  1  0.80036353  0.65234572  0.85144786  1
  In  In47  1  0.80089078  0.81392475  0.64350278  1
  In  In48  1  0.66076344  0.16611249  0.47006980  1
  In  In49  1  0.18747998  0.82475167  0.66698736  1
  In  In50  1  -0.00666299  0.34558530  0.33761818  1
  In  In51  1  0.34738507  0.69762151  0.01068047  1
  In  In52  1  0.15054910  0.49177205  0.00559867  1
  In  In53  1  -0.00314092  0.16583073  0.49497162  1
  In  In54  1  0.15538629  0.32801599  0.83545861  1
  In  In55  1  0.81747336  0.53264825  0.62786510  1
  In  In56  1  0.36597871  0.32118193  0.30782136  1
  In  In57  1  -0.00772066  0.36364471  0.01801928  1
  In  In58  1  0.49893976  0.13153202  0.02971462  1
  In  In59  1  -0.00600389  0.12547140  0.85481549  1
  In  In60  1  0.66456580  -0.02353293  0.66123156  1
  In  In61  1  0.82254344  0.33557076  0.17712125  1
  In  In62  1  0.34442755  0.35637932  0.65943425  1
  In  In63  1  0.00744118  -0.00654575  0.32420740  1
  In  In64  1  0.15854381  0.63661932  0.85722335  1
  In  In65  1  0.49513354  0.35467613  0.84304299  1
  In  In66  1  0.00425092  0.01196316  0.65397069  1
  In  In67  1  -0.03792864  0.35901221  0.66513927  1
  In  In68  1  0.33993950  -0.00812689  0.32095705  1
  In  In69  1  0.15930812  0.35019952  0.49720479  1
  In  In70  1  0.00198760  0.82273438  0.49044319  1
  In  In71  1  0.17978352  0.51043834  0.61920244  1
  Te  Te72  1  0.08967083  0.07028697  0.08646108  1
  Te  Te73  1  0.09349572  0.06802275  0.43099652  1
  Te  Te74  1  0.09984218  0.09797533  0.74077536  1
  Te  Te75  1  0.10154628  0.40093797  0.10968140  1
  Te  Te76  1  0.08920786  0.43998565  0.40140095  1
  Te  Te77  1  0.09043201  0.42969527  0.73651052  1
  Te  Te78  1  0.07579505  0.76919797  0.09119368  1
  Te  Te79  1  0.09464077  0.74787285  0.39696949  1
  Te  Te80  1  0.08350384  0.74998081  0.75624925  1
  Te  Te81  1  0.39377451  0.05344818  0.09684845  1
  Te  Te82  1  0.41888118  0.09993255  0.40078858  1
  Te  Te83  1  0.41611943  0.05983340  0.74830066  1
  Te  Te84  1  0.41813436  0.40894634  0.09791430  1
  Te  Te85  1  0.41811054  0.42370543  0.40476941  1
  Te  Te86  1  0.45630047  0.45031198  0.72481179  1
  Te  Te87  1  0.42930008  0.77603302  0.10768342  1
  Te  Te88  1  0.42343382  0.71647767  0.41688944  1
  Te  Te89  1  0.41242154  0.74397685  0.75321483  1
  Te  Te90  1  0.75432749  0.07137800  0.09107947  1
  Te  Te91  1  0.75042369  0.07672048  0.39762365  1
  Te  Te92  1  0.74478568  0.08951229  0.75207935  1
  Te  Te93  1  0.75110000  0.43657709  0.08731330  1
  Te  Te94  1  0.72447687  0.42344438  0.42900761  1
  Te  Te95  1  0.75141364  0.44014536  0.73211983  1
  Te  Te96  1  0.73153128  0.74529834  0.09438708  1
  Te  Te97  1  0.72996561  0.73600497  0.44344335  1
  Te  Te98  1  0.72427223  0.72020178  0.73479089  1
  Te  Te99  1  0.08218856  0.25255608  0.25316727  1
  Te  Te100  1  0.06945654  0.26031752  0.59170421  1
  Te  Te101  1  0.07457819  0.24285562  0.93266367  1
  Te  Te102  1  0.09726092  0.56713056  0.25496680  1
  Te  Te103  1  0.08552305  0.59490386  0.53534391  1
  Te  Te104  1  0.04854245  0.60656700  0.96799205  1
  Te  Te105  1  0.08332180  0.91751198  0.22079128  1
  Te  Te106  1  0.09228081  0.91069215  0.58137108  1
  Te  Te107  1  0.07545715  0.91107907  0.90878988  1
  Te  Te108  1  0.45864868  0.21793529  0.25573390  1
  Te  Te109  1  0.43773334  0.26909796  0.57448268  1
  Te  Te110  1  0.42793139  0.24164379  0.92146016  1
  Te  Te111  1  0.40274300  0.59299148  0.27121599  1
  Te  Te112  1  0.46585850  0.57708706  0.55359131  1
  Te  Te113  1  0.40946527  0.58940052  0.90824920  1
  Te  Te114  1  0.43878630  0.90673199  0.24796871  1
  Te  Te115  1  0.42677842  0.90437039  0.58981543  1
  Te  Te116  1  0.44915267  0.92074818  0.96098216  1
  Te  Te117  1  0.74890042  0.23407806  0.26260716  1
  Te  Te118  1  0.75485771  0.25445353  0.58850092  1
  Te  Te119  1  0.75450042  0.25042787  0.94477054  1
  Te  Te120  1  0.74821834  0.60773448  0.26246756  1
  Te  Te121  1  0.71541003  0.60210493  0.54206625  1
  Te  Te122  1  0.70958088  0.56679697  0.92579845  1
  Te  Te123  1  0.72149441  0.89013261  0.23402768  1
  Te  Te124  1  0.74982214  0.92105702  0.55542950  1
  Te  Te125  1  0.74813196  0.91760632  0.90736175  1
  Te  Te126  1  0.26007972  0.23841808  0.12902872  1
  Te  Te127  1  0.24714922  0.25069054  0.41838870  1
  Te  Te128  1  0.26863450  0.25502184  0.74865408  1
  Te  Te129  1  0.25687891  0.58878985  0.07078512  1
  Te  Te130  1  0.23296988  0.57040269  0.48392364  1
  Te  Te131  1  0.24656422  0.59566288  0.73494916  1
  Te  Te132  1  0.29106658  0.93475407  0.10279541  1
  Te  Te133  1  0.24767532  0.92186643  0.42091721  1
  Te  Te134  1  0.26867231  0.91819350  0.75541447  1
  Te  Te135  1  0.56714598  0.25657511  0.09202464  1
  Te  Te136  1  0.56264826  0.26084653  0.41564239  1
  Te  Te137  1  0.59509574  0.26758092  0.75132686  1
  Te  Te138  1  0.58450353  0.60350621  0.06918224  1
  Te  Te139  1  0.61358365  0.62465196  0.41532120  1
  Te  Te140  1  0.56312282  0.56410707  0.70191795  1
  Te  Te141  1  0.54693303  0.90596257  0.08101219  1
  Te  Te142  1  0.59368340  0.90958123  0.42642457  1
  Te  Te143  1  0.56585673  0.90843278  0.75288655  1
  Te  Te144  1  0.91311466  0.25241465  0.08701039  1
  Te  Te145  1  0.90186589  0.24145930  0.40274440  1
  Te  Te146  1  0.92208274  0.25120378  0.77582141  1
  Te  Te147  1  0.93396284  0.57346998  0.07077976  1
  Te  Te148  1  0.90345612  0.59389926  0.42404220  1
  Te  Te149  1  0.91511719  0.58934756  0.75263351  1
  Te  Te150  1  0.91100197  0.91931182  0.12529765  1
  Te  Te151  1  0.90779037  0.90559718  0.40476435  1
  Te  Te152  1  0.91545856  0.90780535  0.73047279  1
  Te  Te153  1  0.25672698  0.07966383  0.23054457  1
  Te  Te154  1  0.27468187  0.05088650  0.58036388  1
  Te  Te155  1  0.26528113  0.06566932  0.94565589  1
  Te  Te156  1  0.25332391  0.41424950  0.27843661  1
  Te  Te157  1  0.29363932  0.43590199  0.53771624  1
  Te  Te158  1  0.26257103  0.41449078  0.92034640  1
  Te  Te159  1  0.26968485  0.74418377  0.24670759  1
  Te  Te160  1  0.25458397  0.73585874  0.56520336  1
  Te  Te161  1  0.24001847  0.76172701  0.91308380  1
  Te  Te162  1  0.55055842  0.08994590  0.24870999  1
  Te  Te163  1  0.58120816  0.08900682  0.58627236  1
  Te  Te164  1  0.56353122  0.06576575  0.90574238  1
  Te  Te165  1  0.56276316  0.42414992  0.23883739  1
  Te  Te166  1  0.56258245  0.45298118  0.55935168  1
  Te  Te167  1  0.60784144  0.44871581  0.89877376  1
  Te  Te168  1  0.61446505  0.75601503  0.24238288  1
  Te  Te169  1  0.60837132  0.73397350  0.54700462  1
  Te  Te170  1  0.57294289  0.74238233  0.92809031  1
  Te  Te171  1  0.90256655  0.07935782  0.26235213  1
  Te  Te172  1  0.89702856  0.06563042  0.55829140  1
  Te  Te173  1  0.88792508  0.08494766  0.95566181  1
  Te  Te174  1  0.91853372  0.43660518  0.23904165  1
  Te  Te175  1  0.92797965  0.45469895  0.55117260  1
  Te  Te176  1  0.89745183  0.43817505  0.92329276  1
  Te  Te177  1  0.91468822  0.75656403  0.24477461  1
  Te  Te178  1  0.91235942  0.73300660  0.57665437  1
  Te  Te179  1  0.88818901  0.73945374  0.94275525  1
