# generated using pymatgen
data_In2Te3
_symmetry_space_group_name_H-M   'P 1'
_cell_length_a   18.99458277
_cell_length_b   19.03200277
_cell_length_c   19.02004789
_cell_angle_alpha   90.09519813
_cell_angle_beta   90.05036168
_cell_angle_gamma   90.00033385
_symmetry_Int_Tables_number   1
_chemical_formula_structural   In2Te3
_chemical_formula_sum   'In72 Te108'
_cell_volume   6875.82935228
_cell_formula_units_Z   36
loop_
 _symmetry_equiv_pos_site_id
 _symmetry_equiv_pos_as_xyz
  1  'x, y, z'
loop_
 _atom_site_type_symbol
 _atom_site_label
 _atom_site_symmetry_multiplicity
 _atom_site_fract_x
 _atom_site_fract_y
 _atom_site_fract_z
 _atom_site_occupancy
  In  In0  1  0.48135492  0.69596741  0.16640870  1
  In  In1  1  -0.00608669  0.82921489  0.82810494  1
  In  In2  1  0.02253937  0.18702103  0.14405362  1
  In  In3  1  0.65812748  -0.01568644  0.34339445  1
  In  In4  1  0.67321464  0.67362854  0.00742099  1
  In  In5  1  0.89130629  0.02783415  0.82684807  1
  In  In6  1  0.49247357  0.12728669  0.35007785  1
  In  In7  1  0.87708501  0.00342671  0.50077352  1
  In  In8  1  0.50023571  0.15136218  -0.01762365  1
  In  In9  1  0.49450167  0.51331584  0.00616054  1
  In  In10  1  0.31491601  0.00703259  0.00892173  1
  In  In11  1  0.51645348  0.66125709  0.51429523  1
  In  In12  1  0.32465990  0.00009960  0.67872079  1
  In  In13  1  0.84915026  0.16343756  0.32499700  1
  In  In14  1  0.50019604  0.47376429  0.66789259  1
  In  In15  1  -0.02249422  0.67437465  0.65646655  1
  In  In16  1  0.03175934  0.85858954  0.50204907  1
  In  In17  1  0.66834576  0.84564840  0.84226545  1
  In  In18  1  0.01589819  0.50997385  0.81973325  1
  In  In19  1  0.69227665  0.17402689  0.52072468  1
  In  In20  1  0.48775754  0.52211278  0.32002194  1
  In  In21  1  0.66686033  0.16368763  0.17966406  1
  In  In22  1  -0.00415504  0.49903079  0.14176299  1
  In  In23  1  0.67136421  0.35101882  0.34712508  1
  In  In24  1  0.44724388  0.84289237  0.33296516  1
  In  In25  1  0.83643190  0.63814286  0.50114141  1
  In  In26  1  0.66088316  0.31547951  0.67797289  1
  In  In27  1  0.35696436  0.14908081  0.82999827  1
  In  In28  1  0.31077432  0.17313174  0.18417324  1
  In  In29  1  0.82427102  0.50368816  0.33468729  1
  In  In30  1  0.84526635  0.01165211  0.17064275  1
  In  In31  1  0.15681791  0.49281985  0.32266425  1
  In  In32  1  0.32460812  0.84255534  0.16119653  1
  In  In33  1  0.34251295  0.66264567  0.67721608  1
  In  In34  1  0.00196077  0.33019568  0.66685280  1
  In  In35  1  0.15565270  0.63611671  0.50157996  1
  In  In36  1  0.84196734  0.34279417  0.81832652  1
  In  In37  1  0.00648903  0.32762289  -0.01680810  1
  In  In38  1  0.66766394  0.81041382  0.51860928  1
  In  In39  1  0.01598878  0.66773594  0.29865505  1
  In  In40  1  0.34045471  0.31876328  0.67099451  1
  In  In41  1  0.66833256  -0.00417175  0.67771977  1
  In  In42  1  0.64809714  0.52215445  0.86070940  1
  In  In43  1  0.17074402  0.32003658  0.51318146  1
  In  In44  1  0.84198536  0.85875827  0.00407012  1
  In  In45  1  0.81663568  0.82060603  0.67270360  1
  In  In46  1  0.01388614  0.17293945  0.50999381  1
  In  In47  1  0.00825009  0.69833776  0.03823959  1
  In  In48  1  0.32758131  0.33634058  0.34240303  1
  In  In49  1  0.28961603  0.69298308  0.32687209  1
  In  In50  1  0.17775386  0.49849257  0.66242675  1
  In  In51  1  0.17416679  0.68423560  0.85917384  1
  In  In52  1  0.83751644  0.49502587  0.66507849  1
  In  In53  1  0.17794414  0.19195307  -0.01969193  1
  In  In54  1  0.00130861  0.32031577  0.33666745  1
  In  In55  1  0.70120478  0.48064665  0.14148688  1
  In  In56  1  0.64518186  0.66688145  0.30830676  1
  In  In57  1  0.66138616  0.15022661  0.82550281  1
  In  In58  1  0.85846787  0.81491975  0.33299120  1
  In  In59  1  0.15229397  0.85094708  0.64408308  1
  In  In60  1  0.50460913  0.33902919  0.83905660  1
  In  In61  1  0.48337964  0.67125028  0.84758671  1
  In  In62  1  0.31237315  0.84338155  0.86737964  1
  In  In63  1  0.28867860  0.84037520  0.47487219  1
  In  In64  1  0.31313528  0.38277993  -0.00566844  1
  In  In65  1  0.49381534  0.30519025  0.50302297  1
  In  In66  1  0.63103814  0.86770231  0.11950017  1
  In  In67  1  0.16410787  0.17183438  0.33807920  1
  In  In68  1  0.80860984  0.20827659  0.01885387  1
  In  In69  1  0.48135030  -0.01057542  0.52181580  1
  In  In70  1  0.50092520  0.32811708  0.15554923  1
  In  In71  1  0.01641617  0.00405131  -0.01406836  1
  Te  Te72  1  0.10911017  0.08859465  0.07259723  1
  Te  Te73  1  0.08102045  0.07992567  0.41774529  1
  Te  Te74  1  0.01454536  0.03386108  0.74608651  1
  Te  Te75  1  0.09421282  0.41213010  0.06876483  1
  Te  Te76  1  0.08461411  0.40929237  0.42708324  1
  Te  Te77  1  0.10533130  0.40353376  0.75649163  1
  Te  Te78  1  0.11019005  0.80558793  0.04747219  1
  Te  Te79  1  0.08828511  0.74276536  0.41720894  1
  Te  Te80  1  0.08867752  0.73860674  0.73694421  1
  Te  Te81  1  0.40411817  0.10003525  0.08872212  1
  Te  Te82  1  0.39217702  0.05707717  0.42753838  1
  Te  Te83  1  0.43727463  0.04917638  0.75961026  1
  Te  Te84  1  0.41048193  0.43497757  0.10508666  1
  Te  Te85  1  0.43418964  0.41641394  0.41396838  1
  Te  Te86  1  0.40204445  0.42412493  0.76966670  1
  Te  Te87  1  0.40319749  0.76255234  0.06181520  1
  Te  Te88  1  0.40739013  0.73100458  0.42420446  1
  Te  Te89  1  0.40125536  0.76867371  0.76539101  1
  Te  Te90  1  0.74536669  0.07898319  0.08146271  1
  Te  Te91  1  0.76000424  0.07605497  0.41311557  1
  Te  Te92  1  0.76994745  0.08369332  0.74497261  1
  Te  Te93  1  0.77374192  0.37017124  0.08358134  1
  Te  Te94  1  0.76317308  0.41864143  0.43682968  1
  Te  Te95  1  0.72529474  0.42836083  0.75945332  1
  Te  Te96  1  0.74725235  0.77733385  0.09082380  1
  Te  Te97  1  0.74306741  0.73956220  0.40635606  1
  Te  Te98  1  0.74337530  0.74174787  0.76824225  1
  Te  Te99  1  0.10501915  0.27045467  0.23947968  1
  Te  Te100  1  0.10919426  0.22942228  0.61489830  1
  Te  Te101  1  0.06174716  0.22449185  0.89290911  1
  Te  Te102  1  0.10468050  0.58207980  0.21184573  1
  Te  Te103  1  0.05930430  0.56327029  0.59101683  1
  Te  Te104  1  0.06607711  0.60476957  0.92691638  1
  Te  Te105  1  0.14270763  0.84282285  0.29555668  1
  Te  Te106  1  0.12403731  0.97206661  0.55491977  1
  Te  Te107  1  0.09418133  0.89282961  0.91867868  1
  Te  Te108  1  0.43136782  0.24457887  0.26132464  1
  Te  Te109  1  0.41504463  0.22162629  0.59029341  1
  Te  Te110  1  0.41094558  0.26463318  0.93259857  1
  Te  Te111  1  0.38880764  0.60537907  0.24306953  1
  Te  Te112  1  0.41702830  0.56977693  0.58380077  1
  Te  Te113  1  0.39691192  0.57827383  0.91979821  1
  Te  Te114  1  0.41950308  0.93486601  0.22517850  1
  Te  Te115  1  0.38195183  0.89186052  0.58034502  1
  Te  Te116  1  0.41659061  0.92899435  0.93196848  1
  Te  Te117  1  0.75472678  0.25933528  0.25710358  1
  Te  Te118  1  0.77393725  0.24865248  0.61425829  1
  Te  Te119  1  0.73904067  0.25998273  0.89542117  1
  Te  Te120  1  0.75316203  0.59124884  0.23315049  1
  Te  Te121  1  0.74372109  0.58742235  0.59901876  1
  Te  Te122  1  0.75622760  0.57048136  0.94584539  1
  Te  Te123  1  0.76662338  0.91814991  0.26133908  1
  Te  Te124  1  0.75768119  0.92394572  0.56465384  1
  Te  Te125  1  0.78403925  0.93283816  0.88762275  1
  Te  Te126  1  0.25490769  0.26949752  0.08385919  1
  Te  Te127  1  0.26562668  0.23366531  0.43292876  1
  Te  Te128  1  0.26380843  0.24353948  0.76964875  1
  Te  Te129  1  0.22317823  0.50456795  0.01804970  1
  Te  Te130  1  0.25548623  0.57039822  0.41129435  1
  Te  Te131  1  0.24691063  0.58564355  0.76480634  1
  Te  Te132  1  0.21990222  0.91652452  0.08144997  1
  Te  Te133  1  0.24632952  0.92518636  0.36136383  1
  Te  Te134  1  0.22747993  0.91259914  0.75838099  1
  Te  Te135  1  0.58964877  0.23974102  0.07359071  1
  Te  Te136  1  0.59387347  0.22654521  0.40781391  1
  Te  Te137  1  0.55780507  0.23089440  0.74813540  1
  Te  Te138  1  0.57886413  0.59628721  0.10267581  1
  Te  Te139  1  0.59413510  0.57461312  0.41607890  1
  Te  Te140  1  0.56416630  0.58350356  0.75165380  1
  Te  Te141  1  0.54796585  0.94081135  0.02722492  1
  Te  Te142  1  0.56897084  0.89724714  0.42976956  1
  Te  Te143  1  0.57403543  0.91279941  0.75079777  1
  Te  Te144  1  0.91070588  0.28086249  0.10462076  1
  Te  Te145  1  0.90749093  0.25123970  0.43261116  1
  Te  Te146  1  0.94317047  0.24552372  0.77340985  1
  Te  Te147  1  0.90880151  0.60200555  0.08516395  1
  Te  Te148  1  0.93450577  0.58552404  0.40110842  1
  Te  Te149  1  0.90354851  0.59441604  0.75998986  1
  Te  Te150  1  0.94314434  0.92452019  0.09487834  1
  Te  Te151  1  0.94628939  0.92432301  0.39144150  1
  Te  Te152  1  0.93840649  0.90511699  0.70838637  1
  Te  Te153  1  0.23514708  0.07024045  0.25604264  1
  Te  Te154  1  0.22727999  0.07249207  0.59865517  1
  Te  Te155  1  0.23959252  0.07935605  0.89932070  1
  Te  Te156  1  0.25709471  0.41860802  0.24617761  1
  Te  Te157  1  0.26958967  0.41579684  0.57610274  1
  Te  Te158  1  0.19946470  0.41590549  0.90413069  1
  Te  Te159  1  0.21726765  0.74233922  0.20557578  1
  Te  Te160  1  0.24070460  0.73233428  0.58291281  1
  Te  Te161  1  0.27075783  0.73440391  0.96034349  1
  Te  Te162  1  0.57566497  0.05956954  0.24121105  1
  Te  Te163  1  0.58948801  0.08283618  0.58103332  1
  Te  Te164  1  0.59712922  0.05624509  0.92077556  1
  Te  Te165  1  0.58873774  0.42602378  0.24323331  1
  Te  Te166  1  0.59068103  0.39887982  0.57259914  1
  Te  Te167  1  0.58695987  0.41128353  0.94331453  1
  Te  Te168  1  0.57777830  0.78634618  0.24391991  1
  Te  Te169  1  0.56958124  0.75650806  0.61087367  1
  Te  Te170  1  0.57713560  0.75801671  0.92853428  1
  Te  Te171  1  0.95245904  0.09283859  0.24181056  1
  Te  Te172  1  0.93654567  0.08738672  0.60616626  1
  Te  Te173  1  0.90792614  0.10525065  0.95589534  1
  Te  Te174  1  0.92601154  0.42355501  0.25615340  1
  Te  Te175  1  0.92518070  0.41751760  0.57868036  1
  Te  Te176  1  0.92256991  0.43089848  0.91108918  1
  Te  Te177  1  0.93319820  0.75872336  0.21970697  1
  Te  Te178  1  0.91381680  0.76479074  0.55291656  1
  Te  Te179  1  0.91166463  0.75092365  0.92508745  1
