# generated using pymatgen
data_In2Te3
_symmetry_space_group_name_H-M   'P 1'
_cell_length_a   19.12878685
_cell_length_b   19.05491671
_cell_length_c   19.04067058
_cell_angle_alpha   89.65952728
_cell_angle_beta   89.65682260
_cell_angle_gamma   90.24916499
_symmetry_Int_Tables_number   1
_chemical_formula_structural   In2Te3
_chemical_formula_sum   'In72 Te108'
_cell_volume   6939.96195824
_cell_formula_units_Z   36
loop_
 _symmetry_equiv_pos_site_id
 _symmetry_equiv_pos_as_xyz
  1  'x, y, z'
loop_
 _atom_site_type_symbol
 _atom_site_label
 _atom_site_symmetry_multiplicity
 _atom_site_fract_x
 _atom_site_fract_y
 _atom_site_fract_z
 _atom_site_occupancy
  In  In0  1  -0.01944937  0.17676504  0.17838830  1
  In  In1  1  0.49223552  0.66523844  0.17333158  1
  In  In2  1  0.65281528  0.13504444  0.82197801  1
  In  In3  1  0.17190140  0.85839364  0.64195785  1
  In  In4  1  0.16396447  -0.02059423  0.82624667  1
  In  In5  1  -0.02706857  0.82124247  0.51520750  1
  In  In6  1  0.20886519  0.49160707  0.60784728  1
  In  In7  1  0.34387669  0.18437058  0.16071044  1
  In  In8  1  0.18148557  0.04032736  0.47130658  1
  In  In9  1  -0.00550567  0.35247410  0.02899724  1
  In  In10  1  0.13931443  0.24103790  0.36704798  1
  In  In11  1  0.52185484  -0.02904592  0.17835401  1
  In  In12  1  0.20516047  0.70703676  0.81410978  1
  In  In13  1  0.16990536  0.03067847  0.19886009  1
  In  In14  1  0.82333372  0.52234292  -0.02040214  1
  In  In15  1  0.33241545  0.01004532  -0.00492034  1
  In  In16  1  0.48658665  0.67492859  0.79909203  1
  In  In17  1  0.62627542  -0.08113695  0.57738265  1
  In  In18  1  0.47667178  0.35107303  0.84934828  1
  In  In19  1  0.82290068  0.32502533  0.50708774  1
  In  In20  1  0.81589802  0.34548177  0.83807769  1
  In  In21  1  0.55440925  0.73796257  0.40111334  1
  In  In22  1  0.17469619  0.84739358  0.31894965  1
  In  In23  1  0.17768252  0.65669369  0.48461656  1
  In  In24  1  0.17820050  0.33911437  0.81129462  1
  In  In25  1  0.68851503  0.48873971  0.16596319  1
  In  In26  1  0.68783542  0.32620069  0.34361491  1
  In  In27  1  0.00842946  0.84029944  0.84480463  1
  In  In28  1  -0.01449529  0.67398800  0.34461385  1
  In  In29  1  0.02582320  0.67868549  0.01335460  1
  In  In30  1  0.48461881  0.33587427  0.50413465  1
  In  In31  1  0.65635183  -0.03495077  0.36445018  1
  In  In32  1  0.31697976  0.36262876  0.01162981  1
  In  In33  1  0.32350140  0.50980742  0.79505827  1
  In  In34  1  0.85367620  0.82903972  0.00145618  1
  In  In35  1  0.32121877  0.51691244  0.19390302  1
  In  In36  1  0.48954618  0.19054055  0.00974039  1
  In  In37  1  0.64154658  0.66224051  -0.02866989  1
  In  In38  1  0.16968447  0.66466217  0.17450895  1
  In  In39  1  -0.00210848  0.00141414  0.00619072  1
  In  In40  1  0.03722246  0.15887511  0.86043448  1
  In  In41  1  0.67660569  0.82961511  0.15334284  1
  In  In42  1  -0.01758167  0.35915878  0.67555815  1
  In  In43  1  0.52333730  0.33234331  0.17020740  1
  In  In44  1  0.81896923  0.14730319  0.33808082  1
  In  In45  1  0.33180884  0.82263644  0.15316689  1
  In  In46  1  0.00591165  0.49751421  0.20254105  1
  In  In47  1  -0.01373507  0.18813021  0.50065716  1
  In  In48  1  0.82665013  0.12810672  -0.03197779  1
  In  In49  1  0.64947020  0.33878229  0.67637796  1
  In  In50  1  0.84310320  0.65652864  0.17694784  1
  In  In51  1  0.02330484  0.54046413  0.83753393  1
  In  In52  1  0.02409024  0.65160667  0.64412572  1
  In  In53  1  0.16698255  0.18152365  0.65566686  1
  In  In54  1  0.48348919  0.51282632  -0.02415691  1
  In  In55  1  0.80900191  -0.04028173  0.81154821  1
  In  In56  1  0.79363679  0.53470430  0.37144143  1
  In  In57  1  0.84871309  0.34885249  0.18173359  1
  In  In58  1  0.34363745  0.00359458  0.31795686  1
  In  In59  1  0.48043396  -0.02986326  0.83030439  1
  In  In60  1  0.66825784  -0.02535789  -0.02682297  1
  In  In61  1  0.40711856  0.75868484  0.57838360  1
  In  In62  1  0.55178051  0.58543183  0.56493357  1
  In  In63  1  0.51461772  0.14370320  0.34742380  1
  In  In64  1  0.80251724  0.79394179  0.36474788  1
  In  In65  1  0.85569621  0.18532747  0.67443711  1
  In  In66  1  -0.01917946  -0.01829368  0.65753716  1
  In  In67  1  0.64975126  0.49360308  0.82289411  1
  In  In68  1  0.19806120  0.18006364  0.01267523  1
  In  In69  1  0.33424910  0.34557419  0.35174010  1
  In  In70  1  0.49562302  0.07226545  0.64714989  1
  In  In71  1  0.35948779  0.16774320  0.49615483  1
  Te  Te72  1  0.08979557  0.10017897  0.08168032  1
  Te  Te73  1  0.06933923  0.11044860  0.40081559  1
  Te  Te74  1  0.07903938  0.07791402  0.73168009  1
  Te  Te75  1  0.08636602  0.44329589  0.09342085  1
  Te  Te76  1  0.09335738  0.37896624  0.36376713  1
  Te  Te77  1  0.09162621  0.43987329  0.74125369  1
  Te  Te78  1  0.08670229  0.76604699  0.11038171  1
  Te  Te79  1  0.08083851  0.76600581  0.42402248  1
  Te  Te80  1  0.08459284  0.76900314  0.73260705  1
  Te  Te81  1  0.42741750  0.07211524  0.10568971  1
  Te  Te82  1  0.43085588  0.05043335  0.43161132  1
  Te  Te83  1  0.42302396  0.08966049  0.77080527  1
  Te  Te84  1  0.42867809  0.42222090  0.09221597  1
  Te  Te85  1  0.42925905  0.43798687  0.41362048  1
  Te  Te86  1  0.41940877  0.41922481  0.73320622  1
  Te  Te87  1  0.40812345  0.72723691  0.07260774  1
  Te  Te88  1  0.41084168  0.70151021  0.43899721  1
  Te  Te89  1  0.40155395  0.77691488  0.72938657  1
  Te  Te90  1  0.75323993  0.04770339  0.06513681  1
  Te  Te91  1  0.72505601  0.07926652  0.43114605  1
  Te  Te92  1  0.75977101  0.07777415  0.73349390  1
  Te  Te93  1  0.76939975  0.40754887  0.06822142  1
  Te  Te94  1  0.72466007  0.42600241  0.45094890  1
  Te  Te95  1  0.75696078  0.43103147  0.73065274  1
  Te  Te96  1  0.75418739  0.72533598  0.07389671  1
  Te  Te97  1  0.70233174  0.73456507  0.46080129  1
  Te  Te98  1  0.69552410  0.82382946  0.68118429  1
  Te  Te99  1  0.05504928  0.28542611  0.24582353  1
  Te  Te100  1  0.07341380  0.27582659  0.58523505  1
  Te  Te101  1  0.10346081  0.27622746  0.93438632  1
  Te  Te102  1  0.09220300  0.58812638  0.28425388  1
  Te  Te103  1  0.08066912  0.55570306  0.54361845  1
  Te  Te104  1  0.12331648  0.62019938  0.91460418  1
  Te  Te105  1  0.07726369  0.93985657  0.26526019  1
  Te  Te106  1  0.08233331  0.94447435  0.55091420  1
  Te  Te107  1  0.09941659  0.90745525  0.94399549  1
  Te  Te108  1  0.43481105  0.25051318  0.26690653  1
  Te  Te109  1  0.45821021  0.21664383  0.59611381  1
  Te  Te110  1  0.38390406  0.25650615  0.92725545  1
  Te  Te111  1  0.43554387  0.56817235  0.26720153  1
  Te  Te112  1  0.40179866  0.58404387  0.54028618  1
  Te  Te113  1  0.39390951  0.60060999  0.89668575  1
  Te  Te114  1  0.42177936  0.89103628  0.25753475  1
  Te  Te115  1  0.40133052  0.89751258  0.63354616  1
  Te  Te116  1  0.38469698  0.89298063  0.91976988  1
  Te  Te117  1  0.75419644  0.24633714  0.23433296  1
  Te  Te118  1  0.73778541  0.24205490  0.60008101  1
  Te  Te119  1  0.73906261  0.23356009  0.90401400  1
  Te  Te120  1  0.72609604  0.60415567  0.25579880  1
  Te  Te121  1  0.70005449  0.62701222  0.57410239  1
  Te  Te122  1  0.74384550  0.60063658  0.87838942  1
  Te  Te123  1  0.74943254  0.89891966  0.26498487  1
  Te  Te124  1  0.77394054  0.89350517  0.56691527  1
  Te  Te125  1  0.74211944  0.86215746  0.90439226  1
  Te  Te126  1  0.23921479  0.28231752  0.11569656  1
  Te  Te127  1  0.25734607  0.27568692  0.46444806  1
  Te  Te128  1  0.27221184  0.26586894  0.72253302  1
  Te  Te129  1  0.26612998  0.59800685  0.08641338  1
  Te  Te130  1  0.26408424  0.53514660  0.47204891  1
  Te  Te131  1  0.24312055  0.60300783  0.71081613  1
  Te  Te132  1  0.25196271  0.94346263  0.10574386  1
  Te  Te133  1  0.26031058  0.92329452  0.41753175  1
  Te  Te134  1  0.26538788  0.92962334  0.73135089  1
  Te  Te135  1  0.59956778  0.23872669  0.08924969  1
  Te  Te136  1  0.58631985  0.24999515  0.42539304  1
  Te  Te137  1  0.57403219  0.25544514  0.77762072  1
  Te  Te138  1  0.59066477  0.56597092  0.07731123  1
  Te  Te139  1  0.60651208  0.59816669  0.42225421  1
  Te  Te140  1  0.55273120  0.55910726  0.73381693  1
  Te  Te141  1  0.57333955  0.89073553  0.06252501  1
  Te  Te142  1  0.55681916  0.88519552  0.44235678  1
  Te  Te143  1  0.58452521  0.93606275  0.72994924  1
  Te  Te144  1  0.91250645  0.22841488  0.05075203  1
  Te  Te145  1  0.90208803  0.25852916  0.39844984  1
  Te  Te146  1  0.93281172  0.25413779  0.78487533  1
  Te  Te147  1  0.92487840  0.57345743  0.08201169  1
  Te  Te148  1  0.89855758  0.60692653  0.44453722  1
  Te  Te149  1  0.92953076  0.58569356  0.73740252  1
  Te  Te150  1  0.91364578  0.92153921  0.09474685  1
  Te  Te151  1  0.87388906  0.90241636  0.44139811  1
  Te  Te152  1  0.90748585  0.87468281  0.73517831  1
  Te  Te153  1  0.26205785  0.12273215  0.27437056  1
  Te  Te154  1  0.26323294  0.08779768  0.58707234  1
  Te  Te155  1  0.24245073  0.08821745  0.90201453  1
  Te  Te156  1  0.23658736  0.42594394  0.27601142  1
  Te  Te157  1  0.28596174  0.36690574  0.60439451  1
  Te  Te158  1  0.24318185  0.43821893  0.90581958  1
  Te  Te159  1  0.26522124  0.74150666  0.26474278  1
  Te  Te160  1  0.25209405  0.75792195  0.56477757  1
  Te  Te161  1  0.25683153  0.80526863  0.90604007  1
  Te  Te162  1  0.60482171  0.06781840  0.25501452  1
  Te  Te163  1  0.61021082  0.06706158  0.55659005  1
  Te  Te164  1  0.56220608  0.07550163  0.92967016  1
  Te  Te165  1  0.59804727  0.42015831  0.26625310  1
  Te  Te166  1  0.57234379  0.42660288  0.58509258  1
  Te  Te167  1  0.58770483  0.41074143  0.93285509  1
  Te  Te168  1  0.58303123  0.75770663  0.24823068  1
  Te  Te169  1  0.59351788  0.72801254  0.61654708  1
  Te  Te170  1  0.56773123  0.75518503  0.89016462  1
  Te  Te171  1  0.90657093  0.07302840  0.24778079  1
  Te  Te172  1  0.90469975  0.08316369  0.57429338  1
  Te  Te173  1  0.92073972  0.04539705  0.88186716  1
  Te  Te174  1  0.88876085  0.44749403  0.28445850  1
  Te  Te175  1  0.91177953  0.42361100  0.56683135  1
  Te  Te176  1  0.92508145  0.43312759  0.90777234  1
  Te  Te177  1  0.90933525  0.76530618  0.25358169  1
  Te  Te178  1  0.90181148  0.70906898  0.57918950  1
  Te  Te179  1  0.92680361  0.73177839  0.91235020  1
