# generated using pymatgen
data_In2Te3
_symmetry_space_group_name_H-M   'P 1'
_cell_length_a   18.96770465
_cell_length_b   18.97319962
_cell_length_c   19.00712467
_cell_angle_alpha   90.14288968
_cell_angle_beta   89.82800438
_cell_angle_gamma   90.07426036
_symmetry_Int_Tables_number   1
_chemical_formula_structural   In2Te3
_chemical_formula_sum   'In72 Te108'
_cell_volume   6840.18912769
_cell_formula_units_Z   36
loop_
 _symmetry_equiv_pos_site_id
 _symmetry_equiv_pos_as_xyz
  1  'x, y, z'
loop_
 _atom_site_type_symbol
 _atom_site_label
 _atom_site_symmetry_multiplicity
 _atom_site_fract_x
 _atom_site_fract_y
 _atom_site_fract_z
 _atom_site_occupancy
  In  In0  1  0.13588039  0.34225977  0.81936633  1
  In  In1  1  0.15191054  0.66889394  0.51346335  1
  In  In2  1  0.15514448  0.48914320  0.33384803  1
  In  In3  1  0.21352644  0.09129071  0.43279477  1
  In  In4  1  0.36642492  -0.00117874  0.33655311  1
  In  In5  1  -0.00048835  0.34388556  0.01862260  1
  In  In6  1  0.31311666  0.48817286  0.50852760  1
  In  In7  1  0.84665304  -0.00991894  0.82149661  1
  In  In8  1  0.67146729  0.80897173  0.49759725  1
  In  In9  1  0.82802961  0.83000032  0.35878125  1
  In  In10  1  0.01558674  0.02575324  0.65286440  1
  In  In11  1  0.02296621  0.67289648  -0.01632023  1
  In  In12  1  0.83330429  -0.00409399  0.49184523  1
  In  In13  1  0.63394213  0.51682529  0.16726486  1
  In  In14  1  0.47677086  0.68310009  0.16123652  1
  In  In15  1  0.77108777  0.83622087  0.00396134  1
  In  In16  1  0.15029731  0.48575975  0.02241209  1
  In  In17  1  0.18528910  0.02621722  0.18870528  1
  In  In18  1  0.66262416  0.31463614  0.35297221  1
  In  In19  1  0.33160834  0.15811150  0.83278372  1
  In  In20  1  0.63757076  0.32062797  0.00432902  1
  In  In21  1  0.49741774  0.49348769  0.67183364  1
  In  In22  1  0.16218825  0.82869114  0.67497660  1
  In  In23  1  0.01215159  0.82399069  0.51205942  1
  In  In24  1  0.50958662  0.85485737  0.02676272  1
  In  In25  1  0.84586716  0.16325256  0.33190774  1
  In  In26  1  0.33665615  0.69817575  0.33761920  1
  In  In27  1  0.67555333  0.50319517  0.51292894  1
  In  In28  1  0.35788165  0.02731746  0.02172369  1
  In  In29  1  0.34547163  0.34623909  0.65564397  1
  In  In30  1  0.79927935  0.00965315  0.14410887  1
  In  In31  1  0.82422422  0.18112060  0.63168291  1
  In  In32  1  0.82281217  0.65861990  0.82204853  1
  In  In33  1  0.18799714  0.18704897  0.00824611  1
  In  In34  1  0.32064212  -0.00167987  0.64421840  1
  In  In35  1  0.50478208  0.50290278  0.34256007  1
  In  In36  1  0.80654203  0.33526204  0.17310932  1
  In  In37  1  0.50926859  0.31297811  0.50229858  1
  In  In38  1  0.19287292  0.66200937  0.18844117  1
  In  In39  1  0.62007125  0.13005845  0.12424076  1
  In  In40  1  0.83125475  0.35593644  0.52032310  1
  In  In41  1  0.34970560  0.85092973  0.83797011  1
  In  In42  1  0.17214598  0.84458208  0.00280600  1
  In  In43  1  -0.02190987  0.17933725  0.80582274  1
  In  In44  1  0.67347154  0.66316757  0.33802004  1
  In  In45  1  -0.01487609  0.18506377  0.18222374  1
  In  In46  1  -0.00211118  0.67001602  0.35851870  1
  In  In47  1  0.01389599  0.49337715  0.12550355  1
  In  In48  1  0.66646351  -0.01136370  0.65744286  1
  In  In49  1  -0.00717547  0.83526382  0.83118576  1
  In  In50  1  0.67606814  0.01385087  0.31583308  1
  In  In51  1  0.50179625  0.00703007  0.51606443  1
  In  In52  1  0.14061213  0.19387384  0.66022842  1
  In  In53  1  0.20327213  0.62062869  0.84724980  1
  In  In54  1  0.00176222  0.64069082  0.67053817  1
  In  In55  1  0.63575379  0.81829568  0.83491950  1
  In  In56  1  0.50062914  0.83907796  0.34495361  1
  In  In57  1  0.67084341  0.47781272  0.82635551  1
  In  In58  1  0.53659909  0.04715930  0.83353247  1
  In  In59  1  0.45632708  0.64359584  0.84623322  1
  In  In60  1  0.82587137  0.69091063  0.15221261  1
  In  In61  1  0.01704587  0.33807733  0.33096044  1
  In  In62  1  0.01236032  0.86921727  0.17657711  1
  In  In63  1  0.52509054  0.31444819  0.81656872  1
  In  In64  1  -0.01291914  0.01361253  0.00906432  1
  In  In65  1  0.22950534  0.26914170  0.22056020  1
  In  In66  1  0.30951811  0.49321194  0.16122570  1
  In  In67  1  0.31629507  0.65421429  0.67861361  1
  In  In68  1  0.36114805  0.34885431  -0.01908893  1
  In  In69  1  0.82620606  0.49725762  -0.03105218  1
  In  In70  1  0.68226556  0.66048706  0.66119446  1
  In  In71  1  0.86937307  0.51550294  0.34220274  1
  Te  Te72  1  0.08336766  0.10085891  0.09018233  1
  Te  Te73  1  0.07503037  0.13291212  0.41650018  1
  Te  Te74  1  0.09502263  0.09127054  0.76335101  1
  Te  Te75  1  0.11085298  0.37456975  0.12191541  1
  Te  Te76  1  0.11170086  0.38756962  0.43209577  1
  Te  Te77  1  0.04948054  0.39214746  0.71163897  1
  Te  Te78  1  0.08413807  0.75616337  0.09541245  1
  Te  Te79  1  0.10459745  0.76409691  0.40402925  1
  Te  Te80  1  0.08586517  0.73538724  0.76648196  1
  Te  Te81  1  0.47888146  0.09600458  0.06909402  1
  Te  Te82  1  0.42947413  0.10600958  0.42862811  1
  Te  Te83  1  0.41484866  0.06971731  0.74410154  1
  Te  Te84  1  0.42055938  0.43410582  0.08620404  1
  Te  Te85  1  0.42056373  0.41167674  0.42924485  1
  Te  Te86  1  0.41465537  0.41646728  0.77028895  1
  Te  Te87  1  0.39866614  0.77436163  0.07857503  1
  Te  Te88  1  0.42729968  0.75252812  0.43684687  1
  Te  Te89  1  0.41498457  0.74958371  0.74586744  1
  Te  Te90  1  0.73817006  0.09456854  0.04072960  1
  Te  Te91  1  0.74391358  0.09597236  0.42314893  1
  Te  Te92  1  0.76509012  0.07844266  0.73000928  1
  Te  Te93  1  0.73582678  0.42783942  0.07623811  1
  Te  Te94  1  0.75030841  0.43413555  0.39645914  1
  Te  Te95  1  0.73211319  0.35600627  0.77092785  1
  Te  Te96  1  0.70309523  0.73020062  0.08227646  1
  Te  Te97  1  0.77676448  0.71192604  0.43753615  1
  Te  Te98  1  0.74964961  0.76716541  0.74798431  1
  Te  Te99  1  0.09841509  0.20694307  0.28682217  1
  Te  Te100  1  0.02924140  0.27687672  0.60895887  1
  Te  Te101  1  0.07463320  0.24003527  0.92097355  1
  Te  Te102  1  0.07369928  0.58435573  0.24071927  1
  Te  Te103  1  0.11557829  0.56408443  0.61083083  1
  Te  Te104  1  0.07556871  0.55654955  0.90704241  1
  Te  Te105  1  0.09441654  0.94444780  0.26911379  1
  Te  Te106  1  0.10288351  0.92792341  0.57612019  1
  Te  Te107  1  0.07529682  0.92651077  0.91978794  1
  Te  Te108  1  0.36529771  0.23263498  0.27608735  1
  Te  Te109  1  0.44048068  0.23792571  0.61511776  1
  Te  Te110  1  0.43446528  0.23522632  0.91127442  1
  Te  Te111  1  0.40450757  0.57969224  0.25834811  1
  Te  Te112  1  0.40931417  0.57836701  0.58343651  1
  Te  Te113  1  0.33754103  0.58834013  0.91197800  1
  Te  Te114  1  0.44456254  0.92067504  0.23560931  1
  Te  Te115  1  0.41114569  0.90762161  0.57358587  1
  Te  Te116  1  0.43953806  0.94686004  0.91714010  1
  Te  Te117  1  0.73413794  0.22691185  0.24857542  1
  Te  Te118  1  0.72591228  0.26342692  0.55963820  1
  Te  Te119  1  0.71801227  0.26106859  0.89146220  1
  Te  Te120  1  0.76068164  0.58045578  0.24041550  1
  Te  Te121  1  0.76870203  0.54929442  0.61705662  1
  Te  Te122  1  0.72387576  0.59414425  0.91644418  1
  Te  Te123  1  0.75555627  0.90326913  0.24979287  1
  Te  Te124  1  0.76266191  0.89820129  0.58155553  1
  Te  Te125  1  0.72784373  0.92818847  0.89191788  1
  Te  Te126  1  0.29891538  0.25216044  0.08327473  1
  Te  Te127  1  0.30992187  0.20718689  0.41825483  1
  Te  Te128  1  0.25183127  0.26181263  0.75627980  1
  Te  Te129  1  0.24923327  0.59754995  0.06551649  1
  Te  Te130  1  0.24117267  0.58903314  0.41130201  1
  Te  Te131  1  0.23428664  0.54001053  0.72621086  1
  Te  Te132  1  0.25701687  0.93262169  0.08961095  1
  Te  Te133  1  0.26106905  0.95192555  0.42626444  1
  Te  Te134  1  0.24465807  0.92491962  0.75789646  1
  Te  Te135  1  0.54668443  0.25716361  0.10221132  1
  Te  Te136  1  0.55776908  0.22050176  0.39583893  1
  Te  Te137  1  0.55986043  0.21701493  0.71090987  1
  Te  Te138  1  0.53811360  0.57756315  0.07643450  1
  Te  Te139  1  0.58117231  0.59328661  0.43652582  1
  Te  Te140  1  0.57704910  0.58876480  0.75953656  1
  Te  Te141  1  0.64491761  0.89579883  0.06963361  1
  Te  Te142  1  0.60601179  0.92552087  0.42391213  1
  Te  Te143  1  0.56590754  0.92122663  0.74828275  1
  Te  Te144  1  0.89384147  0.25047583  0.08134584  1
  Te  Te145  1  0.90712203  0.27437817  0.41194791  1
  Te  Te146  1  0.87564840  0.26659167  0.74451776  1
  Te  Te147  1  0.90972251  0.59311345  0.06809936  1
  Te  Te148  1  0.95857446  0.56087680  0.44747527  1
  Te  Te149  1  0.90387301  0.56150066  0.74927691  1
  Te  Te150  1  0.90042827  0.90449225  0.07172671  1
  Te  Te151  1  0.93655570  0.91838855  0.41311640  1
  Te  Te152  1  0.93173296  0.91632577  0.71989393  1
  Te  Te153  1  0.31333525  0.09317071  0.22854970  1
  Te  Te154  1  0.24505245  0.11661958  0.58568559  1
  Te  Te155  1  0.24753264  0.07387922  0.92722426  1
  Te  Te156  1  0.26999778  0.40664846  0.27817484  1
  Te  Te157  1  0.23502727  0.37498042  0.56259989  1
  Te  Te158  1  0.23058548  0.40145270  0.92415095  1
  Te  Te159  1  0.25827469  0.77832926  0.24496652  1
  Te  Te160  1  0.25588284  0.75485656  0.58182153  1
  Te  Te161  1  0.24704831  0.76014880  0.90396434  1
  Te  Te162  1  0.55793574  0.04972441  0.23527071  1
  Te  Te163  1  0.59131100  0.09890142  0.59274371  1
  Te  Te164  1  0.63682137  0.12854852  0.90632549  1
  Te  Te165  1  0.58234041  0.40623521  0.25589670  1
  Te  Te166  1  0.59225226  0.40629155  0.59360140  1
  Te  Te167  1  0.56542159  0.42340735  0.91932735  1
  Te  Te168  1  0.58337915  0.74660744  0.25436676  1
  Te  Te169  1  0.58319252  0.74035270  0.59075305  1
  Te  Te170  1  0.54232283  0.74182491  0.92525828  1
  Te  Te171  1  0.90855850  0.06456730  0.23548936  1
  Te  Te172  1  0.92720762  0.09743533  0.55466930  1
  Te  Te173  1  0.90418380  0.09581812  0.91364265  1
  Te  Te174  1  0.92122490  0.41640706  0.23223112  1
  Te  Te175  1  0.95031406  0.41110934  0.58617937  1
  Te  Te176  1  0.92070735  0.40307644  0.91083171  1
  Te  Te177  1  0.92199344  0.75471545  0.25181881  1
  Te  Te178  1  0.92559518  0.73334913  0.58557354  1
  Te  Te179  1  0.90692164  0.74826933  0.92040111  1
