# generated using pymatgen
data_In2Te3
_symmetry_space_group_name_H-M   'P 1'
_cell_length_a   18.94226634
_cell_length_b   18.92074908
_cell_length_c   18.92757803
_cell_angle_alpha   90.08491803
_cell_angle_beta   90.02216856
_cell_angle_gamma   89.76964896
_symmetry_Int_Tables_number   1
_chemical_formula_structural   In2Te3
_chemical_formula_sum   'In72 Te108'
_cell_volume   6783.61656268
_cell_formula_units_Z   36
loop_
 _symmetry_equiv_pos_site_id
 _symmetry_equiv_pos_as_xyz
  1  'x, y, z'
loop_
 _atom_site_type_symbol
 _atom_site_label
 _atom_site_symmetry_multiplicity
 _atom_site_fract_x
 _atom_site_fract_y
 _atom_site_fract_z
 _atom_site_occupancy
  In  In0  1  0.66692006  0.83049812  0.82117395  1
  In  In1  1  0.32403458  0.33465237  0.65793683  1
  In  In2  1  0.81557329  0.80602023  0.64233193  1
  In  In3  1  0.35025475  -0.03479978  0.32350729  1
  In  In4  1  -0.00689145  0.33733558  0.64512691  1
  In  In5  1  -0.02217853  0.47879649  0.82336426  1
  In  In6  1  0.14310422  0.50294632  0.33175003  1
  In  In7  1  0.65477545  0.36785817  0.35778014  1
  In  In8  1  0.50678761  0.12597186  0.33925739  1
  In  In9  1  -0.01600352  0.33765951  -0.02266739  1
  In  In10  1  0.83414688  0.65827775  0.17222583  1
  In  In11  1  0.50509482  0.35103744  0.52578933  1
  In  In12  1  0.34873600  -0.02133462  0.66366263  1
  In  In13  1  0.50978241  0.53941918  0.34905905  1
  In  In14  1  0.63969108  0.36794847  0.65710509  1
  In  In15  1  0.35922033  0.68973219  0.34100012  1
  In  In16  1  0.19707276  0.66474124  0.85563649  1
  In  In17  1  0.84493602  0.35102451  0.81121953  1
  In  In18  1  0.66997902  -0.02105277  0.35411984  1
  In  In19  1  0.81659965  0.35728361  0.16996944  1
  In  In20  1  0.35989464  0.70856679  0.69007662  1
  In  In21  1  0.17321744  0.47801076  -0.00797637  1
  In  In22  1  0.48409148  0.15647567  0.00579612  1
  In  In23  1  0.64620122  0.16014904  0.18308522  1
  In  In24  1  0.35143698  0.33736123  -0.00184425  1
  In  In25  1  0.02857277  0.17683380  0.16431471  1
  In  In26  1  0.65824399  -0.01300442  0.01622108  1
  In  In27  1  0.83618635  0.82738731  -0.03038102  1
  In  In28  1  0.14628382  0.66331174  0.49233480  1
  In  In29  1  0.53147600  0.68730438  0.51248499  1
  In  In30  1  0.68075861  0.18376418  0.50545090  1
  In  In31  1  0.49238532  -0.02581596  0.50603466  1
  In  In32  1  0.17354031  0.52901947  0.66403126  1
  In  In33  1  0.85153467  0.17612151  -0.02541030  1
  In  In34  1  -0.03189358  -0.02704035  0.34577856  1
  In  In35  1  0.33428045  0.52213705  0.19312959  1
  In  In36  1  -0.01146694  0.67082857  -0.00730341  1
  In  In37  1  0.18280874  0.67149511  0.17820604  1
  In  In38  1  0.50311160  0.54461749  0.01648254  1
  In  In39  1  0.82207132  0.52354301  0.33488900  1
  In  In40  1  0.67615752  0.36121318  0.00320660  1
  In  In41  1  0.80384257  0.51850594  0.65657379  1
  In  In42  1  0.02758956  0.13562326  0.84398741  1
  In  In43  1  -0.00282666  0.15129926  0.51517660  1
  In  In44  1  -0.00844581  0.32621274  0.34159451  1
  In  In45  1  0.32771145  0.13667583  0.15108566  1
  In  In46  1  0.69051576  0.01041939  0.67363146  1
  In  In47  1  0.36051681  0.70135534  0.00770946  1
  In  In48  1  0.49768759  0.17732333  0.66299131  1
  In  In49  1  0.84129207  0.17267466  0.66601249  1
  In  In50  1  0.84218530  0.16788797  0.32775062  1
  In  In51  1  -0.00164744  0.81602331  0.16503740  1
  In  In52  1  0.33809485  -0.02895668  -0.01039564  1
  In  In53  1  0.17546782  0.32610163  0.83908838  1
  In  In54  1  -0.00811222  0.83707468  0.80386017  1
  In  In55  1  0.16246920  -0.00260289  0.17622735  1
  In  In56  1  0.15251292  0.15872737  0.65842581  1
  In  In57  1  -0.00658639  0.66953821  0.34289206  1
  In  In58  1  0.51148338  -0.00452486  0.84490969  1
  In  In59  1  0.17001414  -0.01336296  0.48387871  1
  In  In60  1  0.16751488  -0.01565066  0.83200741  1
  In  In61  1  0.13783073  0.33768610  0.17781233  1
  In  In62  1  0.50524335  0.34079028  0.82556829  1
  In  In63  1  0.31900150  0.30235163  0.36081105  1
  In  In64  1  0.19431487  0.13582727  0.02397233  1
  In  In65  1  0.64579478  0.82544816  0.16758513  1
  In  In66  1  0.35746408  0.51362940  0.49554097  1
  In  In67  1  -0.01032971  0.68900360  0.64591453  1
  In  In68  1  0.81584656  -0.01291595  0.15320477  1
  In  In69  1  0.68099583  0.65531506  -0.02923216  1
  In  In70  1  0.50117530  0.33745942  0.20036343  1
  In  In71  1  0.15920960  0.83712692  0.65317426  1
  Te  Te72  1  0.07054971  0.06452905  0.07203291  1
  Te  Te73  1  0.06654343  0.07108139  0.40655010  1
  Te  Te74  1  0.07428529  0.04979167  0.72838003  1
  Te  Te75  1  0.06186862  0.42314410  0.07926887  1
  Te  Te76  1  0.06587640  0.42260971  0.42459129  1
  Te  Te77  1  0.09811870  0.41267639  0.74027111  1
  Te  Te78  1  0.09428985  0.74363328  0.07239996  1
  Te  Te79  1  0.09515591  0.76149493  0.39726932  1
  Te  Te80  1  0.09676332  0.72799218  0.75087496  1
  Te  Te81  1  0.43114182  0.04451525  0.09058286  1
  Te  Te82  1  0.40132902  0.06876751  0.42872195  1
  Te  Te83  1  0.42244275  0.07944408  0.75036424  1
  Te  Te84  1  0.42020135  0.42533029  0.10145091  1
  Te  Te85  1  0.42358461  0.41469745  0.39881279  1
  Te  Te86  1  0.42699997  0.42012335  0.72536117  1
  Te  Te87  1  0.43609230  0.79210597  0.09665409  1
  Te  Te88  1  0.41631916  0.76582896  0.45464520  1
  Te  Te89  1  0.44436639  0.75463571  0.80322661  1
  Te  Te90  1  0.74947461  0.10732167  0.08264276  1
  Te  Te91  1  0.75928294  0.08167687  0.42232526  1
  Te  Te92  1  0.75912408  0.10149665  0.76404058  1
  Te  Te93  1  0.72773724  0.45293558  0.10462254  1
  Te  Te94  1  0.76332801  0.42768626  0.43238905  1
  Te  Te95  1  0.73540969  0.45502939  0.77939225  1
  Te  Te96  1  0.75437206  0.75606651  0.07455333  1
  Te  Te97  1  0.76914458  0.79331773  0.47310666  1
  Te  Te98  1  0.73117599  0.71573226  0.74249320  1
  Te  Te99  1  0.10114573  0.23456765  0.28259179  1
  Te  Te100  1  0.10377551  0.26365086  0.55811276  1
  Te  Te101  1  0.09828893  0.24258997  0.94063539  1
  Te  Te102  1  0.07003897  0.58738096  0.23160000  1
  Te  Te103  1  0.05845866  0.57126146  0.57431341  1
  Te  Te104  1  0.08296137  0.56426756  0.90366169  1
  Te  Te105  1  0.07586806  0.90526538  0.26025788  1
  Te  Te106  1  0.07198529  0.90383489  0.55737773  1
  Te  Te107  1  0.07081919  0.90521746  0.90712303  1
  Te  Te108  1  0.41634242  0.22145383  0.25058003  1
  Te  Te109  1  0.40327606  0.24321100  0.56447631  1
  Te  Te110  1  0.41423755  0.24058696  0.90063117  1
  Te  Te111  1  0.44276112  0.61659878  0.23480092  1
  Te  Te112  1  0.42344881  0.60746818  0.59090465  1
  Te  Te113  1  0.41597105  0.60102771  0.91252145  1
  Te  Te114  1  0.42849780  0.87175144  0.23371238  1
  Te  Te115  1  0.42293557  0.87220915  0.59018681  1
  Te  Te116  1  0.41741715  0.88907543  0.89088158  1
  Te  Te117  1  0.73415666  0.25693242  0.26298560  1
  Te  Te118  1  0.75257284  0.27625630  0.59858754  1
  Te  Te119  1  0.75403828  0.27083360  0.90754799  1
  Te  Te120  1  0.72937301  0.62136762  0.27102063  1
  Te  Te121  1  0.73851002  0.64116959  0.59666324  1
  Te  Te122  1  0.75816971  0.55214937  0.90008433  1
  Te  Te123  1  0.75299636  0.89732105  0.25548676  1
  Te  Te124  1  0.71709598  0.90112214  0.57181467  1
  Te  Te125  1  0.74629007  0.93127030  0.90555231  1
  Te  Te126  1  0.25134672  0.26670864  0.09218644  1
  Te  Te127  1  0.22302742  0.25020760  0.45285019  1
  Te  Te128  1  0.25174807  0.23311638  0.74669001  1
  Te  Te129  1  0.25637798  0.57700518  0.07392301  1
  Te  Te130  1  0.25597370  0.58407103  0.40172439  1
  Te  Te131  1  0.27920051  0.59022431  0.75233009  1
  Te  Te132  1  0.24444786  0.91472686  0.08685811  1
  Te  Te133  1  0.25911740  0.89209618  0.41214005  1
  Te  Te134  1  0.25964334  0.89346580  0.75225258  1
  Te  Te135  1  0.57289652  0.25894245  0.08592260  1
  Te  Te136  1  0.57442739  0.24645742  0.41365810  1
  Te  Te137  1  0.59868084  0.24995695  0.74799613  1
  Te  Te138  1  0.59784044  0.62667378  0.09002567  1
  Te  Te139  1  0.61462890  0.62930049  0.40193169  1
  Te  Te140  1  0.57398710  0.50020475  0.69721267  1
  Te  Te141  1  0.56767358  0.87370448  0.04781326  1
  Te  Te142  1  0.57471367  0.88393734  0.41804610  1
  Te  Te143  1  0.58236712  0.92113792  0.73251250  1
  Te  Te144  1  0.91441355  0.25829287  0.09693058  1
  Te  Te145  1  0.90508316  0.24787460  0.43878149  1
  Te  Te146  1  0.95308229  0.24896101  0.76312011  1
  Te  Te147  1  0.91497014  0.57900085  0.07851765  1
  Te  Te148  1  0.90382538  0.59765388  0.43287620  1
  Te  Te149  1  0.91832533  0.58450245  0.73418219  1
  Te  Te150  1  0.91644826  0.90626420  0.07310136  1
  Te  Te151  1  0.88464278  0.89169618  0.43581681  1
  Te  Te152  1  0.88967269  0.90492740  0.72460970  1
  Te  Te153  1  0.25336803  0.07699931  0.26703292  1
  Te  Te154  1  0.25074020  0.06665500  0.58657696  1
  Te  Te155  1  0.26366448  0.07916637  0.90480775  1
  Te  Te156  1  0.25071965  0.41129570  0.25610514  1
  Te  Te157  1  0.25037085  0.43620998  0.57053418  1
  Te  Te158  1  0.27822589  0.42294338  0.89556391  1
  Te  Te159  1  0.26597705  0.76557449  0.25316565  1
  Te  Te160  1  0.24290946  0.72906729  0.58788628  1
  Te  Te161  1  0.25040087  0.77230698  0.93827417  1
  Te  Te162  1  0.57982545  0.03783301  0.23953630  1
  Te  Te163  1  0.58353572  0.08642277  0.57225709  1
  Te  Te164  1  0.59625691  0.09383689  0.92481595  1
  Te  Te165  1  0.59106231  0.44862808  0.24846471  1
  Te  Te166  1  0.59629356  0.46967641  0.54938705  1
  Te  Te167  1  0.56767145  0.43450764  0.92681658  1
  Te  Te168  1  0.55493553  0.79484753  0.28047821  1
  Te  Te169  1  0.60829345  0.71511415  0.63959838  1
  Te  Te170  1  0.57741403  0.72908456  0.88767398  1
  Te  Te171  1  0.91814915  0.07684807  0.23271656  1
  Te  Te172  1  0.89986481  0.06663270  0.58323906  1
  Te  Te173  1  0.92075524  0.06371282  0.91295367  1
  Te  Te174  1  0.91832660  0.42721454  0.25502858  1
  Te  Te175  1  0.88830665  0.41880139  0.58397217  1
  Te  Te176  1  0.88165537  0.44289230  0.93865241  1
  Te  Te177  1  0.89926799  0.76056240  0.26382514  1
  Te  Te178  1  0.92628848  0.77173213  0.53612581  1
  Te  Te179  1  0.90572724  0.72845575  0.88091669  1
