# generated using pymatgen
data_In2Te3
_symmetry_space_group_name_H-M   'P 1'
_cell_length_a   19.04815066
_cell_length_b   19.02233969
_cell_length_c   19.04714801
_cell_angle_alpha   90.21336308
_cell_angle_beta   90.00502372
_cell_angle_gamma   89.85902271
_symmetry_Int_Tables_number   1
_chemical_formula_structural   In2Te3
_chemical_formula_sum   'In72 Te108'
_cell_volume   6901.48231723
_cell_formula_units_Z   36
loop_
 _symmetry_equiv_pos_site_id
 _symmetry_equiv_pos_as_xyz
  1  'x, y, z'
loop_
 _atom_site_type_symbol
 _atom_site_label
 _atom_site_symmetry_multiplicity
 _atom_site_fract_x
 _atom_site_fract_y
 _atom_site_fract_z
 _atom_site_occupancy
  In  In0  1  0.18689210  0.49796043  0.66421906  1
  In  In1  1  0.81853953  0.50389833  0.34822883  1
  In  In2  1  0.01520377  0.16692661  0.85437269  1
  In  In3  1  0.50685818  -0.02550969  0.48234575  1
  In  In4  1  0.33595766  0.02181972  0.67277613  1
  In  In5  1  0.17083043  0.84639356  -0.03130401  1
  In  In6  1  0.81359440  0.15744705  0.29356892  1
  In  In7  1  0.33986518  0.52774965  0.49854785  1
  In  In8  1  0.63938516  -0.02265420  0.66312174  1
  In  In9  1  -0.00726082  0.50952646  0.51444307  1
  In  In10  1  0.36377610  0.36546288  0.02129851  1
  In  In11  1  0.80891211  0.82150462  -0.02919116  1
  In  In12  1  0.00378110  0.32729888  -0.01032660  1
  In  In13  1  0.01174873  0.65912049  0.69132560  1
  In  In14  1  0.35562586  -0.03901445  0.00369163  1
  In  In15  1  0.81254017  0.66534289  0.48753322  1
  In  In16  1  0.17185421  0.33034628  0.17694364  1
  In  In17  1  0.49420047  0.14796255  0.32698571  1
  In  In18  1  0.16872654  0.68115178  0.17246472  1
  In  In19  1  0.15249980  0.34467653  0.51522344  1
  In  In20  1  0.49340160  0.82290738  0.33261130  1
  In  In21  1  0.66543026  0.17821942  0.49964490  1
  In  In22  1  0.16801341  0.50285543  0.00946961  1
  In  In23  1  0.01011741  0.17714901  0.49579439  1
  In  In24  1  0.64470820  0.66986670  0.32248224  1
  In  In25  1  0.63838284  -0.02763422  0.00380975  1
  In  In26  1  0.82008555  -0.01687528  0.43805267  1
  In  In27  1  0.17872269  0.79332419  0.63453739  1
  In  In28  1  0.81406345  0.15678248  0.05488994  1
  In  In29  1  -0.00454116  0.67517394  -0.01167088  1
  In  In30  1  0.63707944  0.15064992  0.16741501  1
  In  In31  1  0.17000468  0.65864490  0.81518979  1
  In  In32  1  0.20174867  0.35140908  0.81506961  1
  In  In33  1  0.20396089  -0.03092082  0.48467262  1
  In  In34  1  0.34871359  0.83266013  0.18747647  1
  In  In35  1  0.04174090  0.78507391  0.49808204  1
  In  In36  1  0.01162554  -0.00285007  0.68056498  1
  In  In37  1  -0.03814640  -0.01095749  0.33135291  1
  In  In38  1  0.66485472  0.64920321  0.66130872  1
  In  In39  1  0.51159829  0.65714211  0.47888644  1
  In  In40  1  0.32180209  0.14202757  0.15543324  1
  In  In41  1  -0.01919094  0.84022526  0.17247604  1
  In  In42  1  0.48551189  0.36417503  0.83003817  1
  In  In43  1  0.32125760  0.81656692  0.82679045  1
  In  In44  1  0.17498447  0.15656837  0.33124573  1
  In  In45  1  0.50567433  0.67662048  0.14481990  1
  In  In46  1  0.84125764  0.01378192  0.83670356  1
  In  In47  1  0.63971143  0.52019410  0.14750486  1
  In  In48  1  0.83152879  0.66496882  0.79959809  1
  In  In49  1  0.51316042  0.17548626  0.70248841  1
  In  In50  1  0.81497541  0.34472264  0.84758143  1
  In  In51  1  0.82607589  0.36926579  0.48566651  1
  In  In52  1  0.31869244  0.18233737  0.85252241  1
  In  In53  1  0.48994967  0.80905872  0.66284576  1
  In  In54  1  0.36376684  0.61284422  -0.00775723  1
  In  In55  1  0.00948236  -0.00123605  0.02980949  1
  In  In56  1  0.01007182  0.19459067  0.14937180  1
  In  In57  1  0.50652969  0.34694477  0.51006028  1
  In  In58  1  0.65220643  0.35382931  0.67038291  1
  In  In59  1  0.66170663  0.12550218  0.84870812  1
  In  In60  1  0.18003643  -0.00008187  0.83975457  1
  In  In61  1  0.85215590  0.18042964  0.67718885  1
  In  In62  1  0.35221032  0.17204042  0.51504916  1
  In  In63  1  0.80862543  0.50342443  0.00430283  1
  In  In64  1  0.65977810  0.50126985  0.83033437  1
  In  In65  1  0.81759621  0.83247641  0.64077154  1
  In  In66  1  0.14852376  -0.00041398  0.17816675  1
  In  In67  1  0.65555952  0.31091443  0.00612283  1
  In  In68  1  0.34257344  0.33399491  0.33074603  1
  In  In69  1  0.84202058  0.68343742  0.16059354  1
  In  In70  1  -0.03809792  0.34614443  0.36481670  1
  In  In71  1  0.17125903  0.53281678  0.32179337  1
  Te  Te72  1  0.10782145  0.10445671  0.07709302  1
  Te  Te73  1  0.08577706  0.07205505  0.41685262  1
  Te  Te74  1  0.10111353  0.09556954  0.75242819  1
  Te  Te75  1  0.07883603  0.41288021  0.09106251  1
  Te  Te76  1  0.08833319  0.42744905  0.40668671  1
  Te  Te77  1  0.09596528  0.43006492  0.75489340  1
  Te  Te78  1  0.08001927  0.76842347  0.07280049  1
  Te  Te79  1  0.12147712  0.71550147  0.39704172  1
  Te  Te80  1  0.08954202  0.77148190  0.75584280  1
  Te  Te81  1  0.42074611  0.07290518  0.07240241  1
  Te  Te82  1  0.40459475  0.06760371  0.41938393  1
  Te  Te83  1  0.41966171  0.08796677  0.77873025  1
  Te  Te84  1  0.42738331  0.46587809  0.11064969  1
  Te  Te85  1  0.42269461  0.42927065  0.41368481  1
  Te  Te86  1  0.39261168  0.46700987  0.78357452  1
  Te  Te87  1  0.38936805  0.74177814  0.07326537  1
  Te  Te88  1  0.40427367  0.75570937  0.43427550  1
  Te  Te89  1  0.38727294  0.72636550  0.73046202  1
  Te  Te90  1  0.73275070  0.04396750  0.10239254  1
  Te  Te91  1  0.71821433  0.08705228  0.39196735  1
  Te  Te92  1  0.74574429  0.08166644  0.72802764  1
  Te  Te93  1  0.73169546  0.41022680  0.09270970  1
  Te  Te94  1  0.71157828  0.42512742  0.41436111  1
  Te  Te95  1  0.76146376  0.43312548  0.73814336  1
  Te  Te96  1  0.73729190  0.75467660  0.08290036  1
  Te  Te97  1  0.72938641  0.75614702  0.40931334  1
  Te  Te98  1  0.73119857  0.76300412  0.74177343  1
  Te  Te99  1  0.07587474  0.25638722  0.27396606  1
  Te  Te100  1  0.07815006  0.25328464  0.59954901  1
  Te  Te101  1  0.11472376  0.26185707  0.91390867  1
  Te  Te102  1  0.07424565  0.58530010  0.22787987  1
  Te  Te103  1  0.09635084  0.59116295  0.58557710  1
  Te  Te104  1  0.08241630  0.57914819  0.91056465  1
  Te  Te105  1  0.07706614  0.90627229  0.26871496  1
  Te  Te106  1  0.09953480  0.91533885  0.58341179  1
  Te  Te107  1  0.06207803  0.92946996  0.90480250  1
  Te  Te108  1  0.41021378  0.23765898  0.23762308  1
  Te  Te109  1  0.42918826  0.26075689  0.60984159  1
  Te  Te110  1  0.42440950  0.26360148  0.92384520  1
  Te  Te111  1  0.45057206  0.57611366  0.23795690  1
  Te  Te112  1  0.44659621  0.57851834  0.58577261  1
  Te  Te113  1  0.44806923  0.57483626  0.87754999  1
  Te  Te114  1  0.43802755  0.93217476  0.24792071  1
  Te  Te115  1  0.41546416  0.92285941  0.58983271  1
  Te  Te116  1  0.42537904  0.89725436  0.89103749  1
  Te  Te117  1  0.71670824  0.25126305  0.24055077  1
  Te  Te118  1  0.75254049  0.26333157  0.59069697  1
  Te  Te119  1  0.76192267  0.22437256  0.92496764  1
  Te  Te120  1  0.74669503  0.58569579  0.23533355  1
  Te  Te121  1  0.76042844  0.57037025  0.58378102  1
  Te  Te122  1  0.74679624  0.60024620  0.90824083  1
  Te  Te123  1  0.83514156  0.91486434  0.30810278  1
  Te  Te124  1  0.73945802  0.93249223  0.56044005  1
  Te  Te125  1  0.73378415  0.92490146  0.89142703  1
  Te  Te126  1  0.26489736  0.26400468  0.08020593  1
  Te  Te127  1  0.25116484  0.25160514  0.42329205  1
  Te  Te128  1  0.26858093  0.24955713  0.73430568  1
  Te  Te129  1  0.25958243  0.58192112  0.09844842  1
  Te  Te130  1  0.23052607  0.61087113  0.43553916  1
  Te  Te131  1  0.27714205  0.59364878  0.73587041  1
  Te  Te132  1  0.23522165  0.90700123  0.09224611  1
  Te  Te133  1  0.27252212  0.85458418  0.42169280  1
  Te  Te134  1  0.24568683  0.91303338  0.73420296  1
  Te  Te135  1  0.55842454  0.25250083  0.09564749  1
  Te  Te136  1  0.57056845  0.25320293  0.40963657  1
  Te  Te137  1  0.60821338  0.26162799  0.78243055  1
  Te  Te138  1  0.58927545  0.60896674  0.03910633  1
  Te  Te139  1  0.60402154  0.56166171  0.41304330  1
  Te  Te140  1  0.57140066  0.60232350  0.76760037  1
  Te  Te141  1  0.54778106  0.87418097  0.06648008  1
  Te  Te142  1  0.60104460  0.88974633  0.40991374  1
  Te  Te143  1  0.55277287  0.90763204  0.75587287  1
  Te  Te144  1  0.89955206  0.27614579  0.08968160  1
  Te  Te145  1  0.88724698  0.22482530  0.41496328  1
  Te  Te146  1  0.92718148  0.26223242  0.77700229  1
  Te  Te147  1  0.91801544  0.58211232  0.07694085  1
  Te  Te148  1  0.92393572  0.59249563  0.41095028  1
  Te  Te149  1  0.92280754  0.56186869  0.75129808  1
  Te  Te150  1  0.89680568  0.90674793  0.06700717  1
  Te  Te151  1  0.95021606  0.89882831  0.45680922  1
  Te  Te152  1  0.90271616  0.91359523  0.74130606  1
  Te  Te153  1  0.26083439  0.05292282  0.26452544  1
  Te  Te154  1  0.24140917  0.08773549  0.57482808  1
  Te  Te155  1  0.26470693  0.07056143  0.93885546  1
  Te  Te156  1  0.25961670  0.42912001  0.24892341  1
  Te  Te157  1  0.27261263  0.41236730  0.57433691  1
  Te  Te158  1  0.27104330  0.43576559  0.92164926  1
  Te  Te159  1  0.24846215  0.76105486  0.26899911  1
  Te  Te160  1  0.28462590  0.75147026  0.54105982  1
  Te  Te161  1  0.24891431  0.72215685  0.92977997  1
  Te  Te162  1  0.56446558  0.04698964  0.24501733  1
  Te  Te163  1  0.56947621  0.09451255  0.58458468  1
  Te  Te164  1  0.56399466  0.08682475  0.94743259  1
  Te  Te165  1  0.53346297  0.44781726  0.22430792  1
  Te  Te166  1  0.55890189  0.44663772  0.60632475  1
  Te  Te167  1  0.58188380  0.42149922  0.93184585  1
  Te  Te168  1  0.59085900  0.77289169  0.22515095  1
  Te  Te169  1  0.59267068  0.74761298  0.57164064  1
  Te  Te170  1  0.60899159  0.76477481  0.98944927  1
  Te  Te171  1  0.92893752  0.09022340  0.22022632  1
  Te  Te172  1  0.92662030  0.08289922  0.58935377  1
  Te  Te173  1  0.91711848  0.09255314  0.94576946  1
  Te  Te174  1  0.89664829  0.41771848  0.25829627  1
  Te  Te175  1  0.93572374  0.39195997  0.57901082  1
  Te  Te176  1  0.91520335  0.42945011  0.92192850  1
  Te  Te177  1  0.92454891  0.74308989  0.26472055  1
  Te  Te178  1  0.91790023  0.73143586  0.59023201  1
  Te  Te179  1  0.91792202  0.75664221  0.88907035  1
