# generated using pymatgen
data_In2Te3
_symmetry_space_group_name_H-M   'P 1'
_cell_length_a   18.75709073
_cell_length_b   18.75790583
_cell_length_c   18.75509273
_cell_angle_alpha   90.01592710
_cell_angle_beta   89.94237290
_cell_angle_gamma   90.00111771
_symmetry_Int_Tables_number   1
_chemical_formula_structural   In2Te3
_chemical_formula_sum   'In72 Te108'
_cell_volume   6598.85840423
_cell_formula_units_Z   36
loop_
 _symmetry_equiv_pos_site_id
 _symmetry_equiv_pos_as_xyz
  1  'x, y, z'
loop_
 _atom_site_type_symbol
 _atom_site_label
 _atom_site_symmetry_multiplicity
 _atom_site_fract_x
 _atom_site_fract_y
 _atom_site_fract_z
 _atom_site_occupancy
  In  In0  1  -0.02828681  0.66246708  0.69739330  1
  In  In1  1  0.16806910  0.68093619  0.16418402  1
  In  In2  1  0.48558545  0.84486020  -0.00716415  1
  In  In3  1  0.83040495  0.15215558  -0.03439740  1
  In  In4  1  0.84686861  0.51337952  0.00181044  1
  In  In5  1  -0.00400351  -0.00702534  -0.02336446  1
  In  In6  1  0.65881076  0.14367393  0.51361978  1
  In  In7  1  0.18060664  0.17507540  0.34939580  1
  In  In8  1  0.62802835  0.15504340  0.16931499  1
  In  In9  1  0.82118845  0.33994609  0.14480299  1
  In  In10  1  0.82569825  0.15240290  0.34581188  1
  In  In11  1  0.14859535  0.52113800  -0.00676040  1
  In  In12  1  0.19124643  0.66930320  0.51898935  1
  In  In13  1  0.49839102  0.66458307  0.82959296  1
  In  In14  1  0.49883035  0.83640771  0.67860141  1
  In  In15  1  0.68602046  0.82121539  0.79853881  1
  In  In16  1  0.81641515  -0.03093117  0.14822141  1
  In  In17  1  0.17098436  0.82797904  0.32383143  1
  In  In18  1  0.34137755  -0.00781831  0.70694901  1
  In  In19  1  0.83012286  -0.01148405  0.48814832  1
  In  In20  1  0.20783180  0.14587711  -0.04372375  1
  In  In21  1  0.66142260  0.81605295  0.16549982  1
  In  In22  1  0.82085857  0.53975762  0.31025476  1
  In  In23  1  0.32181701  0.31725307  0.69489795  1
  In  In24  1  0.35368310  0.30155854  -0.01589588  1
  In  In25  1  0.16522402  -0.00353654  0.49848434  1
  In  In26  1  0.37179141  0.14274021  0.14049439  1
  In  In27  1  -0.00678424  0.83144320  0.82322237  1
  In  In28  1  0.34711372  -0.00547899  0.32367643  1
  In  In29  1  0.50320732  0.67978303  0.14893568  1
  In  In30  1  0.69011881  0.79282946  0.48621380  1
  In  In31  1  -0.01201731  0.67062878  0.32495038  1
  In  In32  1  0.50932863  0.49145427  0.68357289  1
  In  In33  1  0.50951404  0.67806372  0.48778057  1
  In  In34  1  0.85466571  0.35714633  0.50446705  1
  In  In35  1  0.49704548  0.35046422  0.52394387  1
  In  In36  1  0.17030481  -0.02536728  0.16299662  1
  In  In37  1  0.50404901  0.17295078  0.30528663  1
  In  In38  1  0.66756431  0.34587818  -0.00228964  1
  In  In39  1  0.66563257  0.34044689  0.68068030  1
  In  In40  1  -0.01044959  0.51504856  0.17540590  1
  In  In41  1  0.65997716  -0.01708675  0.66134816  1
  In  In42  1  0.48570826  0.82165530  0.32293492  1
  In  In43  1  0.00978156  0.34137409  -0.02978694  1
  In  In44  1  0.00661101  0.19230701  0.53254376  1
  In  In45  1  -0.01276978  0.82464797  0.52707888  1
  In  In46  1  0.65670103  0.17080150  0.84134911  1
  In  In47  1  0.50853159  -0.00862394  0.51093818  1
  In  In48  1  0.51898061  0.52257859  0.33855809  1
  In  In49  1  0.83364887  0.17194149  0.67613557  1
  In  In50  1  0.17939727  0.82722796  0.00207843  1
  In  In51  1  0.02062789  0.01672022  0.71674003  1
  In  In52  1  0.01023114  -0.03335527  0.34252640  1
  In  In53  1  0.65979260  0.65783914  0.00893154  1
  In  In54  1  0.02981840  0.36674365  0.34291812  1
  In  In55  1  0.31823404  0.16476458  0.51525566  1
  In  In56  1  0.19253262  0.34827811  0.16959490  1
  In  In57  1  0.16511650  0.32422461  0.82867115  1
  In  In58  1  0.15338087  0.67802331  0.84822890  1
  In  In59  1  0.33665503  0.50831656  0.48048074  1
  In  In60  1  0.15528376  0.49768827  0.65407690  1
  In  In61  1  0.13075860  0.32753537  0.48675625  1
  In  In62  1  0.49774840  0.33861571  0.17222826  1
  In  In63  1  0.00010656  0.15116002  0.15999447  1
  In  In64  1  -0.00919294  0.35098750  0.66779407  1
  In  In65  1  0.68001118  0.49475549  0.84421657  1
  In  In66  1  0.33829677  0.68768337  0.66930701  1
  In  In67  1  0.67246779  0.34258949  0.34491536  1
  In  In68  1  0.82754639  0.81358377  -0.01636556  1
  In  In69  1  0.66508711  -0.01465906  -0.01396380  1
  In  In70  1  0.33779438  0.50914951  0.84904095  1
  In  In71  1  0.33346885  0.49978033  0.17749515  1
  Te  Te72  1  0.09547697  0.07413990  0.06745350  1
  Te  Te73  1  0.06842332  0.09052752  0.41581646  1
  Te  Te74  1  0.10726207  0.12430934  0.76562710  1
  Te  Te75  1  0.07255236  0.41014840  0.09361536  1
  Te  Te76  1  0.08176118  0.45997099  0.44452454  1
  Te  Te77  1  0.07778059  0.43396630  0.76860799  1
  Te  Te78  1  0.07463435  0.74493093  0.06910550  1
  Te  Te79  1  0.08180205  0.75445923  0.42694729  1
  Te  Te80  1  0.09097611  0.75351790  0.73213246  1
  Te  Te81  1  0.42766762  0.06603288  0.02770509  1
  Te  Te82  1  0.41896460  0.09039438  0.42290628  1
  Te  Te83  1  0.41042488  0.10446758  0.77234772  1
  Te  Te84  1  0.40944419  0.41320331  0.07310267  1
  Te  Te85  1  0.42989515  0.41404054  0.40280164  1
  Te  Te86  1  0.42105456  0.40464654  0.77370722  1
  Te  Te87  1  0.39998031  0.75600447  0.07492955  1
  Te  Te88  1  0.39952829  0.74970966  0.42096450  1
  Te  Te89  1  0.40180140  0.77340258  0.78031801  1
  Te  Te90  1  0.74765901  0.09187285  0.08115860  1
  Te  Te91  1  0.72123502  0.05615560  0.40433050  1
  Te  Te92  1  0.74201814  0.07749104  0.75212664  1
  Te  Te93  1  0.73493837  0.45023167  0.08853250  1
  Te  Te94  1  0.75846824  0.44131496  0.42023579  1
  Te  Te95  1  0.76892696  0.43301974  0.73625695  1
  Te  Te96  1  0.76633243  0.72825610  0.09619859  1
  Te  Te97  1  0.78055432  0.72204756  0.37923908  1
  Te  Te98  1  0.78891398  0.73009287  0.73647198  1
  Te  Te99  1  0.08162686  0.24637590  0.24936333  1
  Te  Te100  1  0.11153185  0.25678928  0.61814377  1
  Te  Te101  1  0.07465094  0.21935488  0.90659540  1
  Te  Te102  1  0.09621308  0.58218867  0.25933882  1
  Te  Te103  1  0.07138309  0.60503162  0.58845492  1
  Te  Te104  1  0.04878435  0.59100604  0.90997161  1
  Te  Te105  1  0.06415261  0.88478359  0.22654786  1
  Te  Te106  1  0.07529296  0.92564426  0.59885269  1
  Te  Te107  1  0.10086187  0.91723512  0.89410292  1
  Te  Te108  1  0.39180499  0.25615252  0.24565587  1
  Te  Te109  1  0.41912904  0.24359137  0.60060535  1
  Te  Te110  1  0.41661983  0.21227188  0.88644718  1
  Te  Te111  1  0.41941908  0.60011522  0.25316883  1
  Te  Te112  1  0.42296336  0.58180388  0.59239071  1
  Te  Te113  1  0.43003849  0.58629899  0.93548643  1
  Te  Te114  1  0.41730347  0.91028354  0.22496068  1
  Te  Te115  1  0.40418423  0.91083437  0.58567802  1
  Te  Te116  1  0.40342192  0.95049268  0.92285949  1
  Te  Te117  1  0.74453798  0.24444913  0.24457786  1
  Te  Te118  1  0.75378960  0.25205512  0.56792830  1
  Te  Te119  1  0.75927746  0.27048483  0.90048913  1
  Te  Te120  1  0.71750292  0.61976575  0.24166488  1
  Te  Te121  1  0.74845884  0.65676677  0.60643764  1
  Te  Te122  1  0.76262656  0.60527335  0.90893574  1
  Te  Te123  1  0.73314986  0.91216639  0.25449449  1
  Te  Te124  1  0.75696612  0.89548717  0.58413286  1
  Te  Te125  1  0.76470800  0.91856136  0.89321707  1
  Te  Te126  1  0.24610008  0.23629330  0.08102473  1
  Te  Te127  1  0.26310254  0.27672699  0.42577215  1
  Te  Te128  1  0.24991438  0.20872664  0.77402211  1
  Te  Te129  1  0.25532363  0.58711670  0.07603867  1
  Te  Te130  1  0.26561109  0.61230764  0.40377895  1
  Te  Te131  1  0.24967528  0.58217319  0.74792465  1
  Te  Te132  1  0.27375897  0.91882727  0.07469581  1
  Te  Te133  1  0.26115921  0.91033255  0.41860350  1
  Te  Te134  1  0.23232228  0.91902843  0.77752113  1
  Te  Te135  1  0.56746041  0.25050242  0.06792146  1
  Te  Te136  1  0.57986805  0.24693810  0.42331424  1
  Te  Te137  1  0.57171683  0.25389771  0.75157279  1
  Te  Te138  1  0.55871710  0.56715989  0.06797880  1
  Te  Te139  1  0.61145177  0.58442248  0.43634479  1
  Te  Te140  1  0.60388036  0.59203355  0.74781715  1
  Te  Te141  1  0.57698403  0.91989278  0.09129246  1
  Te  Te142  1  0.58110612  0.88925858  0.42593467  1
  Te  Te143  1  0.57353832  0.92771773  0.77462884  1
  Te  Te144  1  0.91602643  0.24458650  0.07003003  1
  Te  Te145  1  0.92204033  0.25286899  0.41128797  1
  Te  Te146  1  0.91415641  0.26285267  0.75857053  1
  Te  Te147  1  0.91856328  0.61057777  0.09016611  1
  Te  Te148  1  0.90961776  0.58643257  0.42052443  1
  Te  Te149  1  0.88797673  0.54373262  0.73292614  1
  Te  Te150  1  0.92556475  0.89600770  0.07184580  1
  Te  Te151  1  0.90361452  0.88071308  0.40715321  1
  Te  Te152  1  0.91169072  0.91981638  0.73548755  1
  Te  Te153  1  0.24801167  0.08528663  0.24530453  1
  Te  Te154  1  0.24440436  0.06953871  0.60558987  1
  Te  Te155  1  0.26746959  0.02184482  0.88449690  1
  Te  Te156  1  0.24488560  0.43222539  0.27696829  1
  Te  Te157  1  0.27160917  0.42127243  0.59085766  1
  Te  Te158  1  0.24316972  0.40790564  0.93089061  1
  Te  Te159  1  0.26942486  0.76279651  0.23581790  1
  Te  Te160  1  0.24632374  0.78024887  0.60018758  1
  Te  Te161  1  0.26750041  0.74423742  0.91326526  1
  Te  Te162  1  0.56831319  0.04991161  0.25434569  1
  Te  Te163  1  0.55984030  0.09064296  0.61602223  1
  Te  Te164  1  0.56974234  0.09049257  0.93632092  1
  Te  Te165  1  0.59797052  0.42874927  0.24348288  1
  Te  Te166  1  0.60807576  0.43998451  0.57643039  1
  Te  Te167  1  0.57228934  0.41729164  0.90997152  1
  Te  Te168  1  0.59958319  0.72039816  0.27008321  1
  Te  Te169  1  0.59178227  0.74474930  0.60145767  1
  Te  Te170  1  0.59776632  0.76455325  0.91508948  1
  Te  Te171  1  0.91098556  0.06448295  0.25099042  1
  Te  Te172  1  0.91293740  0.07793403  0.57943838  1
  Te  Te173  1  0.91712642  0.07087517  0.87778731  1
  Te  Te174  1  0.90408025  0.40786143  0.25453075  1
  Te  Te175  1  0.91801980  0.46071131  0.59272101  1
  Te  Te176  1  0.90418799  0.41780379  0.90326921  1
  Te  Te177  1  0.87856334  0.75352021  0.26918798  1
  Te  Te178  1  0.88197771  0.72579381  0.58353026  1
  Te  Te179  1  0.92159952  0.72877498  0.90505625  1
