# generated using pymatgen
data_In2Te3
_symmetry_space_group_name_H-M   'P 1'
_cell_length_a   18.89272848
_cell_length_b   18.89532396
_cell_length_c   18.88868480
_cell_angle_alpha   90.11985943
_cell_angle_beta   89.99204355
_cell_angle_gamma   90.08639421
_symmetry_Int_Tables_number   1
_chemical_formula_structural   In2Te3
_chemical_formula_sum   'In72 Te108'
_cell_volume   6742.94002990
_cell_formula_units_Z   36
loop_
 _symmetry_equiv_pos_site_id
 _symmetry_equiv_pos_as_xyz
  1  'x, y, z'
loop_
 _atom_site_type_symbol
 _atom_site_label
 _atom_site_symmetry_multiplicity
 _atom_site_fract_x
 _atom_site_fract_y
 _atom_site_fract_z
 _atom_site_occupancy
  In  In0  1  0.84516986  0.86571783  0.59640352  1
  In  In1  1  0.33632686  0.65123146  0.66848285  1
  In  In2  1  0.52448059  0.47533455  -0.03338206  1
  In  In3  1  0.68127158  0.32511455  0.33822505  1
  In  In4  1  0.67173540  0.16183899  0.86055975  1
  In  In5  1  0.83133829  0.34469615  0.16250092  1
  In  In6  1  0.51441728  0.15728973  -0.00243496  1
  In  In7  1  0.34244964  0.18409845  0.82532880  1
  In  In8  1  0.68359766  0.31467088  0.67660100  1
  In  In9  1  0.00184797  0.15930543  0.47925866  1
  In  In10  1  0.49305618  0.51235319  0.34585366  1
  In  In11  1  0.67879625  0.83540778  0.81848388  1
  In  In12  1  0.68435591  -0.01469141  0.64911184  1
  In  In13  1  0.16985022  0.83375788  0.66689550  1
  In  In14  1  0.53404973  0.17013345  0.31938849  1
  In  In15  1  -0.01195195  0.67220055  0.68011607  1
  In  In16  1  0.49910980  0.66605128  0.81939148  1
  In  In17  1  0.14657764  0.00851062  0.83869886  1
  In  In18  1  0.84110035  0.51081811  0.01478133  1
  In  In19  1  -0.00871566  0.83782892  0.84910495  1
  In  In20  1  0.65914772  0.68078981  0.65775111  1
  In  In21  1  0.67571107  0.50307267  0.15991236  1
  In  In22  1  0.53821700  0.81675032  0.30241654  1
  In  In23  1  0.33627052  0.50030036  0.49241978  1
  In  In24  1  0.13780654  0.64576512  0.89898664  1
  In  In25  1  0.15186822  0.17222334  0.01487792  1
  In  In26  1  0.81971002  0.48295259  0.69233970  1
  In  In27  1  0.49003024  0.15915318  0.66848254  1
  In  In28  1  0.84898108  0.67067988  0.83996481  1
  In  In29  1  0.81675557  0.68263576  0.46286134  1
  In  In30  1  0.52411156  0.68192594  0.48878765  1
  In  In31  1  0.81658837  0.14787827  0.36897903  1
  In  In32  1  0.16501393  0.84264746  0.31501865  1
  In  In33  1  0.18594436  0.33295358  0.84034272  1
  In  In34  1  0.34454460  0.15668744  0.50885165  1
  In  In35  1  0.00463434  0.16656874  0.82610463  1
  In  In36  1  0.33035165  0.33028985  0.01204790  1
  In  In37  1  0.51640707  -0.00616375  0.50370245  1
  In  In38  1  0.30497380  0.65326212  0.03292698  1
  In  In39  1  0.17399851  0.34721387  0.50700231  1
  In  In40  1  0.83290045  0.82534494  -0.00507785  1
  In  In41  1  0.32193911  -0.01902912  0.00185752  1
  In  In42  1  0.82574446  -0.01035987  0.16566586  1
  In  In43  1  0.68235126  0.67492894  0.01855063  1
  In  In44  1  0.82178821  0.51690201  0.31440758  1
  In  In45  1  0.31357008  0.00725262  0.32728149  1
  In  In46  1  0.14477740  0.51707357  0.31102029  1
  In  In47  1  0.16490941  -0.00845105  0.49834708  1
  In  In48  1  -0.00508515  0.51593200  0.16074257  1
  In  In49  1  0.85102476  -0.00544365  0.83148297  1
  In  In50  1  -0.02686884  0.82114155  0.17249968  1
  In  In51  1  -0.02061877  0.16309710  0.17741072  1
  In  In52  1  0.33459742  -0.00381280  0.67551120  1
  In  In53  1  0.67139412  0.49745560  0.51381226  1
  In  In54  1  -0.01694754  0.50410856  0.49887747  1
  In  In55  1  0.33063923  0.15766892  0.20731352  1
  In  In56  1  0.00014502  0.31801037  0.66888329  1
  In  In57  1  0.50364651  0.81008418  0.65441083  1
  In  In58  1  0.51268970  -0.00095263  0.15911477  1
  In  In59  1  0.16385466  0.15252156  0.32330608  1
  In  In60  1  0.33687558  0.49848978  0.83870796  1
  In  In61  1  0.50103940  0.48619765  0.69740104  1
  In  In62  1  0.84068231  0.17712352  0.64829305  1
  In  In63  1  0.30997926  0.36836254  0.33485872  1
  In  In64  1  0.51156315  0.32395983  0.14910640  1
  In  In65  1  0.14996940  0.70200221  0.47898741  1
  In  In66  1  0.31976355  0.84086677  0.15270838  1
  In  In67  1  0.33738251  0.68208024  0.32269985  1
  In  In68  1  0.83978214  0.15192696  0.01660351  1
  In  In69  1  0.17011182  0.49783348  0.66525541  1
  In  In70  1  0.49754859  0.83953876  0.01752721  1
  In  In71  1  0.14626213  0.35915197  0.18388763  1
  Te  Te72  1  0.07167727  0.08082328  0.09561560  1
  Te  Te73  1  0.07424154  0.05366904  0.39388544  1
  Te  Te74  1  0.06699623  0.07149930  0.73386285  1
  Te  Te75  1  0.07871883  0.42869526  0.07143814  1
  Te  Te76  1  0.08135416  0.42272770  0.41378310  1
  Te  Te77  1  0.08401547  0.41277061  0.75390757  1
  Te  Te78  1  0.02214449  0.70799126  0.08560787  1
  Te  Te79  1  0.05862961  0.78008984  0.39827283  1
  Te  Te80  1  0.08771059  0.74171561  0.77015190  1
  Te  Te81  1  0.40342715  0.09096374  0.09134457  1
  Te  Te82  1  0.42563122  0.08345610  0.40244238  1
  Te  Te83  1  0.42591467  0.06861306  0.77284201  1
  Te  Te84  1  0.42756599  0.42761153  0.07823233  1
  Te  Te85  1  0.43026311  0.40082989  0.42809697  1
  Te  Te86  1  0.40910421  0.39459563  0.76470675  1
  Te  Te87  1  0.41865828  0.73974421  0.09726847  1
  Te  Te88  1  0.43088017  0.76693034  0.40771221  1
  Te  Te89  1  0.39941157  0.76003390  0.75532366  1
  Te  Te90  1  0.73362062  0.07546030  0.08681836  1
  Te  Te91  1  0.70723360  0.05288409  0.40112167  1
  Te  Te92  1  0.75758122  0.07997615  0.74436164  1
  Te  Te93  1  0.73638617  0.40585498  0.06107081  1
  Te  Te94  1  0.76586819  0.42299696  0.42038165  1
  Te  Te95  1  0.73401790  0.40632493  0.78824503  1
  Te  Te96  1  0.73721355  0.78469477  0.10275487  1
  Te  Te97  1  0.74676298  0.78168010  0.37812881  1
  Te  Te98  1  0.77244919  0.75200939  0.73395686  1
  Te  Te99  1  0.07020236  0.25553391  0.26366192  1
  Te  Te100  1  0.09219214  0.24115002  0.57649970  1
  Te  Te101  1  0.07658671  0.26328415  0.92105700  1
  Te  Te102  1  0.06726025  0.62003607  0.24050039  1
  Te  Te103  1  0.08629776  0.58934172  0.57781622  1
  Te  Te104  1  0.05075220  0.53600839  0.94289820  1
  Te  Te105  1  0.06891860  0.91780714  0.23203200  1
  Te  Te106  1  0.07742961  0.90399448  0.57865415  1
  Te  Te107  1  0.08857206  0.90950371  0.93314636  1
  Te  Te108  1  0.41794462  0.27133100  0.25930168  1
  Te  Te109  1  0.41739084  0.25668688  0.58612065  1
  Te  Te110  1  0.43074114  0.26130239  0.92204745  1
  Te  Te111  1  0.42484254  0.59337887  0.24564947  1
  Te  Te112  1  0.44071824  0.58496131  0.57758033  1
  Te  Te113  1  0.41909891  0.59261256  0.92537563  1
  Te  Te114  1  0.41283754  0.91817544  0.24604342  1
  Te  Te115  1  0.41422815  0.91013820  0.57853186  1
  Te  Te116  1  0.42091358  0.91379060  0.91804213  1
  Te  Te117  1  0.76584085  0.23913963  0.24821291  1
  Te  Te118  1  0.74912315  0.25085317  0.56062711  1
  Te  Te119  1  0.77628420  0.24474188  0.92089763  1
  Te  Te120  1  0.73811689  0.61651673  0.23864714  1
  Te  Te121  1  0.76962012  0.58964492  0.58745030  1
  Te  Te122  1  0.74796333  0.58737297  0.91380501  1
  Te  Te123  1  0.77324773  0.90301059  0.27878043  1
  Te  Te124  1  0.74933443  0.95304157  0.51162749  1
  Te  Te125  1  0.74672148  0.92620836  0.91906302  1
  Te  Te126  1  0.24607292  0.25623004  0.11638795  1
  Te  Te127  1  0.25038904  0.24537157  0.41107355  1
  Te  Te128  1  0.23826516  0.24023000  0.73974784  1
  Te  Te129  1  0.21948164  0.56242092  0.10747183  1
  Te  Te130  1  0.24110979  0.58841065  0.41491923  1
  Te  Te131  1  0.23556324  0.59191631  0.76826962  1
  Te  Te132  1  0.21701260  0.89330548  0.05912712  1
  Te  Te133  1  0.26143226  0.90268802  0.42138399  1
  Te  Te134  1  0.24721873  0.91495184  0.76934593  1
  Te  Te135  1  0.60718227  0.24024627  0.07813763  1
  Te  Te136  1  0.59383060  0.24750093  0.42795482  1
  Te  Te137  1  0.58273408  0.23814322  0.76124365  1
  Te  Te138  1  0.57787043  0.57685421  0.07032689  1
  Te  Te139  1  0.61060670  0.58860680  0.40810585  1
  Te  Te140  1  0.60624972  0.57880701  0.75719517  1
  Te  Te141  1  0.60492603  0.89624012  0.10225727  1
  Te  Te142  1  0.58343556  0.93632901  0.38245559  1
  Te  Te143  1  0.57995226  0.91553889  0.73607402  1
  Te  Te144  1  0.92820934  0.26557263  0.07723059  1
  Te  Te145  1  0.90866376  0.25284104  0.41679937  1
  Te  Te146  1  0.89909024  0.25768148  0.76488435  1
  Te  Te147  1  0.88964203  0.61359427  0.11281060  1
  Te  Te148  1  0.92449881  0.59799603  0.39512742  1
  Te  Te149  1  0.92988361  0.56178313  0.76572232  1
  Te  Te150  1  0.92296255  0.92275192  0.06886631  1
  Te  Te151  1  0.90308635  0.94152036  0.47956029  1
  Te  Te152  1  0.91569291  0.89921912  0.73344827  1
  Te  Te153  1  0.21941144  0.05429339  0.21804140  1
  Te  Te154  1  0.24213625  0.08382027  0.59334445  1
  Te  Te155  1  0.25216464  0.10103434  0.92400584  1
  Te  Te156  1  0.26365931  0.46255742  0.21962386  1
  Te  Te157  1  0.27616980  0.41112463  0.60019598  1
  Te  Te158  1  0.24486470  0.43293511  0.94046737  1
  Te  Te159  1  0.23381812  0.73835681  0.22779161  1
  Te  Te160  1  0.25899977  0.74577987  0.57760298  1
  Te  Te161  1  0.24265065  0.74137604  0.93302532  1
  Te  Te162  1  0.61212943  0.08896613  0.22463353  1
  Te  Te163  1  0.59780918  0.09356940  0.58304575  1
  Te  Te164  1  0.58845960  0.05663564  0.92085764  1
  Te  Te165  1  0.58807327  0.41914593  0.25470887  1
  Te  Te166  1  0.58562805  0.40748024  0.59763864  1
  Te  Te167  1  0.60071018  0.39767440  0.87070484  1
  Te  Te168  1  0.61642848  0.71482450  0.23353054  1
  Te  Te169  1  0.61777741  0.78269844  0.55435634  1
  Te  Te170  1  0.59125649  0.74980016  0.90936056  1
  Te  Te171  1  0.90602480  0.06817900  0.27010275  1
  Te  Te172  1  0.91809661  0.07431208  0.57249272  1
  Te  Te173  1  0.93733561  0.07366836  0.92619025  1
  Te  Te174  1  0.92333881  0.42000657  0.25654889  1
  Te  Te175  1  0.90697146  0.40944191  0.59040508  1
  Te  Te176  1  0.92535834  0.45145154  0.91038832  1
  Te  Te177  1  0.87672477  0.78914038  0.28464390  1
  Te  Te178  1  0.92445656  0.73849418  0.56085927  1
  Te  Te179  1  0.94315178  0.72201200  0.94883438  1
