# generated using pymatgen
data_In2Te3
_symmetry_space_group_name_H-M   'P 1'
_cell_length_a   18.75569979
_cell_length_b   18.76844120
_cell_length_c   18.76167391
_cell_angle_alpha   89.98461063
_cell_angle_beta   89.99679023
_cell_angle_gamma   90.00384673
_symmetry_Int_Tables_number   1
_chemical_formula_structural   In2Te3
_chemical_formula_sum   'In72 Te108'
_cell_volume   6604.39504273
_cell_formula_units_Z   36
loop_
 _symmetry_equiv_pos_site_id
 _symmetry_equiv_pos_as_xyz
  1  'x, y, z'
loop_
 _atom_site_type_symbol
 _atom_site_label
 _atom_site_symmetry_multiplicity
 _atom_site_fract_x
 _atom_site_fract_y
 _atom_site_fract_z
 _atom_site_occupancy
  In  In0  1  0.81921251  0.84263417  0.66416485  1
  In  In1  1  0.00241272  0.46311427  0.83057617  1
  In  In2  1  0.80338796  0.29639598  0.86185154  1
  In  In3  1  0.02076973  0.83900120  0.46815188  1
  In  In4  1  0.82687259  0.16460400  0.68174949  1
  In  In5  1  0.47286113  0.35409617  0.48131541  1
  In  In6  1  0.49712246  0.15726124  -0.00028069  1
  In  In7  1  0.33473483  0.36295553  0.33251349  1
  In  In8  1  0.69170368  0.84976519  0.17771579  1
  In  In9  1  0.85528847  0.50423259  0.32308932  1
  In  In10  1  0.49823250  0.84266712  0.31942462  1
  In  In11  1  -0.00073852  0.15832107  0.50330055  1
  In  In12  1  -0.00595582  0.67057518  0.65050283  1
  In  In13  1  0.82840833  0.01946996  0.84556801  1
  In  In14  1  0.36786592  0.15702169  0.47796152  1
  In  In15  1  0.66350564  0.83128782  0.85301674  1
  In  In16  1  0.15661126  -0.01463284  0.15435649  1
  In  In17  1  0.67281298  0.00030195  0.02741291  1
  In  In18  1  0.32562340  -0.00510130  0.64980847  1
  In  In19  1  0.32900800  0.35868251  0.67610026  1
  In  In20  1  0.15889479  0.14783010  0.68552081  1
  In  In21  1  0.32540006  0.49202908  0.82159938  1
  In  In22  1  0.52316337  -0.00661217  0.47402735  1
  In  In23  1  0.00249525  0.34389068  0.30549912  1
  In  In24  1  0.32112426  0.83436543  0.47625045  1
  In  In25  1  0.50028505  0.68246387  0.17058025  1
  In  In26  1  0.18584903  -0.03561977  0.48712375  1
  In  In27  1  0.18687424  0.65838591  0.84162957  1
  In  In28  1  0.84972684  0.67687911  0.84176655  1
  In  In29  1  0.50280228  0.48863554  0.01206162  1
  In  In30  1  0.83831734  0.35692023  0.49502333  1
  In  In31  1  -0.00494079  0.83527674  0.85657487  1
  In  In32  1  0.32417793  0.16423808  0.15126599  1
  In  In33  1  -0.01620873  -0.00128092  0.31155858  1
  In  In34  1  0.82336332  0.67741095  0.16366814  1
  In  In35  1  0.15196291  0.01044652  0.84387665  1
  In  In36  1  0.66239624  0.50507966  0.82968577  1
  In  In37  1  0.35791647  0.68554107  0.01566312  1
  In  In38  1  -0.00419050  0.68674146  0.31797613  1
  In  In39  1  0.15940972  0.35288403  0.49894881  1
  In  In40  1  0.50811045  0.81558366  0.67346523  1
  In  In41  1  0.34149788  0.50617002  0.16522778  1
  In  In42  1  0.65612457  0.31699463  0.30609664  1
  In  In43  1  0.51165891  0.67361554  0.82374771  1
  In  In44  1  0.16547907  0.82692710  0.64632509  1
  In  In45  1  0.12515783  0.32460457  0.85680011  1
  In  In46  1  0.66345552  0.52443909  0.49754105  1
  In  In47  1  0.00837120  0.53147472  0.48541318  1
  In  In48  1  0.81508375  0.51799783  0.63404877  1
  In  In49  1  -0.01725620  -0.00858783  0.02331576  1
  In  In50  1  0.68937506  0.14436464  0.48735126  1
  In  In51  1  0.15545283  0.31807394  0.16419864  1
  In  In52  1  0.34254214  0.16947994  0.84675550  1
  In  In53  1  0.82776301  -0.00314087  0.48737911  1
  In  In54  1  -0.00148197  0.34057118  0.70838084  1
  In  In55  1  0.48194779  0.50739545  0.65768241  1
  In  In56  1  0.51113870  0.32090833  0.16065007  1
  In  In57  1  0.51137946  0.14157280  0.32711968  1
  In  In58  1  0.32883241  -0.00736883  0.00383286  1
  In  In59  1  0.53298113  0.19327050  0.66887312  1
  In  In60  1  0.67407993  0.49812467  0.17064155  1
  In  In61  1  0.15485684  0.48645983  0.00164058  1
  In  In62  1  0.49970832  0.00255711  0.84244008  1
  In  In63  1  0.66284595  0.33919235  0.69261138  1
  In  In64  1  0.84133580  0.14422131  0.31667679  1
  In  In65  1  0.82858083  0.50864069  -0.00106307  1
  In  In66  1  0.34317297  0.82207820  0.84374380  1
  In  In67  1  0.01470067  0.67643651  0.02497191  1
  In  In68  1  0.16360900  0.67966185  0.18811402  1
  In  In69  1  0.67090919  0.14965962  0.17344472  1
  In  In70  1  0.50915147  0.67540012  0.49154780  1
  In  In71  1  0.16271182  0.17536829  0.31919692  1
  Te  Te72  1  0.08338398  0.08963600  0.07692961  1
  Te  Te73  1  0.08426406  0.07255891  0.41022365  1
  Te  Te74  1  0.05243176  0.07984071  0.75992859  1
  Te  Te75  1  0.06014758  0.41040640  0.08826075  1
  Te  Te76  1  0.08778632  0.43654942  0.39302345  1
  Te  Te77  1  0.11941311  0.43078771  0.73841687  1
  Te  Te78  1  0.08338140  0.77920523  0.10789221  1
  Te  Te79  1  0.10374754  0.72611106  0.41584377  1
  Te  Te80  1  0.08312305  0.75306870  0.75953349  1
  Te  Te81  1  0.42803792  0.06554248  0.09798016  1
  Te  Te82  1  0.39591091  0.02952464  0.38996730  1
  Te  Te83  1  0.41533842  0.08291063  0.73998744  1
  Te  Te84  1  0.40274476  0.39440128  0.08065897  1
  Te  Te85  1  0.41466087  0.47363769  0.40166429  1
  Te  Te86  1  0.44179833  0.40787476  0.76693376  1
  Te  Te87  1  0.39950776  0.78310022  0.11970141  1
  Te  Te88  1  0.40747195  0.74004163  0.39170569  1
  Te  Te89  1  0.39735206  0.73032005  0.73519503  1
  Te  Te90  1  0.78146828  0.07915978  0.09683898  1
  Te  Te91  1  0.72772241  0.05229343  0.36798559  1
  Te  Te92  1  0.72843359  0.08366297  0.75506783  1
  Te  Te93  1  0.74484484  0.41091860  0.07423875  1
  Te  Te94  1  0.73744419  0.41768300  0.39936740  1
  Te  Te95  1  0.77699889  0.41825963  0.75558451  1
  Te  Te96  1  0.73249530  0.75043466  0.07314341  1
  Te  Te97  1  0.77866739  0.72062739  0.44618201  1
  Te  Te98  1  0.74362738  0.74406994  0.75392568  1
  Te  Te99  1  0.05024646  0.22049556  0.22787433  1
  Te  Te100  1  0.07944076  0.25532436  0.58995776  1
  Te  Te101  1  0.06657197  0.21924234  0.94823020  1
  Te  Te102  1  0.06787123  0.58012721  0.24397798  1
  Te  Te103  1  0.10089070  0.59468267  0.58139744  1
  Te  Te104  1  0.06713941  0.58576144  0.90914054  1
  Te  Te105  1  0.08669499  0.90303839  0.25942548  1
  Te  Te106  1  0.07386375  0.93121511  0.58627917  1
  Te  Te107  1  0.09461128  0.91082135  0.94221684  1
  Te  Te108  1  0.41531482  0.24423435  0.26099905  1
  Te  Te109  1  0.41173315  0.25182158  0.59323550  1
  Te  Te110  1  0.42428454  0.26238369  0.92599087  1
  Te  Te111  1  0.40086210  0.60708912  0.25375395  1
  Te  Te112  1  0.40356704  0.59354980  0.56448244  1
  Te  Te113  1  0.41586759  0.58212229  0.91473634  1
  Te  Te114  1  0.40926886  0.94651357  0.26306463  1
  Te  Te115  1  0.42430920  0.90777391  0.57412199  1
  Te  Te116  1  0.43436695  0.90209235  0.93577456  1
  Te  Te117  1  0.77290275  0.25444481  0.23225617  1
  Te  Te118  1  0.75450136  0.25919961  0.57953205  1
  Te  Te119  1  0.73803470  0.22932801  0.97448130  1
  Te  Te120  1  0.74504769  0.59440067  0.26607697  1
  Te  Te121  1  0.74360828  0.63561208  0.56811014  1
  Te  Te122  1  0.73832588  0.60316408  0.91953955  1
  Te  Te123  1  0.76818832  0.92900297  0.27885383  1
  Te  Te124  1  0.73277766  0.92180031  0.57238677  1
  Te  Te125  1  0.76085463  0.91426908  0.93548226  1
  Te  Te126  1  0.24666305  0.25549702  0.06604233  1
  Te  Te127  1  0.25168967  0.25573900  0.41691579  1
  Te  Te128  1  0.24313584  0.25372749  0.75640840  1
  Te  Te129  1  0.24497316  0.58944029  0.07134680  1
  Te  Te130  1  0.28683237  0.54036493  0.44646527  1
  Te  Te131  1  0.25488177  0.58686175  0.73293752  1
  Te  Te132  1  0.26803488  0.89754637  0.10201070  1
  Te  Te133  1  0.22429428  0.88301311  0.36378839  1
  Te  Te134  1  0.25061672  0.91663265  0.75807878  1
  Te  Te135  1  0.61122905  0.25091150  0.06781022  1
  Te  Te136  1  0.57951237  0.24485410  0.42460378  1
  Te  Te137  1  0.59435006  0.25041648  0.78930196  1
  Te  Te138  1  0.58867985  0.59150704  0.08296904  1
  Te  Te139  1  0.58338596  0.59027069  0.39324553  1
  Te  Te140  1  0.59296281  0.59119854  0.72333485  1
  Te  Te141  1  0.57787649  0.91810322  0.10592485  1
  Te  Te142  1  0.60469132  0.88314351  0.41892358  1
  Te  Te143  1  0.58943187  0.91937002  0.75043773  1
  Te  Te144  1  0.96760422  0.28507564  0.03771876  1
  Te  Te145  1  0.91604937  0.25070016  0.41300798  1
  Te  Te146  1  0.91962753  0.23293529  0.78250000  1
  Te  Te147  1  0.92232017  0.57890443  0.09801649  1
  Te  Te148  1  0.88928808  0.61740139  0.42837218  1
  Te  Te149  1  0.91667017  0.57713610  0.74530818  1
  Te  Te150  1  0.92471178  0.87728373  0.10144430  1
  Te  Te151  1  0.89607740  0.89858511  0.39125815  1
  Te  Te152  1  0.91232590  0.91889655  0.76004889  1
  Te  Te153  1  0.24981698  0.07461830  0.24845738  1
  Te  Te154  1  0.24427401  0.09451204  0.56722147  1
  Te  Te155  1  0.24088813  0.09640621  0.93418741  1
  Te  Te156  1  0.23301763  0.42944698  0.24225533  1
  Te  Te157  1  0.26506862  0.43990943  0.56598586  1
  Te  Te158  1  0.24792619  0.40169154  0.91744730  1
  Te  Te159  1  0.24672101  0.74386326  0.29238529  1
  Te  Te160  1  0.24093025  0.73777953  0.55757919  1
  Te  Te161  1  0.24343705  0.75884761  0.94055633  1
  Te  Te162  1  0.57716678  0.04763214  0.23178201  1
  Te  Te163  1  0.58879047  0.07912830  0.58534883  1
  Te  Te164  1  0.60344481  0.08410415  0.91788374  1
  Te  Te165  1  0.56346571  0.42875143  0.25429857  1
  Te  Te166  1  0.58584490  0.41077937  0.58007531  1
  Te  Te167  1  0.59467995  0.41325002  0.92346307  1
  Te  Te168  1  0.60454261  0.74866132  0.26005065  1
  Te  Te169  1  0.59889873  0.77243759  0.56329191  1
  Te  Te170  1  0.56827527  0.75188343  0.93483013  1
  Te  Te171  1  0.90374235  0.06618115  0.20284206  1
  Te  Te172  1  0.91152091  0.07174493  0.59202224  1
  Te  Te173  1  0.91950048  0.09546064  0.93586200  1
  Te  Te174  1  0.89682447  0.40467665  0.22178416  1
  Te  Te175  1  0.93943141  0.42602771  0.58553903  1
  Te  Te176  1  0.91309822  0.39246252  0.93451865  1
  Te  Te177  1  0.91717499  0.78108579  0.22503926  1
  Te  Te178  1  0.92044635  0.77490439  0.56936803  1
  Te  Te179  1  0.90463693  0.76246043  0.95670779  1
