# generated using pymatgen
data_In2Te3
_symmetry_space_group_name_H-M   'P 1'
_cell_length_a   18.86434208
_cell_length_b   18.88251709
_cell_length_c   18.86293255
_cell_angle_alpha   89.88852387
_cell_angle_beta   89.95467728
_cell_angle_gamma   90.01775369
_symmetry_Int_Tables_number   1
_chemical_formula_structural   In2Te3
_chemical_formula_sum   'In72 Te108'
_cell_volume   6719.07954522
_cell_formula_units_Z   36
loop_
 _symmetry_equiv_pos_site_id
 _symmetry_equiv_pos_as_xyz
  1  'x, y, z'
loop_
 _atom_site_type_symbol
 _atom_site_label
 _atom_site_symmetry_multiplicity
 _atom_site_fract_x
 _atom_site_fract_y
 _atom_site_fract_z
 _atom_site_occupancy
  In  In0  1  0.32746036  0.49674062  0.19148839  1
  In  In1  1  0.29336919  0.82070418  0.20127847  1
  In  In2  1  0.67720947  -0.00937806  0.01742755  1
  In  In3  1  0.00270979  0.00396822  0.31903882  1
  In  In4  1  0.86445820  -0.00105880  0.83417009  1
  In  In5  1  0.30844263  0.67172929  -0.00217069  1
  In  In6  1  0.16260783  0.84211842  -0.00250646  1
  In  In7  1  0.69885482  0.51029600  0.49115383  1
  In  In8  1  0.47920389  0.84249430  0.34681097  1
  In  In9  1  0.46950646  0.13542027  0.35279375  1
  In  In10  1  -0.01240185  0.36281822  0.63474908  1
  In  In11  1  0.49324936  0.82476862  0.00917666  1
  In  In12  1  0.53023215  0.48871691  0.00405046  1
  In  In13  1  0.00999969  0.83384254  0.83499198  1
  In  In14  1  0.01770504  -0.01942772  0.67142894  1
  In  In15  1  0.31026646  0.83737549  0.47216582  1
  In  In16  1  0.48308722  -0.00542625  0.82952850  1
  In  In17  1  0.67699752  0.68002145  0.33994566  1
  In  In18  1  0.83236578  0.84833847  0.02831449  1
  In  In19  1  0.13805608  0.15473779  0.01734940  1
  In  In20  1  0.15917063  0.51015138  0.65475196  1
  In  In21  1  0.83953368  0.00327516  0.18213514  1
  In  In22  1  0.49149072  0.83232496  0.66419688  1
  In  In23  1  0.83301668  0.65907679  0.81260385  1
  In  In24  1  0.50996091  0.34720980  0.49693476  1
  In  In25  1  0.67826030  0.66903176  0.64693102  1
  In  In26  1  0.17215198  0.33656525  0.80212921  1
  In  In27  1  0.48958442  0.15858222  0.64742257  1
  In  In28  1  0.14331218  0.35714555  0.16712136  1
  In  In29  1  0.68025277  0.35080677  0.34675516  1
  In  In30  1  0.00687639  0.82861541  0.18734635  1
  In  In31  1  0.00841334  0.33600938  0.34546277  1
  In  In32  1  0.82326005  0.00398060  0.49278503  1
  In  In33  1  -0.01312383  0.66611864  0.35936022  1
  In  In34  1  0.01361498  0.66672500  -0.00506753  1
  In  In35  1  0.65500776  0.64461243  -0.00775797  1
  In  In36  1  0.34804234  0.31922383  -0.01143650  1
  In  In37  1  0.68058215  0.34612935  -0.01196646  1
  In  In38  1  0.34316343  0.48999446  0.81258070  1
  In  In39  1  0.46920473  0.18246042  -0.00622630  1
  In  In40  1  0.31677828  0.15920462  0.17392963  1
  In  In41  1  0.32627904  0.51357290  0.49312309  1
  In  In42  1  0.00495383  0.14695057  0.83096246  1
  In  In43  1  0.82908515  0.17330153  0.66166755  1
  In  In44  1  0.30301065  0.00596462  0.63132848  1
  In  In45  1  0.66900295  0.16930740  0.84984516  1
  In  In46  1  0.49712272  0.50962668  0.32754898  1
  In  In47  1  0.01412539  0.82163818  0.50160416  1
  In  In48  1  0.01351997  0.19132478  0.50244820  1
  In  In49  1  0.67890823  0.50724482  0.15371665  1
  In  In50  1  0.64797469  0.16050647  0.19488021  1
  In  In51  1  0.15295511  0.50284360  0.00822310  1
  In  In52  1  0.33667685  0.00250538  0.02161208  1
  In  In53  1  0.48831389  0.30119804  0.18123344  1
  In  In54  1  0.17411611  0.16816670  0.34698717  1
  In  In55  1  0.84777813  0.66616128  0.17849479  1
  In  In56  1  0.16064120  0.82396528  0.66416892  1
  In  In57  1  -0.00758851  0.64673869  0.63594600  1
  In  In58  1  0.33485871  0.33413925  0.65989416  1
  In  In59  1  0.49785912  0.66859765  0.84054271  1
  In  In60  1  0.68760162  0.32544664  0.66097058  1
  In  In61  1  0.34277366  0.66335540  0.65077768  1
  In  In62  1  0.86593496  0.35760478  0.84982910  1
  In  In63  1  0.67331976  0.16339164  0.50447984  1
  In  In64  1  0.67145564  0.50126835  0.82064463  1
  In  In65  1  0.00847426  0.49289692  0.15332474  1
  In  In66  1  0.65884982  0.83079951  0.48501966  1
  In  In67  1  0.64734865  0.00169437  0.65327056  1
  In  In68  1  0.15674717  0.51572545  0.33868423  1
  In  In69  1  0.86792038  0.29764207  0.14663683  1
  In  In70  1  0.18462766  0.01139165  0.83628974  1
  In  In71  1  0.67281738  0.84512800  0.18815706  1
  Te  Te72  1  0.06373960  0.10442300  0.13402819  1
  Te  Te73  1  0.08131257  0.07767966  0.42944010  1
  Te  Te74  1  0.10575940  0.08907728  0.73061968  1
  Te  Te75  1  0.05209289  0.38313898  0.04526212  1
  Te  Te76  1  0.07194367  0.43840698  0.43572500  1
  Te  Te77  1  0.06664196  0.43187079  0.74862955  1
  Te  Te78  1  0.09581975  0.74504545  0.09543572  1
  Te  Te79  1  0.10209570  0.75761232  0.39569930  1
  Te  Te80  1  0.07234124  0.73187158  0.74355760  1
  Te  Te81  1  0.43222407  0.08618466  0.10587971  1
  Te  Te82  1  0.36279593  0.05777526  0.42484365  1
  Te  Te83  1  0.39746223  0.07598415  0.73589578  1
  Te  Te84  1  0.42044514  0.41287341  0.09000086  1
  Te  Te85  1  0.40790795  0.41521888  0.40673727  1
  Te  Te86  1  0.43608241  0.42690129  0.71844191  1
  Te  Te87  1  0.38911480  0.75576922  0.09521790  1
  Te  Te88  1  0.41672033  0.74214248  0.43546389  1
  Te  Te89  1  0.40214357  0.75426930  0.75970750  1
  Te  Te90  1  0.74723004  0.09653030  0.09616272  1
  Te  Te91  1  0.75116192  0.09367015  0.40150487  1
  Te  Te92  1  0.74943406  0.07619867  0.75091170  1
  Te  Te93  1  0.77481597  0.41125824  0.08572129  1
  Te  Te94  1  0.79139701  0.42654395  0.40918911  1
  Te  Te95  1  0.77399055  0.41848979  0.74435466  1
  Te  Te96  1  0.74151302  0.73912289  0.08784634  1
  Te  Te97  1  0.76739948  0.74038420  0.43932298  1
  Te  Te98  1  0.73582417  0.75095809  0.75541422  1
  Te  Te99  1  0.08153599  0.24244855  0.24672536  1
  Te  Te100  1  0.09546816  0.26671661  0.59870283  1
  Te  Te101  1  0.09470751  0.24596646  0.90236723  1
  Te  Te102  1  0.06775509  0.59611323  0.24545331  1
  Te  Te103  1  0.08948206  0.58084460  0.54356163  1
  Te  Te104  1  0.09173504  0.58402776  0.90276900  1
  Te  Te105  1  0.10203320  0.90380638  0.27106664  1
  Te  Te106  1  0.10909479  0.92584751  0.56320469  1
  Te  Te107  1  0.07653183  0.94193726  0.91858404  1
  Te  Te108  1  0.38992753  0.24507533  0.28071879  1
  Te  Te109  1  0.41092316  0.24713587  0.55480515  1
  Te  Te110  1  0.42118085  0.25696158  0.87699729  1
  Te  Te111  1  0.40818004  0.60199029  0.25465355  1
  Te  Te112  1  0.42726999  0.55692501  0.59283181  1
  Te  Te113  1  0.41818687  0.57331223  0.93090105  1
  Te  Te114  1  0.39056511  0.91939132  0.25385140  1
  Te  Te115  1  0.40738454  0.91431116  0.56927163  1
  Te  Te116  1  0.39878599  0.90663523  0.92080074  1
  Te  Te117  1  0.74948855  0.26266455  0.24307482  1
  Te  Te118  1  0.77671617  0.26664668  0.55376758  1
  Te  Te119  1  0.77626957  0.24972993  0.91899881  1
  Te  Te120  1  0.76043136  0.57455604  0.26265365  1
  Te  Te121  1  0.78249317  0.57301730  0.59822361  1
  Te  Te122  1  0.76219348  0.56757914  0.92212527  1
  Te  Te123  1  0.75873064  0.92243559  0.27623885  1
  Te  Te124  1  0.74619080  0.91064062  0.58588591  1
  Te  Te125  1  0.75829122  0.91715024  0.91351426  1
  Te  Te126  1  0.24461078  0.26406200  0.08859307  1
  Te  Te127  1  0.21994175  0.24612723  0.46350795  1
  Te  Te128  1  0.26277530  0.23704768  0.74528430  1
  Te  Te129  1  0.23789121  0.58480810  0.10350753  1
  Te  Te130  1  0.26750998  0.60636910  0.38836926  1
  Te  Te131  1  0.24886893  0.58953120  0.74908420  1
  Te  Te132  1  0.23297862  0.92713351  0.10105524  1
  Te  Te133  1  0.26526978  0.94467067  0.37630021  1
  Te  Te134  1  0.25485975  0.91255921  0.74453233  1
  Te  Te135  1  0.58816691  0.25454926  0.07134566  1
  Te  Te136  1  0.58091362  0.24741754  0.40390222  1
  Te  Te137  1  0.59110797  0.23459810  0.73592133  1
  Te  Te138  1  0.56460778  0.59792985  0.10524127  1
  Te  Te139  1  0.58626446  0.58728672  0.42254268  1
  Te  Te140  1  0.57965966  0.59011428  0.74100600  1
  Te  Te141  1  0.57136216  0.91922621  0.09942901  1
  Te  Te142  1  0.58607530  0.93028073  0.40260761  1
  Te  Te143  1  0.58559567  0.90897521  0.75705479  1
  Te  Te144  1  0.95940224  0.19795997  0.07558910  1
  Te  Te145  1  0.91245884  0.24317477  0.40997332  1
  Te  Te146  1  0.92740191  0.25351520  0.74485705  1
  Te  Te147  1  0.91236759  0.58072828  0.07152574  1
  Te  Te148  1  0.93286429  0.54918993  0.43520916  1
  Te  Te149  1  0.93317720  0.57248736  0.75146884  1
  Te  Te150  1  0.94233577  0.92909377  0.09105540  1
  Te  Te151  1  0.92424884  0.91714923  0.42084822  1
  Te  Te152  1  0.91052561  0.89311205  0.73453081  1
  Te  Te153  1  0.24300184  0.06387896  0.26311421  1
  Te  Te154  1  0.25959794  0.11215207  0.53405147  1
  Te  Te155  1  0.25844050  0.10018704  0.93514305  1
  Te  Te156  1  0.23963455  0.40384148  0.27473833  1
  Te  Te157  1  0.24126694  0.41410626  0.57015535  1
  Te  Te158  1  0.25007249  0.41773442  0.91874659  1
  Te  Te159  1  0.22691511  0.73279595  0.30122880  1
  Te  Te160  1  0.23915007  0.73726588  0.56853352  1
  Te  Te161  1  0.23146505  0.75285279  0.90384729  1
  Te  Te162  1  0.57184771  0.06208993  0.27395203  1
  Te  Te163  1  0.56071527  0.06748406  0.54860085  1
  Te  Te164  1  0.57587706  0.07304500  0.92548449  1
  Te  Te165  1  0.58319139  0.41090424  0.23646422  1
  Te  Te166  1  0.60570967  0.42619854  0.58301596  1
  Te  Te167  1  0.57794362  0.40100137  0.88958859  1
  Te  Te168  1  0.57473898  0.75299736  0.25628221  1
  Te  Te169  1  0.56709723  0.74129837  0.56996104  1
  Te  Te170  1  0.59461362  0.76084224  0.91524736  1
  Te  Te171  1  0.90839174  0.10491201  0.26540266  1
  Te  Te172  1  0.92347257  0.07673443  0.59276397  1
  Te  Te173  1  0.91521014  0.09198645  0.93695769  1
  Te  Te174  1  0.91947762  0.40756759  0.24059499  1
  Te  Te175  1  0.90155202  0.45884587  0.55869884  1
  Te  Te176  1  0.94490753  0.43419106  0.94410069  1
  Te  Te177  1  0.89957871  0.76687760  0.27624767  1
  Te  Te178  1  0.90681993  0.74997663  0.57301878  1
  Te  Te179  1  0.90904182  0.75972540  0.92679835  1
