# generated using pymatgen
data_In2Te3
_symmetry_space_group_name_H-M   'P 1'
_cell_length_a   18.91606533
_cell_length_b   18.89317630
_cell_length_c   18.90367786
_cell_angle_alpha   89.96471579
_cell_angle_beta   90.07469053
_cell_angle_gamma   89.87835143
_symmetry_Int_Tables_number   1
_chemical_formula_structural   In2Te3
_chemical_formula_sum   'In72 Te108'
_cell_volume   6755.86028060
_cell_formula_units_Z   36
loop_
 _symmetry_equiv_pos_site_id
 _symmetry_equiv_pos_as_xyz
  1  'x, y, z'
loop_
 _atom_site_type_symbol
 _atom_site_label
 _atom_site_symmetry_multiplicity
 _atom_site_fract_x
 _atom_site_fract_y
 _atom_site_fract_z
 _atom_site_occupancy
  In  In0  1  0.82153274  0.86456097  -0.03682701  1
  In  In1  1  -0.00749967  0.67858901  0.38467784  1
  In  In2  1  0.16379762  -0.00386229  0.15544661  1
  In  In3  1  0.69968888  0.33660253  0.67911692  1
  In  In4  1  -0.00130839  0.30917338  0.32543716  1
  In  In5  1  0.48351850  0.13392001  0.67171255  1
  In  In6  1  0.82403303  0.15433337  0.66603772  1
  In  In7  1  0.66766458  0.00144049  0.65780568  1
  In  In8  1  0.82546659  0.67779749  0.51039577  1
  In  In9  1  0.16616058  -0.00256592  0.52582313  1
  In  In10  1  0.33050447  0.47220338  0.84812887  1
  In  In11  1  0.83481516  0.00567449  0.17170696  1
  In  In12  1  0.34467431  0.69206728  0.32570147  1
  In  In13  1  0.32921865  0.85130881  0.84471807  1
  In  In14  1  0.50462558  0.67251021  0.19241530  1
  In  In15  1  -0.01094098  0.85227932  0.18394959  1
  In  In16  1  0.14455758  0.69363984  0.51989439  1
  In  In17  1  0.65435569  0.12535763  0.82850051  1
  In  In18  1  -0.01382021  0.84394216  0.51769318  1
  In  In19  1  0.32507041  0.66972843  0.67949542  1
  In  In20  1  0.50991748  0.31773935  0.84243645  1
  In  In21  1  0.47801336  0.85403241  -0.00564442  1
  In  In22  1  0.15359494  0.50574332  0.37292306  1
  In  In23  1  0.81293506  0.84073066  0.32979059  1
  In  In24  1  -0.00759312  0.34200318  -0.06070391  1
  In  In25  1  0.01495071  0.17168825  0.54531239  1
  In  In26  1  0.33018475  -0.00078449  -0.02575457  1
  In  In27  1  0.82601726  0.35191028  0.50371828  1
  In  In28  1  0.32326889  0.29151999  0.68153663  1
  In  In29  1  0.00147810  0.14194785  0.80638493  1
  In  In30  1  0.01277901  0.67261030  -0.00116471  1
  In  In31  1  0.31966443  0.48677622  0.50812138  1
  In  In32  1  0.65913371  0.49774777  0.18267583  1
  In  In33  1  0.15310541  0.68270012  0.18212255  1
  In  In34  1  0.52567606  0.48322244  0.34981106  1
  In  In35  1  0.86136657  0.15320109  -0.03519656  1
  In  In36  1  0.51554817  0.45869921  0.01643404  1
  In  In37  1  0.32048122  0.30570390  -0.05647767  1
  In  In38  1  0.85498961  0.83631664  0.69168705  1
  In  In39  1  0.35911396  0.09697062  0.50097152  1
  In  In40  1  0.64519957  0.15041369  0.14953630  1
  In  In41  1  0.80721807  0.66749905  0.16328043  1
  In  In42  1  0.68536305  0.31383614  -0.00689583  1
  In  In43  1  0.86263390  0.50365853  -0.02439637  1
  In  In44  1  0.64485125  0.67570805  0.34535662  1
  In  In45  1  0.67704190  0.69501593  -0.00028736  1
  In  In46  1  0.52561815  0.86228045  0.36563730  1
  In  In47  1  0.20459687  0.32976487  0.15875254  1
  In  In48  1  0.35800064  0.86202918  0.50961707  1
  In  In49  1  0.48959665  -0.00200369  0.16978980  1
  In  In50  1  0.63209832  0.29462488  0.34759236  1
  In  In51  1  0.01576509  0.47654996  0.16847008  1
  In  In52  1  0.36266843  0.51151256  0.12364734  1
  In  In53  1  0.31619587  0.68151494  -0.03293859  1
  In  In54  1  0.67914276  0.49498903  0.50677586  1
  In  In55  1  0.17233904  0.15788449  0.34404789  1
  In  In56  1  0.16156334  0.32305464  0.52833076  1
  In  In57  1  0.32463071  0.17641994  0.16224347  1
  In  In58  1  0.33893297  0.84575490  0.16063707  1
  In  In59  1  0.34434454  0.33863882  0.32335508  1
  In  In60  1  0.17146358  -0.01747320  0.80471388  1
  In  In61  1  0.82074301  0.01190733  0.49888670  1
  In  In62  1  0.51366923  0.50202273  0.66224403  1
  In  In63  1  0.84060752  0.34297167  0.16275313  1
  In  In64  1  -0.02038539  0.51931386  0.57337705  1
  In  In65  1  -0.00102014  0.14540855  0.13522891  1
  In  In66  1  0.50358763  0.66106486  0.84765284  1
  In  In67  1  0.65954339  0.69520768  0.65703529  1
  In  In68  1  0.12382584  0.67350166  0.80190075  1
  In  In69  1  0.18939045  0.49614716  -0.02957387  1
  In  In70  1  0.83627926  0.65634440  0.81591327  1
  In  In71  1  0.82233261  0.16185744  0.33743745  1
  Te  Te72  1  0.08838384  0.06770006  0.05080837  1
  Te  Te73  1  0.07659576  0.08368644  0.43497721  1
  Te  Te74  1  0.11082389  0.08927000  0.71620489  1
  Te  Te75  1  0.10395251  0.40961737  0.06724419  1
  Te  Te76  1  0.06649538  0.39761946  0.43256368  1
  Te  Te77  1  0.03579773  0.47076605  0.70873148  1
  Te  Te78  1  0.08207851  0.77546462  0.08545821  1
  Te  Te79  1  0.09221944  0.78744488  0.41455451  1
  Te  Te80  1  0.07424749  0.79868140  0.73342804  1
  Te  Te81  1  0.40842270  0.08382679  0.07470237  1
  Te  Te82  1  0.44278990  0.12536627  0.37834077  1
  Te  Te83  1  0.35628494  0.06263558  0.70615890  1
  Te  Te84  1  0.39829396  0.37932796  0.06524714  1
  Te  Te85  1  0.42622354  0.40576932  0.43477521  1
  Te  Te86  1  0.42275893  0.40817485  0.74278426  1
  Te  Te87  1  0.40995689  0.73412904  0.08579854  1
  Te  Te88  1  0.43538536  0.75398177  0.42864209  1
  Te  Te89  1  0.41816615  0.75433667  0.76340023  1
  Te  Te90  1  0.76657805  0.09852324  0.07197337  1
  Te  Te91  1  0.72660715  0.06902973  0.39926608  1
  Te  Te92  1  0.77040957  0.04713541  0.76371573  1
  Te  Te93  1  0.75369414  0.43583395  0.07868019  1
  Te  Te94  1  0.73050006  0.40207902  0.39665764  1
  Te  Te95  1  0.78009720  0.43745048  0.74516562  1
  Te  Te96  1  0.75677455  0.78793575  0.08719460  1
  Te  Te97  1  0.72910709  0.76660346  0.43360093  1
  Te  Te98  1  0.74115699  0.76661540  0.76489754  1
  Te  Te99  1  0.09417925  0.24172732  0.22918002  1
  Te  Te100  1  0.09068549  0.25708448  0.64031102  1
  Te  Te101  1  0.07154289  0.22400077  0.91146682  1
  Te  Te102  1  0.07029374  0.58750594  0.26905814  1
  Te  Te103  1  0.11900521  0.57095065  0.59829738  1
  Te  Te104  1  0.07031887  0.56953221  0.90511224  1
  Te  Te105  1  0.08133227  0.93465235  0.26112797  1
  Te  Te106  1  0.08907275  0.90013954  0.61179535  1
  Te  Te107  1  0.06559144  0.91413545  0.88586458  1
  Te  Te108  1  0.42721179  0.23795580  0.25172573  1
  Te  Te109  1  0.40836088  0.23015451  0.57599980  1
  Te  Te110  1  0.43309890  0.21301891  0.90942779  1
  Te  Te111  1  0.41831444  0.56662277  0.26418428  1
  Te  Te112  1  0.40992535  0.58336651  0.58646170  1
  Te  Te113  1  0.42573970  0.56272738  0.93510259  1
  Te  Te114  1  0.41317384  0.91485912  0.27233144  1
  Te  Te115  1  0.47481067  0.93402778  0.57500107  1
  Te  Te116  1  0.44462521  0.95341192  0.88297331  1
  Te  Te117  1  0.74659592  0.25127079  0.23823608  1
  Te  Te118  1  0.74405392  0.24150013  0.56767121  1
  Te  Te119  1  0.75468899  0.22941910  0.88886526  1
  Te  Te120  1  0.74376026  0.58400579  0.27481031  1
  Te  Te121  1  0.75338195  0.58308454  0.60449432  1
  Te  Te122  1  0.74671455  0.58773057  0.91893049  1
  Te  Te123  1  0.73362627  0.94022057  0.25605816  1
  Te  Te124  1  0.76292141  0.90314299  0.58892936  1
  Te  Te125  1  0.71785623  0.95361447  0.90156267  1
  Te  Te126  1  0.23560756  0.22967365  0.05108613  1
  Te  Te127  1  0.25047002  0.26287000  0.41837808  1
  Te  Te128  1  0.27714930  0.23522539  0.81126999  1
  Te  Te129  1  0.23444877  0.59614957  0.08477392  1
  Te  Te130  1  0.25660235  0.60648586  0.42199884  1
  Te  Te131  1  0.24823368  0.58308496  0.77407135  1
  Te  Te132  1  0.24591779  0.90509828  0.05873083  1
  Te  Te133  1  0.28388054  0.96899615  0.43465466  1
  Te  Te134  1  0.28527608  0.92385761  0.71924606  1
  Te  Te135  1  0.57616488  0.24336138  0.05933271  1
  Te  Te136  1  0.55141611  0.21139250  0.43866756  1
  Te  Te137  1  0.58817320  0.23760371  0.73963881  1
  Te  Te138  1  0.58953280  0.59415502  0.08563945  1
  Te  Te139  1  0.57377389  0.58951862  0.44742884  1
  Te  Te140  1  0.59688473  0.58897475  0.75331726  1
  Te  Te141  1  0.57767012  0.91719471  0.08118862  1
  Te  Te142  1  0.57502738  0.96203052  0.46330406  1
  Te  Te143  1  0.56118503  0.90817298  0.70594867  1
  Te  Te144  1  0.92712398  0.26843946  0.06433643  1
  Te  Te145  1  0.91669974  0.23735780  0.43481999  1
  Te  Te146  1  0.91506922  0.24386582  0.73798021  1
  Te  Te147  1  0.92190299  0.58625207  0.09708164  1
  Te  Te148  1  0.90850131  0.56892708  0.44164931  1
  Te  Te149  1  0.94498210  0.59193983  0.73737404  1
  Te  Te150  1  0.91674738  0.92504192  0.07270732  1
  Te  Te151  1  0.91100740  0.92302906  0.41172228  1
  Te  Te152  1  0.96082420  0.90870427  0.77732117  1
  Te  Te153  1  0.25624929  0.07341225  0.25029365  1
  Te  Te154  1  0.24454409  0.10452911  0.60158749  1
  Te  Te155  1  0.24881941  0.08469134  0.88451936  1
  Te  Te156  1  0.23846733  0.43524167  0.26376917  1
  Te  Te157  1  0.24888885  0.41106725  0.61866063  1
  Te  Te158  1  0.20175798  0.39604183  0.85943347  1
  Te  Te159  1  0.23969478  0.77986691  0.25967736  1
  Te  Te160  1  0.26046609  0.76861087  0.58397257  1
  Te  Te161  1  0.21449726  0.76204251  0.89354173  1
  Te  Te162  1  0.57323735  0.08382462  0.25930333  1
  Te  Te163  1  0.59475946  0.10283597  0.57246857  1
  Te  Te164  1  0.60015949  0.04242589  0.93755255  1
  Te  Te165  1  0.56842759  0.39117679  0.23794006  1
  Te  Te166  1  0.59051098  0.39849038  0.58384157  1
  Te  Te167  1  0.60594343  0.41771180  0.90381166  1
  Te  Te168  1  0.59206502  0.77986423  0.24824486  1
  Te  Te169  1  0.56022123  0.78950352  0.60305340  1
  Te  Te170  1  0.58276853  0.77361556  0.91130355  1
  Te  Te171  1  0.93085426  0.08726888  0.25721741  1
  Te  Te172  1  0.92497123  0.06091173  0.59842690  1
  Te  Te173  1  0.93706791  0.04264928  0.90001117  1
  Te  Te174  1  0.91281859  0.42397824  0.26868238  1
  Te  Te175  1  0.91454268  0.38964542  0.61783312  1
  Te  Te176  1  0.87771979  0.40480090  0.86386756  1
  Te  Te177  1  0.90976662  0.73711457  0.26116798  1
  Te  Te178  1  0.93021508  0.73270062  0.60552486  1
  Te  Te179  1  0.91036373  0.74644067  0.91640598  1
