# generated using pymatgen
data_In2Te3
_symmetry_space_group_name_H-M   'P 1'
_cell_length_a   18.93045407
_cell_length_b   18.89870077
_cell_length_c   18.91359939
_cell_angle_alpha   89.94090222
_cell_angle_beta   89.93970866
_cell_angle_gamma   90.02764574
_symmetry_Int_Tables_number   1
_chemical_formula_structural   In2Te3
_chemical_formula_sum   'In72 Te108'
_cell_volume   6766.53984893
_cell_formula_units_Z   36
loop_
 _symmetry_equiv_pos_site_id
 _symmetry_equiv_pos_as_xyz
  1  'x, y, z'
loop_
 _atom_site_type_symbol
 _atom_site_label
 _atom_site_symmetry_multiplicity
 _atom_site_fract_x
 _atom_site_fract_y
 _atom_site_fract_z
 _atom_site_occupancy
  In  In0  1  0.32353674  0.32677303  0.66633123  1
  In  In1  1  0.33367461  0.50858612  0.85099331  1
  In  In2  1  0.16772076  0.02208717  0.83811614  1
  In  In3  1  0.51438946  -0.00423812  0.50270827  1
  In  In4  1  0.47666188  0.50834003  0.31932605  1
  In  In5  1  0.01278097  0.32251513  0.68685366  1
  In  In6  1  0.34020920  0.65955881  0.30770156  1
  In  In7  1  0.20134723  -0.04547048  0.15974189  1
  In  In8  1  0.46024081  0.29950531  0.87168756  1
  In  In9  1  0.85645265  0.01173151  0.84812335  1
  In  In10  1  0.66295515  0.01071288  0.01429962  1
  In  In11  1  0.79870026  0.87290863  0.67843929  1
  In  In12  1  0.68163434  -0.00445435  0.35475369  1
  In  In13  1  0.49426213  0.67721809  0.83514143  1
  In  In14  1  0.16507820  0.18767096  0.32794504  1
  In  In15  1  0.16578886  0.34019639  0.51294993  1
  In  In16  1  0.82591534  0.83367754  0.32893657  1
  In  In17  1  0.50798066  0.32393137  0.16398289  1
  In  In18  1  0.47826613  0.51024368  0.66176341  1
  In  In19  1  0.82484932  0.36226366  0.86187372  1
  In  In20  1  0.66587477  0.51865767  0.86088360  1
  In  In21  1  0.49646527  0.67689122  0.51700080  1
  In  In22  1  -0.01347145  0.67350153  -0.02337624  1
  In  In23  1  0.17624108  0.66465257  0.83932955  1
  In  In24  1  0.17018378  0.16798219  0.00930577  1
  In  In25  1  0.68095751  0.35496615  0.01248545  1
  In  In26  1  -0.11810722  0.31793451  0.33086826  1
  In  In27  1  0.66152665  -0.00829108  0.66655575  1
  In  In28  1  0.49046050  -0.01418689  0.16162722  1
  In  In29  1  -0.00539200  0.01395610  0.31207323  1
  In  In30  1  0.15929716  0.84744155  0.66139501  1
  In  In31  1  0.17685766  0.17173536  0.68521040  1
  In  In32  1  0.34673568  0.84112408  0.50526378  1
  In  In33  1  0.18071757  0.02206803  0.51335074  1
  In  In34  1  0.30788213  0.32457139  0.34076891  1
  In  In35  1  -0.00389161  0.47561368  0.84359894  1
  In  In36  1  0.85151066  0.50307563  0.65751644  1
  In  In37  1  0.48276419  0.32179990  0.51059229  1
  In  In38  1  0.67415165  0.48948803  0.47875521  1
  In  In39  1  0.68315106  0.34851584  0.32839521  1
  In  In40  1  0.66893380  0.18426069  0.84589389  1
  In  In41  1  0.01177465  0.00462809  0.00853850  1
  In  In42  1  0.84568856  0.16790233  0.65675857  1
  In  In43  1  0.53763470  0.50584686  0.02430323  1
  In  In44  1  -0.00741323  0.64980124  0.31123501  1
  In  In45  1  0.65763095  0.69318882  0.65495779  1
  In  In46  1  0.00412606  0.85870351  0.51108854  1
  In  In47  1  0.82965692  0.69094209  0.48416975  1
  In  In48  1  0.83104858  0.51357479  0.00182238  1
  In  In49  1  -0.01505988  0.18942060  0.13530301  1
  In  In50  1  0.50299327  0.14377715  0.35436215  1
  In  In51  1  0.15931070  0.67284213  0.50009368  1
  In  In52  1  0.00239014  0.66111646  0.68187248  1
  In  In53  1  0.33716265  0.14665599  0.16170898  1
  In  In54  1  0.65345490  0.81853855  0.83830087  1
  In  In55  1  0.47064717  0.01776682  0.81092823  1
  In  In56  1  0.64783436  0.32055333  0.68892018  1
  In  In57  1  0.65378052  0.81808049  0.18268080  1
  In  In58  1  0.67837986  0.17395846  0.15502367  1
  In  In59  1  0.18235201  0.62827030  0.12051129  1
  In  In60  1  0.68642489  0.63035715  0.30016404  1
  In  In61  1  0.01498769  0.51089676  0.49203551  1
  In  In62  1  0.19081723  0.78460634  0.32247721  1
  In  In63  1  0.15140904  0.33490946  0.87892422  1
  In  In64  1  0.81445422  0.82262295  0.01200572  1
  In  In65  1  0.34290091  0.82293260  0.84043336  1
  In  In66  1  0.19524246  0.84603730  -0.00355500  1
  In  In67  1  0.16423292  0.51074736  0.31779370  1
  In  In68  1  0.14905996  0.36147941  0.15210535  1
  In  In69  1  0.34100738  -0.03521112  0.33474733  1
  In  In70  1  -0.00252983  0.83105272  0.16004110  1
  In  In71  1  0.69330619  0.15856552  0.50311730  1
  Te  Te72  1  0.10657317  0.06615057  0.11077909  1
  Te  Te73  1  0.08575548  0.08680223  0.40934972  1
  Te  Te74  1  0.07046095  0.10635368  0.76483607  1
  Te  Te75  1  0.08494028  0.41461016  0.03160559  1
  Te  Te76  1  0.08552509  0.41108001  0.40151853  1
  Te  Te77  1  0.10539215  0.41997632  0.75556865  1
  Te  Te78  1  0.09354737  0.75313994  0.07278432  1
  Te  Te79  1  0.05621266  0.74555724  0.41388834  1
  Te  Te80  1  0.08375392  0.75985197  0.76183329  1
  Te  Te81  1  0.44423430  0.09719938  0.07170370  1
  Te  Te82  1  0.39550477  0.07054027  0.42921765  1
  Te  Te83  1  0.38410709  0.10253743  0.72765502  1
  Te  Te84  1  0.43582255  0.40915417  0.06887747  1
  Te  Te85  1  0.40552830  0.41347890  0.41744328  1
  Te  Te86  1  0.42343996  0.41040672  0.76261069  1
  Te  Te87  1  0.37816767  0.80792665  0.11065006  1
  Te  Te88  1  0.41581009  0.74773222  0.40590449  1
  Te  Te89  1  0.40646059  0.73890494  0.73706989  1
  Te  Te90  1  0.77012785  0.08495020  0.08102223  1
  Te  Te91  1  0.77125213  0.11112132  0.38533072  1
  Te  Te92  1  0.74715626  0.09161945  0.75368761  1
  Te  Te93  1  0.74377802  0.45064088  0.10786093  1
  Te  Te94  1  0.78318677  0.40204205  0.42931572  1
  Te  Te95  1  0.74736363  0.42770947  0.74570217  1
  Te  Te96  1  0.73677008  0.72502192  0.09554751  1
  Te  Te97  1  0.72036998  0.74709608  0.39638794  1
  Te  Te98  1  0.75982249  0.74628286  0.75195870  1
  Te  Te99  1  0.06891704  0.26516363  0.23972789  1
  Te  Te100  1  0.08053525  0.23566697  0.58266678  1
  Te  Te101  1  0.06622793  0.21646053  0.91324488  1
  Te  Te102  1  0.07353647  0.56891219  0.21136767  1
  Te  Te103  1  0.09842127  0.57615209  0.60128747  1
  Te  Te104  1  0.08653976  0.57233880  0.92041879  1
  Te  Te105  1  0.09167513  0.89712643  0.25949831  1
  Te  Te106  1  0.07301903  0.95853346  0.60206134  1
  Te  Te107  1  0.08748993  0.91374830  0.91418658  1
  Te  Te108  1  0.41738497  0.24148503  0.26599293  1
  Te  Te109  1  0.41550914  0.22818058  0.60211749  1
  Te  Te110  1  0.38833045  0.19441568  0.94494213  1
  Te  Te111  1  0.41252935  0.57973846  0.20766550  1
  Te  Te112  1  0.39590769  0.58130073  0.56533121  1
  Te  Te113  1  0.43386102  0.58276898  0.93718334  1
  Te  Te114  1  0.42195513  0.87637397  0.24389232  1
  Te  Te115  1  0.42506058  0.92440290  0.59574722  1
  Te  Te116  1  0.42372143  0.92242830  0.91528676  1
  Te  Te117  1  0.76689651  0.26962534  0.22945211  1
  Te  Te118  1  0.75037185  0.27014744  0.58949239  1
  Te  Te119  1  0.76657824  0.24652051  0.94414270  1
  Te  Te120  1  0.78092204  0.53098444  0.24288566  1
  Te  Te121  1  0.75086567  0.58709229  0.57612841  1
  Te  Te122  1  0.76083009  0.61239655  0.91757707  1
  Te  Te123  1  0.74823104  0.92545745  0.23680268  1
  Te  Te124  1  0.74130837  0.93122790  0.55758287  1
  Te  Te125  1  0.74395788  0.92407502  0.90750695  1
  Te  Te126  1  0.25221669  0.25628178  0.10217447  1
  Te  Te127  1  0.25217927  0.23129408  0.44565411  1
  Te  Te128  1  0.24981461  0.26219909  0.78128248  1
  Te  Te129  1  0.25156185  0.51511785  0.05973731  1
  Te  Te130  1  0.25091968  0.58866512  0.41281747  1
  Te  Te131  1  0.26653807  0.59076560  0.75023022  1
  Te  Te132  1  0.30788501  0.93317347  0.05243632  1
  Te  Te133  1  0.22503601  0.90105956  0.42613747  1
  Te  Te134  1  0.24795709  0.91611118  0.76302825  1
  Te  Te135  1  0.58497115  0.24515585  0.05943060  1
  Te  Te136  1  0.59085733  0.25386546  0.41539716  1
  Te  Te137  1  0.54970185  0.23388293  0.76394817  1
  Te  Te138  1  0.61761755  0.61443383  0.08497928  1
  Te  Te139  1  0.57653786  0.58415625  0.41423708  1
  Te  Te140  1  0.58932473  0.58270002  0.73942445  1
  Te  Te141  1  0.58021193  0.89788875  0.07437748  1
  Te  Te142  1  0.56415249  0.91609785  0.38935535  1
  Te  Te143  1  0.56838786  0.90859312  0.75228415  1
  Te  Te144  1  0.89300405  0.28513533  0.07438287  1
  Te  Te145  1  0.90166077  0.20704584  0.42806774  1
  Te  Te146  1  0.89675102  0.26636138  0.76430735  1
  Te  Te147  1  0.92220361  0.59583712  0.08302316  1
  Te  Te148  1  0.90426136  0.57870450  0.41229116  1
  Te  Te149  1  0.91084039  0.58115056  0.77371846  1
  Te  Te150  1  0.90669948  0.92350282  0.08405756  1
  Te  Te151  1  0.91174455  0.92741880  0.41174821  1
  Te  Te152  1  0.91584044  0.93626488  0.73775574  1
  Te  Te153  1  0.25360444  0.07111364  0.26506036  1
  Te  Te154  1  0.27154943  0.06932319  0.62518819  1
  Te  Te155  1  0.26943811  0.09225868  0.92536545  1
  Te  Te156  1  0.26057663  0.42493033  0.23801465  1
  Te  Te157  1  0.26283730  0.42762435  0.57810157  1
  Te  Te158  1  0.26488017  0.41105178  0.94466152  1
  Te  Te159  1  0.26272596  0.74059879  0.19303897  1
  Te  Te160  1  0.25229990  0.75252746  0.58883052  1
  Te  Te161  1  0.27202769  0.72852115  0.93886865  1
  Te  Te162  1  0.58542760  0.07931877  0.24552893  1
  Te  Te163  1  0.58496697  0.09997865  0.58999676  1
  Te  Te164  1  0.58032605  0.07709965  0.90647123  1
  Te  Te165  1  0.58295118  0.42854980  0.24439053  1
  Te  Te166  1  0.58454915  0.41876406  0.58221430  1
  Te  Te167  1  0.58112313  0.40056186  0.90183276  1
  Te  Te168  1  0.57404841  0.69518681  0.22336699  1
  Te  Te169  1  0.58137355  0.78396005  0.57119250  1
  Te  Te170  1  0.57675488  0.74243210  0.93803814  1
  Te  Te171  1  0.91281568  0.08824153  0.21600115  1
  Te  Te172  1  0.91316717  0.10498433  0.54481736  1
  Te  Te173  1  0.93624219  0.10646821  0.93008939  1
  Te  Te174  1  0.89808277  0.42914744  0.23756256  1
  Te  Te175  1  0.94093452  0.40954008  0.58093774  1
  Te  Te176  1  0.94320588  0.38577179  0.96716549  1
  Te  Te177  1  0.89904668  0.74068971  0.23344265  1
  Te  Te178  1  0.92269686  0.75296562  0.58793377  1
  Te  Te179  1  0.91515804  0.78416948  0.91260644  1
