# generated using pymatgen
data_In2Te3
_symmetry_space_group_name_H-M   'P 1'
_cell_length_a   19.01691026
_cell_length_b   19.00626119
_cell_length_c   19.00988643
_cell_angle_alpha   89.96878113
_cell_angle_beta   90.27394993
_cell_angle_gamma   89.95142572
_symmetry_Int_Tables_number   1
_chemical_formula_structural   In2Te3
_chemical_formula_sum   'In72 Te108'
_cell_volume   6870.85821857
_cell_formula_units_Z   36
loop_
 _symmetry_equiv_pos_site_id
 _symmetry_equiv_pos_as_xyz
  1  'x, y, z'
loop_
 _atom_site_type_symbol
 _atom_site_label
 _atom_site_symmetry_multiplicity
 _atom_site_fract_x
 _atom_site_fract_y
 _atom_site_fract_z
 _atom_site_occupancy
  In  In0  1  0.54576712  0.35536383  0.52506826  1
  In  In1  1  0.51462914  0.65908398  0.82210973  1
  In  In2  1  0.49769386  0.65976250  0.49031520  1
  In  In3  1  0.49910167  0.01546663  0.50443671  1
  In  In4  1  0.82490993  0.50328982  0.67395278  1
  In  In5  1  -0.02948391  0.20039634  0.47182511  1
  In  In6  1  0.52975543  0.17032404  0.66501659  1
  In  In7  1  0.81652251  0.17042677  0.66059452  1
  In  In8  1  0.16864260  0.67347436  0.18746429  1
  In  In9  1  0.34970144  -0.02435457  -0.02103705  1
  In  In10  1  0.82494434  0.65560320  0.18071296  1
  In  In11  1  0.84593920  0.83582664  0.01848388  1
  In  In12  1  0.67359500  0.50800054  0.82371448  1
  In  In13  1  0.50632810  0.84478806  0.68296696  1
  In  In14  1  0.15746995  0.33710449  0.16298603  1
  In  In15  1  0.66898183  0.33157161  0.01402753  1
  In  In16  1  0.48779907  0.14432097  0.32663611  1
  In  In17  1  0.84045117  0.50281145  -0.01321301  1
  In  In18  1  0.83261012  0.32426861  0.17285094  1
  In  In19  1  0.00909025  0.84398754  0.16698612  1
  In  In20  1  0.34631305  0.69909134  -0.00780890  1
  In  In21  1  0.18585519  0.16294104  0.33351305  1
  In  In22  1  0.50908660  0.35143111  0.79664004  1
  In  In23  1  0.18190204  0.49639380  0.62112722  1
  In  In24  1  0.00492408  0.80766371  0.49880677  1
  In  In25  1  0.66466832  0.18447272  0.49555766  1
  In  In26  1  0.16810416  0.49355528  0.01045651  1
  In  In27  1  0.81540965  0.67552549  0.83634982  1
  In  In28  1  0.83770446  0.81861656  0.33577592  1
  In  In29  1  -0.03438217  0.85287363  0.81277699  1
  In  In30  1  -0.00441017  0.51419202  0.48415472  1
  In  In31  1  0.31814013  0.69900214  0.34236890  1
  In  In32  1  0.34953530  0.32838891  0.34666848  1
  In  In33  1  0.15922319  0.66086204  0.82867380  1
  In  In34  1  0.50491551  0.48119119  0.33560117  1
  In  In35  1  0.16963302  0.31300269  0.82275336  1
  In  In36  1  0.16517432  -0.01007668  0.84191121  1
  In  In37  1  0.51286849  0.52321188  0.01678558  1
  In  In38  1  0.17078834  0.85616030  0.01749359  1
  In  In39  1  0.50132962  0.31077594  0.17149623  1
  In  In40  1  0.16860635  0.66613718  0.49251339  1
  In  In41  1  0.32075575  -0.00446093  0.32859935  1
  In  In42  1  0.16503561  -0.00319891  0.49763061  1
  In  In43  1  -0.02582716  0.49415498  0.18505000  1
  In  In44  1  0.81826232  0.00161521  0.51738717  1
  In  In45  1  0.34748643  0.49746878  0.79947410  1
  In  In46  1  0.66260373  0.84128359  0.53123348  1
  In  In47  1  0.47947746  0.00657507  0.14815490  1
  In  In48  1  -0.00189301  -0.00284306  0.31602655  1
  In  In49  1  0.16173925  0.83623814  0.66380321  1
  In  In50  1  0.67254818  0.65615582  0.32016488  1
  In  In51  1  0.67501094  -0.00604706  0.33551440  1
  In  In52  1  0.36556512  0.50988618  0.16305221  1
  In  In53  1  0.67604413  0.14156535  0.83535116  1
  In  In54  1  0.67772597  0.00709567  0.00469174  1
  In  In55  1  0.64975303  0.82167697  0.84395674  1
  In  In56  1  0.66417840  0.85272528  0.16933328  1
  In  In57  1  0.68407802  0.33339428  0.31901184  1
  In  In58  1  -0.00769782  0.33545070  0.67292456  1
  In  In59  1  0.83158440  0.65134230  0.51662920  1
  In  In60  1  0.34891702  0.16070004  0.81065781  1
  In  In61  1  0.00244889  0.15085175  0.84539125  1
  In  In62  1  0.15656964  0.16567087  0.67439983  1
  In  In63  1  0.36423851  0.68704478  0.65533801  1
  In  In64  1  -0.00724343  0.16604921  0.18212445  1
  In  In65  1  0.32180892  0.30436994  -0.01141572  1
  In  In66  1  0.83638461  0.15541319  0.00256303  1
  In  In67  1  -0.00498617  0.49893685  0.83008814  1
  In  In68  1  0.17205599  0.48098837  0.34921118  1
  In  In69  1  0.33896340  0.00626391  0.66454544  1
  In  In70  1  0.13583945  0.14401518  0.01212473  1
  In  In71  1  0.50019949  0.68882355  0.15770014  1
  Te  Te72  1  0.05048466  0.05928153  0.09557406  1
  Te  Te73  1  0.07457390  0.09293474  0.41788105  1
  Te  Te74  1  0.07345010  0.06222600  0.74377710  1
  Te  Te75  1  0.05985651  0.41799913  0.08105930  1
  Te  Te76  1  0.08273009  0.40167372  0.43661475  1
  Te  Te77  1  0.10428236  0.42560447  0.74138236  1
  Te  Te78  1  0.08789684  0.74572864  0.08177081  1
  Te  Te79  1  0.09317014  0.75002365  0.39775972  1
  Te  Te80  1  0.07008412  0.75518380  0.75095103  1
  Te  Te81  1  0.41304836  0.08940916  0.04670508  1
  Te  Te82  1  0.39352314  0.09193814  0.43001226  1
  Te  Te83  1  0.44916871  0.06893404  0.74661948  1
  Te  Te84  1  0.41274170  0.40115856  0.06871580  1
  Te  Te85  1  0.42430509  0.41705107  0.44364188  1
  Te  Te86  1  0.40398226  0.40148146  0.70565888  1
  Te  Te87  1  0.40038119  0.78081095  0.10008580  1
  Te  Te88  1  0.42090394  0.76395728  0.42178100  1
  Te  Te89  1  0.40912825  0.76701306  0.78262737  1
  Te  Te90  1  0.74329101  0.09828073  0.10093487  1
  Te  Te91  1  0.75631401  0.09519898  0.41365123  1
  Te  Te92  1  0.78073896  0.06477505  0.76019249  1
  Te  Te93  1  0.75732917  0.42829993  0.08925455  1
  Te  Te94  1  0.75174103  0.37871176  0.44206551  1
  Te  Te95  1  0.77868123  0.41391806  0.78214988  1
  Te  Te96  1  0.74541418  0.75053391  0.09292655  1
  Te  Te97  1  0.73637299  0.75397385  0.42717476  1
  Te  Te98  1  0.71975874  0.73698716  0.74557335  1
  Te  Te99  1  0.08519419  0.25568377  0.26509091  1
  Te  Te100  1  0.07140973  0.24716749  0.57985612  1
  Te  Te101  1  0.07768926  0.25903585  0.92585483  1
  Te  Te102  1  0.08619962  0.56816855  0.25952764  1
  Te  Te103  1  0.07384685  0.59516668  0.58672069  1
  Te  Te104  1  0.07647171  0.58246992  0.92756063  1
  Te  Te105  1  0.09486533  0.89567404  0.27610006  1
  Te  Te106  1  0.06713220  0.92255214  0.58494596  1
  Te  Te107  1  0.06652394  0.90865653  0.91828886  1
  Te  Te108  1  0.39507927  0.22915898  0.24088258  1
  Te  Te109  1  0.45169501  0.25397721  0.57349386  1
  Te  Te110  1  0.42844964  0.25967696  0.89228735  1
  Te  Te111  1  0.42565055  0.59780569  0.26812010  1
  Te  Te112  1  0.41331777  0.57593450  0.57691172  1
  Te  Te113  1  0.40410595  0.57712646  0.91857384  1
  Te  Te114  1  0.43969412  0.93435919  0.26866284  1
  Te  Te115  1  0.41710204  0.91092631  0.57814342  1
  Te  Te116  1  0.40900519  0.88143442  0.88841519  1
  Te  Te117  1  0.73021110  0.23118938  0.22319526  1
  Te  Te118  1  0.75276546  0.27522468  0.57434676  1
  Te  Te119  1  0.74912199  0.24734606  0.91845353  1
  Te  Te120  1  0.77636478  0.55849642  0.28152799  1
  Te  Te121  1  0.72758408  0.56702702  0.58195723  1
  Te  Te122  1  0.73205479  0.59453742  0.93303608  1
  Te  Te123  1  0.77424769  0.92307179  0.24569497  1
  Te  Te124  1  0.77429475  0.89658780  0.61451281  1
  Te  Te125  1  0.75516171  0.90690777  0.92227664  1
  Te  Te126  1  0.23617001  0.23201850  0.08859451  1
  Te  Te127  1  0.24787207  0.25979189  0.42923964  1
  Te  Te128  1  0.26822019  0.25687098  0.72326743  1
  Te  Te129  1  0.25945363  0.58851560  0.08698720  1
  Te  Te130  1  0.26439506  0.57567149  0.41912225  1
  Te  Te131  1  0.25386351  0.59634017  0.72855528  1
  Te  Te132  1  0.25036318  0.95878180  0.08618521  1
  Te  Te133  1  0.23791723  0.90600000  0.41134382  1
  Te  Te134  1  0.25810450  0.91321314  0.75168981  1
  Te  Te135  1  0.57570055  0.23599195  0.07230845  1
  Te  Te136  1  0.57112024  0.25259435  0.39518507  1
  Te  Te137  1  0.61731866  0.25957584  0.74905868  1
  Te  Te138  1  0.59764379  0.58793527  0.11525949  1
  Te  Te139  1  0.59755944  0.56785259  0.41724873  1
  Te  Te140  1  0.56374041  0.55183558  0.72968786  1
  Te  Te141  1  0.57295787  0.91521776  0.06881938  1
  Te  Te142  1  0.58307739  0.91616956  0.42624885  1
  Te  Te143  1  0.60143030  0.92808558  0.75377926  1
  Te  Te144  1  0.92546892  0.25380052  0.07782586  1
  Te  Te145  1  0.88067938  0.29951574  0.40838951  1
  Te  Te146  1  0.91466201  0.24018925  0.75762939  1
  Te  Te147  1  0.91955764  0.59103475  0.08154426  1
  Te  Te148  1  0.89655521  0.58611805  0.40099003  1
  Te  Te149  1  0.91515756  0.59829932  0.75042662  1
  Te  Te150  1  0.92364693  0.93852703  0.09207096  1
  Te  Te151  1  0.90974460  0.91723224  0.42704214  1
  Te  Te152  1  0.87789948  0.93810964  0.73160431  1
  Te  Te153  1  0.23745110  0.07078756  0.23238592  1
  Te  Te154  1  0.25000190  0.09363294  0.57985962  1
  Te  Te155  1  0.23666318  0.10997992  0.89819515  1
  Te  Te156  1  0.26912461  0.41591537  0.23931126  1
  Te  Te157  1  0.21329271  0.38810171  0.53022134  1
  Te  Te158  1  0.25233221  0.41855770  0.90760000  1
  Te  Te159  1  0.27201454  0.77184515  0.22241317  1
  Te  Te160  1  0.25588412  0.75887808  0.57572428  1
  Te  Te161  1  0.23450000  0.76133562  0.91313859  1
  Te  Te162  1  0.58713950  0.07291146  0.24138593  1
  Te  Te163  1  0.61389011  0.07254964  0.58457793  1
  Te  Te164  1  0.57885464  0.06920927  0.91461160  1
  Te  Te165  1  0.59020005  0.41803083  0.23006535  1
  Te  Te166  1  0.60737274  0.45267736  0.61690725  1
  Te  Te167  1  0.57722698  0.42612558  0.92006121  1
  Te  Te168  1  0.58401426  0.76406460  0.26120878  1
  Te  Te169  1  0.57631939  0.74006658  0.60009618  1
  Te  Te170  1  0.57057625  0.73462154  0.93254300  1
  Te  Te171  1  0.90263259  0.09976695  0.27705787  1
  Te  Te172  1  0.91925215  0.10044029  0.57389563  1
  Te  Te173  1  0.92140558  0.06270392  0.92709554  1
  Te  Te174  1  0.91959803  0.39022097  0.27573292  1
  Te  Te175  1  0.91577351  0.42522350  0.58067508  1
  Te  Te176  1  0.90646964  0.40452415  0.89851168  1
  Te  Te177  1  0.93045360  0.74056726  0.24865671  1
  Te  Te178  1  0.91479559  0.74370980  0.59311471  1
  Te  Te179  1  0.91909122  0.75034328  0.91697250  1
