# generated using pymatgen
data_In2Te3
_symmetry_space_group_name_H-M   'P 1'
_cell_length_a   18.79896288
_cell_length_b   18.79766275
_cell_length_c   18.80573196
_cell_angle_alpha   90.00507337
_cell_angle_beta   90.07801034
_cell_angle_gamma   89.97044855
_symmetry_Int_Tables_number   1
_chemical_formula_structural   In2Te3
_chemical_formula_sum   'In72 Te108'
_cell_volume   6645.49788260
_cell_formula_units_Z   36
loop_
 _symmetry_equiv_pos_site_id
 _symmetry_equiv_pos_as_xyz
  1  'x, y, z'
loop_
 _atom_site_type_symbol
 _atom_site_label
 _atom_site_symmetry_multiplicity
 _atom_site_fract_x
 _atom_site_fract_y
 _atom_site_fract_z
 _atom_site_occupancy
  In  In0  1  0.85241575  0.49846392  0.32854364  1
  In  In1  1  0.82221091  0.83617267  -0.00739746  1
  In  In2  1  0.37043309  0.12615233  0.81891436  1
  In  In3  1  0.48826765  0.68627828  0.13755457  1
  In  In4  1  -0.00490187  0.00005298  -0.00558891  1
  In  In5  1  -0.01527181  0.32205476  0.65992254  1
  In  In6  1  0.49752520  0.31256460  0.81000253  1
  In  In7  1  0.49013859  0.47267610  0.34223910  1
  In  In8  1  0.66089600  0.02643295  0.33494743  1
  In  In9  1  0.51052003  0.14793331  -0.01272370  1
  In  In10  1  0.15365541  0.32446768  0.84657807  1
  In  In11  1  0.33695041  0.16359116  0.51376687  1
  In  In12  1  -0.00685149  0.81567021  0.50687584  1
  In  In13  1  0.33213591  0.32302805  0.36775015  1
  In  In14  1  0.16043576  0.84698128  0.34610894  1
  In  In15  1  0.52687257  0.00602104  0.15135006  1
  In  In16  1  0.83891934  -0.00495885  0.84440376  1
  In  In17  1  0.80744865  0.32115498  0.81755935  1
  In  In18  1  -0.00654442  0.48723990  0.48409372  1
  In  In19  1  0.48888744  0.82021347  0.33818459  1
  In  In20  1  0.65441447  0.81656224  0.49946032  1
  In  In21  1  -0.00936937  0.66845503  0.67368304  1
  In  In22  1  0.82792520  0.68570842  0.82808418  1
  In  In23  1  0.82733007  0.50639725  -0.00060322  1
  In  In24  1  0.66816614  0.67697484  0.67228150  1
  In  In25  1  0.33519587  0.66056095  0.67351949  1
  In  In26  1  0.65433844  -0.00425294  0.67886895  1
  In  In27  1  0.83988038  0.17538797  0.32841126  1
  In  In28  1  0.50726649  0.53647232  -0.03554006  1
  In  In29  1  0.31765168  0.00316696  0.33122470  1
  In  In30  1  -0.01442621  0.83929864  0.83538459  1
  In  In31  1  -0.01737885  0.83734322  0.15082032  1
  In  In32  1  0.68181992  0.83655030  0.14828041  1
  In  In33  1  0.51437842  0.68770751  0.83321684  1
  In  In34  1  0.17288525  0.02206128  0.49055623  1
  In  In35  1  0.32045025  0.51873867  0.15920425  1
  In  In36  1  0.68468033  0.65466425  0.32979321  1
  In  In37  1  0.17365354  0.52889175  -0.00337561  1
  In  In38  1  0.83815541  0.83681959  0.32876233  1
  In  In39  1  0.67853882  0.50530004  0.81081357  1
  In  In40  1  0.66526898  0.49221571  0.53225542  1
  In  In41  1  0.00261945  0.50745771  0.83955857  1
  In  In42  1  0.33414302  0.32591266  0.65450006  1
  In  In43  1  0.16105094  0.16572799  0.67718910  1
  In  In44  1  0.00438741  0.16223615  0.49447429  1
  In  In45  1  0.65388780  0.49894004  0.16934159  1
  In  In46  1  0.48489044  -0.00142004  0.54360079  1
  In  In47  1  0.50472194  0.65917331  0.52709206  1
  In  In48  1  0.33511753  0.67582094  0.34110070  1
  In  In49  1  0.18597075  0.84839380  0.68724963  1
  In  In50  1  0.71883022  0.14220855  0.15340066  1
  In  In51  1  -0.01313274  0.31106570  0.01430623  1
  In  In52  1  0.82399326  0.00238949  0.50227836  1
  In  In53  1  -0.01008902  0.00698356  0.65843786  1
  In  In54  1  0.34525031  0.51203461  0.82424201  1
  In  In55  1  0.18808553  0.00817711  0.81213137  1
  In  In56  1  -0.01301863  0.16421380  0.17460279  1
  In  In57  1  0.15345055  0.50629796  0.33635393  1
  In  In58  1  0.17146001  -0.01378953  0.16259088  1
  In  In59  1  0.67844431  0.34538577  0.00298163  1
  In  In60  1  0.81418450  0.32438229  0.51632404  1
  In  In61  1  0.65809877  0.16269171  0.82378116  1
  In  In62  1  0.16934148  0.65822907  0.48797620  1
  In  In63  1  0.18010183  0.80324383  -0.01320581  1
  In  In64  1  0.33773404  0.33960237  0.03103105  1
  In  In65  1  0.50635588  0.33872565  0.17310213  1
  In  In66  1  0.32526864  0.83148440  0.15607356  1
  In  In67  1  0.20097476  0.49355135  0.65696423  1
  In  In68  1  0.16063615  0.32794751  0.17417148  1
  In  In69  1  0.33438725  0.15566170  0.15519587  1
  In  In70  1  -0.00554389  0.50223749  0.16969766  1
  In  In71  1  0.51907719  0.20408104  0.37777933  1
  Te  Te72  1  0.08631264  0.08418494  0.08291305  1
  Te  Te73  1  0.07020071  0.07172294  0.39818703  1
  Te  Te74  1  0.06391944  0.08744417  0.76431638  1
  Te  Te75  1  0.09411661  0.41603977  0.06529257  1
  Te  Te76  1  0.08532048  0.39932495  0.40934348  1
  Te  Te77  1  0.08662563  0.41656127  0.74316206  1
  Te  Te78  1  0.08534182  0.75309701  0.08712827  1
  Te  Te79  1  0.07027176  0.73602772  0.40151222  1
  Te  Te80  1  0.08614167  0.75469060  0.75676758  1
  Te  Te81  1  0.41157212  0.06003476  0.06457171  1
  Te  Te82  1  0.42520998  0.07939515  0.40920276  1
  Te  Te83  1  0.44924373  0.05695355  0.71124758  1
  Te  Te84  1  0.44114894  0.44507493  0.08066326  1
  Te  Te85  1  0.42754582  0.39819562  0.45643134  1
  Te  Te86  1  0.42683542  0.42360015  0.73169590  1
  Te  Te87  1  0.41994014  0.78455630  0.05014410  1
  Te  Te88  1  0.40872699  0.75682418  0.44819048  1
  Te  Te89  1  0.40975741  0.76116103  0.75572812  1
  Te  Te90  1  0.75178860  0.03384420  0.06280421  1
  Te  Te91  1  0.74306390  0.11009355  0.43068516  1
  Te  Te92  1  0.76244381  0.08360963  0.74413878  1
  Te  Te93  1  0.76625401  0.41370224  0.10566071  1
  Te  Te94  1  0.75232343  0.42906990  0.42187372  1
  Te  Te95  1  0.73570776  0.40640424  0.71839588  1
  Te  Te96  1  0.76843335  0.73522056  0.08656787  1
  Te  Te97  1  0.76461179  0.74134506  0.42531583  1
  Te  Te98  1  0.72198733  0.77662986  0.77012935  1
  Te  Te99  1  0.06143214  0.26323807  0.26096426  1
  Te  Te100  1  0.09477061  0.25682035  0.57605038  1
  Te  Te101  1  0.07205691  0.23018364  0.92313878  1
  Te  Te102  1  0.09986643  0.58891436  0.22917340  1
  Te  Te103  1  0.08369909  0.57804941  0.58892316  1
  Te  Te104  1  0.08143253  0.60804437  0.91234308  1
  Te  Te105  1  0.06716589  0.92073124  0.25123368  1
  Te  Te106  1  0.08896626  0.91806253  0.58221744  1
  Te  Te107  1  0.09457704  0.91857145  0.90761943  1
  Te  Te108  1  0.41096010  0.24840575  0.25152047  1
  Te  Te109  1  0.43475597  0.23123407  0.60116217  1
  Te  Te110  1  0.41490903  0.25168766  0.92458197  1
  Te  Te111  1  0.43113983  0.59077673  0.25185664  1
  Te  Te112  1  0.40237226  0.56730099  0.58015119  1
  Te  Te113  1  0.38436413  0.62097060  0.92610396  1
  Te  Te114  1  0.42181539  0.92230007  0.24289631  1
  Te  Te115  1  0.38826737  0.93466630  0.63249390  1
  Te  Te116  1  0.48071963  0.87957108  0.90132075  1
  Te  Te117  1  0.73455165  0.24917702  0.25249954  1
  Te  Te118  1  0.70761043  0.25237017  0.59103831  1
  Te  Te119  1  0.74817381  0.23328959  0.92837595  1
  Te  Te120  1  0.76886055  0.58276100  0.22845166  1
  Te  Te121  1  0.75247417  0.60089672  0.57931812  1
  Te  Te122  1  0.73614280  0.59743265  0.91536982  1
  Te  Te123  1  0.74567904  0.93194353  0.25121150  1
  Te  Te124  1  0.74355823  0.90551088  0.58677976  1
  Te  Te125  1  0.73657182  0.89052683  0.88154956  1
  Te  Te126  1  0.23421412  0.23746140  0.07203528  1
  Te  Te127  1  0.23903606  0.22223394  0.41908512  1
  Te  Te128  1  0.25948229  0.24329739  0.76620496  1
  Te  Te129  1  0.25374391  0.62277417  0.08039690  1
  Te  Te130  1  0.26908375  0.56380696  0.42048311  1
  Te  Te131  1  0.22963832  0.59376657  0.76612064  1
  Te  Te132  1  0.25604301  0.92247802  0.05453614  1
  Te  Te133  1  0.26543686  0.90891640  0.43802351  1
  Te  Te134  1  0.28859538  0.89986156  0.78378574  1
  Te  Te135  1  0.58555318  0.24808768  0.07865842  1
  Te  Te136  1  0.61475975  0.28042178  0.46668911  1
  Te  Te137  1  0.59557004  0.24883438  0.71746580  1
  Te  Te138  1  0.59741192  0.60184121  0.07013185  1
  Te  Te139  1  0.57889003  0.58364681  0.41345344  1
  Te  Te140  1  0.56819197  0.58071123  0.73797504  1
  Te  Te141  1  0.58966592  0.91014812  0.05569235  1
  Te  Te142  1  0.57895464  0.92001344  0.41330528  1
  Te  Te143  1  0.54846010  0.94487780  0.77615019  1
  Te  Te144  1  0.88576079  0.23985305  0.09415802  1
  Te  Te145  1  0.91885795  0.26677081  0.42208242  1
  Te  Te146  1  0.91099873  0.23665803  0.75317619  1
  Te  Te147  1  0.92910986  0.58739331  0.06766986  1
  Te  Te148  1  0.92684672  0.59606660  0.41137479  1
  Te  Te149  1  0.89668479  0.57352872  0.75054936  1
  Te  Te150  1  0.88302625  0.94946256  0.08690222  1
  Te  Te151  1  0.92570486  0.92401367  0.42083688  1
  Te  Te152  1  0.90148172  0.90595176  0.72951156  1
  Te  Te153  1  0.23032421  0.09864365  0.25209172  1
  Te  Te154  1  0.25708445  0.06936362  0.60870702  1
  Te  Te155  1  0.26261978  0.08851181  0.91183521  1
  Te  Te156  1  0.26981925  0.40844401  0.24982904  1
  Te  Te157  1  0.24266766  0.39357854  0.55860835  1
  Te  Te158  1  0.26443737  0.41732125  0.91764040  1
  Te  Te159  1  0.23802599  0.75230447  0.25249922  1
  Te  Te160  1  0.24401069  0.74892356  0.58439965  1
  Te  Te161  1  0.28563818  0.74197594  0.90453855  1
  Te  Te162  1  0.57554477  0.11489867  0.24591106  1
  Te  Te163  1  0.60295728  0.08182463  0.56851332  1
  Te  Te164  1  0.58983594  0.05494348  0.90255178  1
  Te  Te165  1  0.60472894  0.39752742  0.27454231  1
  Te  Te166  1  0.55535339  0.39648265  0.55618435  1
  Te  Te167  1  0.58038204  0.41056793  0.90516120  1
  Te  Te168  1  0.59013132  0.74923785  0.24907024  1
  Te  Te169  1  0.56122503  0.77317895  0.61106228  1
  Te  Te170  1  0.57838678  0.77351638  0.93827210  1
  Te  Te171  1  0.91262085  0.06718612  0.25932876  1
  Te  Te172  1  0.89814261  0.10668979  0.58841010  1
  Te  Te173  1  0.91021515  0.09804704  0.92242238  1
  Te  Te174  1  0.93306617  0.39775425  0.25372751  1
  Te  Te175  1  0.90149750  0.42822173  0.59082499  1
  Te  Te176  1  0.90823516  0.40669966  0.90891734  1
  Te  Te177  1  0.91237402  0.74442713  0.24219205  1
  Te  Te178  1  0.89587085  0.75301410  0.59776210  1
  Te  Te179  1  0.92621527  0.73932984  0.93228429  1
