# generated using pymatgen
data_In2Te3
_symmetry_space_group_name_H-M   'P 1'
_cell_length_a   18.74483722
_cell_length_b   18.72831580
_cell_length_c   18.73655027
_cell_angle_alpha   90.05424202
_cell_angle_beta   89.99854162
_cell_angle_gamma   89.94863731
_symmetry_Int_Tables_number   1
_chemical_formula_structural   In2Te3
_chemical_formula_sum   'In72 Te108'
_cell_volume   6577.63333913
_cell_formula_units_Z   36
loop_
 _symmetry_equiv_pos_site_id
 _symmetry_equiv_pos_as_xyz
  1  'x, y, z'
loop_
 _atom_site_type_symbol
 _atom_site_label
 _atom_site_symmetry_multiplicity
 _atom_site_fract_x
 _atom_site_fract_y
 _atom_site_fract_z
 _atom_site_occupancy
  In  In0  1  0.65840011  0.68683919  0.32757550  1
  In  In1  1  0.67224540  0.16040853  0.46827142  1
  In  In2  1  0.51261999  0.68032373  0.48839114  1
  In  In3  1  -0.00933439  0.66368990  0.67974480  1
  In  In4  1  0.33975282  0.48379490  0.49880082  1
  In  In5  1  -0.02537774  0.83465841  0.85454259  1
  In  In6  1  0.17231672  0.84708678  0.32709512  1
  In  In7  1  0.70179818  0.47473621  0.13997209  1
  In  In8  1  0.85132581  0.48376650  0.31877686  1
  In  In9  1  0.18139301  0.86705263  0.02259931  1
  In  In10  1  0.67518923  0.31918510  0.33039496  1
  In  In11  1  -0.02407043  0.67496106  0.01206290  1
  In  In12  1  0.69359679  0.53049407  0.85865627  1
  In  In13  1  0.49861401  0.51815356  0.33379583  1
  In  In14  1  0.13076614  0.49304051  0.01535354  1
  In  In15  1  0.00330640  0.47561305  0.15215094  1
  In  In16  1  0.83653837  0.85238071  0.67814511  1
  In  In17  1  0.00210263  0.85336723  0.48990557  1
  In  In18  1  0.51954356  0.14410294  0.64298352  1
  In  In19  1  0.17411202  0.66687595  0.17511865  1
  In  In20  1  0.16159539  0.69072292  0.50885060  1
  In  In21  1  0.00683276  0.15652946  0.45841251  1
  In  In22  1  0.15040524  0.48367284  0.33884129  1
  In  In23  1  0.20107925  0.49338445  0.66167079  1
  In  In24  1  0.52836582  0.50405785  0.00288406  1
  In  In25  1  0.49431169  0.31645930  0.18423750  1
  In  In26  1  0.49317579  0.13266333  0.03998917  1
  In  In27  1  0.82874061  0.32557744  0.84091226  1
  In  In28  1  -0.00719413  0.85855962  0.18268078  1
  In  In29  1  0.32696946  0.50803091  0.82162483  1
  In  In30  1  -0.02217471  0.00825665  0.00628791  1
  In  In31  1  0.31510127  0.84983065  0.84443136  1
  In  In32  1  0.31616304  0.31566929  0.63625694  1
  In  In33  1  0.00422832  0.47758512  0.48799162  1
  In  In34  1  0.66199257  0.14566884  0.17413362  1
  In  In35  1  0.50928566  0.70742347  0.85715534  1
  In  In36  1  0.31692350  0.15621619  0.86245657  1
  In  In37  1  0.50546880  0.35698206  0.84372493  1
  In  In38  1  0.53562967  0.47917880  0.65951058  1
  In  In39  1  0.34008769  0.49696544  0.18749568  1
  In  In40  1  0.49253914  0.84365057  0.65174218  1
  In  In41  1  0.83370683  -0.00618315  0.84733702  1
  In  In42  1  0.32454707  0.30376714  0.01749599  1
  In  In43  1  0.15015613  0.85464464  0.66338814  1
  In  In44  1  0.34531302  0.69568783  0.00898960  1
  In  In45  1  0.65869689  0.83806327  0.84807321  1
  In  In46  1  0.82862140  0.84635497  0.31195792  1
  In  In47  1  -0.02119368  0.50040695  0.83085265  1
  In  In48  1  0.53080503  0.89602813  0.31579514  1
  In  In49  1  -0.01611946  0.32094849  0.65229435  1
  In  In50  1  0.83973704  0.15754922  0.67656933  1
  In  In51  1  0.13527211  0.14216740  0.68403885  1
  In  In52  1  0.50178263  -0.00415502  0.83966626  1
  In  In53  1  0.84052355  0.01716938  0.17406808  1
  In  In54  1  0.33708428  0.16251678  0.48083146  1
  In  In55  1  0.66224496  0.66546217  0.66389407  1
  In  In56  1  0.81169331  0.69185700  0.14849663  1
  In  In57  1  0.14806242  0.33363402  0.85035283  1
  In  In58  1  0.81713626  0.65629617  0.49279880  1
  In  In59  1  0.33122689  -0.01626931  0.65805650  1
  In  In60  1  0.32281231  0.63818286  0.67634426  1
  In  In61  1  -0.01371217  0.30020527  0.01832403  1
  In  In62  1  0.65650192  0.34091478  0.66644306  1
  In  In63  1  0.16543090  0.16095142  0.03922234  1
  In  In64  1  0.31562242  0.01614900  0.32120865  1
  In  In65  1  0.68495188  0.16738854  0.85203813  1
  In  In66  1  0.31821643  0.66024320  0.30136942  1
  In  In67  1  0.82602074  0.01349330  0.48598395  1
  In  In68  1  0.85651789  0.32221101  0.49147867  1
  In  In69  1  0.52975544  0.86127684  0.02079990  1
  In  In70  1  0.33827141  0.84316653  0.46994816  1
  In  In71  1  0.33381855  0.30082133  0.31524121  1
  Te  Te72  1  0.05154572  0.09097457  0.11269138  1
  Te  Te73  1  0.10083894  0.07949851  0.36885745  1
  Te  Te74  1  0.06068353  0.05013515  0.76795348  1
  Te  Te75  1  0.10291715  0.36727381  0.09493617  1
  Te  Te76  1  0.05808341  0.37923412  0.39104001  1
  Te  Te77  1  0.08190964  0.41578274  0.73934730  1
  Te  Te78  1  0.08190324  0.75806036  0.08746675  1
  Te  Te79  1  0.07623480  0.74973047  0.39864821  1
  Te  Te80  1  0.07521224  0.76193550  0.76030054  1
  Te  Te81  1  0.39513896  0.04411387  0.10954495  1
  Te  Te82  1  0.43058531  0.08668880  0.39152024  1
  Te  Te83  1  0.41260995  0.08599541  0.74913261  1
  Te  Te84  1  0.42147847  0.41376970  0.07932296  1
  Te  Te85  1  0.42067396  0.40396516  0.39883705  1
  Te  Te86  1  0.40621643  0.40968689  0.73040123  1
  Te  Te87  1  0.43749860  0.77019931  0.09604390  1
  Te  Te88  1  0.42049541  0.74538654  0.38647580  1
  Te  Te89  1  0.40699500  0.76310607  0.75259637  1
  Te  Te90  1  0.75583882  0.08510847  0.07317982  1
  Te  Te91  1  0.76356267  0.09069959  0.37389175  1
  Te  Te92  1  0.73969729  0.06738897  0.74861886  1
  Te  Te93  1  0.78280092  0.38405847  0.05593223  1
  Te  Te94  1  0.75714817  0.41423961  0.41837178  1
  Te  Te95  1  0.74782295  0.42401972  0.75688519  1
  Te  Te96  1  0.73308539  0.77947747  0.05849636  1
  Te  Te97  1  0.74819941  0.77157217  0.41846204  1
  Te  Te98  1  0.74865576  0.75256863  0.75590326  1
  Te  Te99  1  0.08033629  0.18944613  0.25624651  1
  Te  Te100  1  0.08050316  0.23544670  0.57317308  1
  Te  Te101  1  0.07831396  0.22142603  0.92182765  1
  Te  Te102  1  0.07305167  0.57864715  0.24705728  1
  Te  Te103  1  0.08708534  0.57951545  0.58355464  1
  Te  Te104  1  0.06711295  0.59200094  0.91847859  1
  Te  Te105  1  0.09476023  0.94495214  0.24429890  1
  Te  Te106  1  0.09055991  0.94641962  0.56379407  1
  Te  Te107  1  0.07858740  0.92613267  0.92529504  1
  Te  Te108  1  0.43823589  0.20209639  0.26424960  1
  Te  Te109  1  0.43619829  0.24917651  0.56839357  1
  Te  Te110  1  0.43260201  0.23853081  0.92263010  1
  Te  Te111  1  0.44060546  0.60538504  0.22234055  1
  Te  Te112  1  0.43124249  0.58278409  0.57793254  1
  Te  Te113  1  0.41890918  0.58535020  0.91931084  1
  Te  Te114  1  0.40745543  0.93448315  0.23276169  1
  Te  Te115  1  0.43015967  0.93894329  0.54832547  1
  Te  Te116  1  0.41168721  0.92189678  0.93773768  1
  Te  Te117  1  0.75772427  0.25694584  0.22138689  1
  Te  Te118  1  0.75149769  0.24528706  0.58603802  1
  Te  Te119  1  0.76294345  0.24764848  0.95239875  1
  Te  Te120  1  0.75255736  0.58506336  0.25443510  1
  Te  Te121  1  0.74134400  0.56885826  0.58447887  1
  Te  Te122  1  0.78457407  0.60782714  0.94502242  1
  Te  Te123  1  0.72991640  0.92402570  0.22924662  1
  Te  Te124  1  0.75373340  0.91735260  0.57457145  1
  Te  Te125  1  0.74791569  0.91315044  0.94162632  1
  Te  Te126  1  0.27728584  0.21368695  0.12576057  1
  Te  Te127  1  0.23617884  0.24846311  0.41346109  1
  Te  Te128  1  0.24485643  0.25072596  0.75698162  1
  Te  Te129  1  0.25301089  0.57543752  0.07852722  1
  Te  Te130  1  0.24956105  0.58758676  0.41932637  1
  Te  Te131  1  0.21308083  0.59904460  0.77344369  1
  Te  Te132  1  0.25722939  0.96842923  0.09892356  1
  Te  Te133  1  0.23140680  0.94283431  0.43236044  1
  Te  Te134  1  0.22668358  0.94450806  0.76403366  1
  Te  Te135  1  0.58395557  0.24862709  0.08165043  1
  Te  Te136  1  0.56872108  0.22798003  0.38338621  1
  Te  Te137  1  0.57943157  0.24009742  0.75695231  1
  Te  Te138  1  0.60725214  0.58258730  0.09923538  1
  Te  Te139  1  0.60541805  0.57688459  0.42546330  1
  Te  Te140  1  0.57001329  0.58503870  0.76702232  1
  Te  Te141  1  0.61049979  0.95308157  0.11494934  1
  Te  Te142  1  0.58727843  0.94968292  0.44114390  1
  Te  Te143  1  0.59026103  0.92404200  0.73827437  1
  Te  Te144  1  0.88934391  0.26582462  0.12814328  1
  Te  Te145  1  0.89114322  0.22096908  0.38813079  1
  Te  Te146  1  0.93247430  0.23740573  0.76893827  1
  Te  Te147  1  0.89861438  0.57069558  0.09152799  1
  Te  Te148  1  0.92480652  0.58423129  0.41021737  1
  Te  Te149  1  0.88825535  0.58523402  0.75062472  1
  Te  Te150  1  0.89460121  0.90138982  0.07659397  1
  Te  Te151  1  0.92236946  0.93672067  0.39043452  1
  Te  Te152  1  0.94676031  0.94418838  0.74029398  1
  Te  Te153  1  0.22460677  0.12451822  0.26417752  1
  Te  Te154  1  0.25027828  0.09497463  0.59127557  1
  Te  Te155  1  0.23994162  0.06395137  0.94827650  1
  Te  Te156  1  0.23703944  0.40145127  0.24197880  1
  Te  Te157  1  0.22244568  0.39639927  0.54494273  1
  Te  Te158  1  0.25572576  0.41415200  0.92474309  1
  Te  Te159  1  0.26462208  0.78058586  0.22299772  1
  Te  Te160  1  0.26679176  0.76608004  0.59095391  1
  Te  Te161  1  0.23145154  0.75143912  0.92577461  1
  Te  Te162  1  0.58187549  0.03455854  0.24241792  1
  Te  Te163  1  0.60714714  0.05464572  0.55828993  1
  Te  Te164  1  0.59066832  0.07566787  0.93384633  1
  Te  Te165  1  0.58834870  0.42420530  0.24371210  1
  Te  Te166  1  0.58174559  0.39343928  0.54877315  1
  Te  Te167  1  0.62028948  0.40831858  0.92715610  1
  Te  Te168  1  0.58087052  0.77654517  0.24010217  1
  Te  Te169  1  0.60174024  0.77174513  0.57099621  1
  Te  Te170  1  0.61756775  0.73213559  0.96207246  1
  Te  Te171  1  0.94640518  0.10640606  0.23679618  1
  Te  Te172  1  0.92772698  0.08681029  0.57484585  1
  Te  Te173  1  0.89433592  0.10339325  0.92769567  1
  Te  Te174  1  0.93145846  0.37956373  0.24512034  1
  Te  Te175  1  0.90209891  0.43391262  0.59307165  1
  Te  Te176  1  0.91274668  0.41545571  0.93883948  1
  Te  Te177  1  0.91879397  0.74140608  0.24845066  1
  Te  Te178  1  0.91692973  0.75399238  0.57698639  1
  Te  Te179  1  0.87720656  0.73348787  0.91278361  1
