# generated using pymatgen
data_In2Te3
_symmetry_space_group_name_H-M   'P 1'
_cell_length_a   18.89857339
_cell_length_b   18.90604565
_cell_length_c   18.92594271
_cell_angle_alpha   90.13279817
_cell_angle_beta   90.04035330
_cell_angle_gamma   90.05357672
_symmetry_Int_Tables_number   1
_chemical_formula_structural   In2Te3
_chemical_formula_sum   'In72 Te108'
_cell_volume   6762.16525909
_cell_formula_units_Z   36
loop_
 _symmetry_equiv_pos_site_id
 _symmetry_equiv_pos_as_xyz
  1  'x, y, z'
loop_
 _atom_site_type_symbol
 _atom_site_label
 _atom_site_symmetry_multiplicity
 _atom_site_fract_x
 _atom_site_fract_y
 _atom_site_fract_z
 _atom_site_occupancy
  In  In0  1  0.80030269  0.69253684  0.50928471  1
  In  In1  1  0.35835674  0.32958265  0.31672653  1
  In  In2  1  0.33047469  0.67645312  0.65738351  1
  In  In3  1  0.34106081  0.72428259  0.33166114  1
  In  In4  1  0.01167828  0.14295524  0.83402053  1
  In  In5  1  0.33965874  0.51996685  0.87626370  1
  In  In6  1  0.48845279  0.31754493  0.48519008  1
  In  In7  1  0.20210272  0.14108335  0.33994623  1
  In  In8  1  0.15565248  0.34223502  0.51277164  1
  In  In9  1  0.47274845  0.50295732  0.00089331  1
  In  In10  1  0.16066333  0.15935297  0.00839167  1
  In  In11  1  0.67360869  0.31778619  0.66855652  1
  In  In12  1  0.68886832  0.68912983  0.35808662  1
  In  In13  1  0.84166970  0.83840727  0.02689143  1
  In  In14  1  0.34670314  0.33345880  0.64174905  1
  In  In15  1  0.14128250  0.84244338  0.32144937  1
  In  In16  1  0.51226329  0.33467207  0.82249451  1
  In  In17  1  0.17537696  0.66556359  0.84443960  1
  In  In18  1  0.34317007  -0.01099529  0.65501178  1
  In  In19  1  0.67617310  0.82906772  0.17789861  1
  In  In20  1  0.82912759  0.66513741  0.83078220  1
  In  In21  1  0.37271097  0.84851659  0.86147139  1
  In  In22  1  0.34502602  0.15562868  0.80058276  1
  In  In23  1  0.86207760  0.16540637  0.65911551  1
  In  In24  1  0.17980174  0.84586708  0.66407263  1
  In  In25  1  -0.00597881  0.85113874  0.85826446  1
  In  In26  1  0.83025862  0.31688860  0.16409061  1
  In  In27  1  0.50572731  0.69161265  0.14754404  1
  In  In28  1  0.37152832  0.68379204  0.01773981  1
  In  In29  1  0.65286440  0.00016445  0.00735395  1
  In  In30  1  0.00614465  0.50993594  0.51254199  1
  In  In31  1  0.13108073  0.52516994  0.02487091  1
  In  In32  1  0.67043839  0.50974565  0.84388122  1
  In  In33  1  0.15887187  -0.00081506  0.48943237  1
  In  In34  1  0.33288246  0.32517267  0.01756058  1
  In  In35  1  0.48195991  0.51515653  0.65802422  1
  In  In36  1  0.84021850  0.54255613  0.04043832  1
  In  In37  1  0.00609088  0.15988872  0.16956920  1
  In  In38  1  0.09742387  0.70816795  0.18857635  1
  In  In39  1  -0.01598575  0.68872614  0.66519435  1
  In  In40  1  0.14623468  0.00069937  0.84759258  1
  In  In41  1  0.64993526  0.15013415  0.16658154  1
  In  In42  1  0.64169865  0.12300386  0.50477931  1
  In  In43  1  -0.00483041  0.35287273  -0.00976495  1
  In  In44  1  -0.00707872  0.00882834  0.63205845  1
  In  In45  1  0.81856613  -0.00816342  0.83640510  1
  In  In46  1  0.34648748  0.14192451  0.47712066  1
  In  In47  1  0.51078423  0.14185799  0.32276816  1
  In  In48  1  0.48529494  0.13902423  0.01030368  1
  In  In49  1  0.81565376  0.14679377  0.35267470  1
  In  In50  1  0.00697794  0.34444116  0.33796223  1
  In  In51  1  0.51028764  0.50340872  0.31727850  1
  In  In52  1  0.00141572  0.11281062  0.49474957  1
  In  In53  1  0.83492853  0.52582634  0.33604562  1
  In  In54  1  0.51011909  0.84230600  0.64425297  1
  In  In55  1  0.15654675  0.48265063  0.66370837  1
  In  In56  1  0.66907354  0.68418447  0.66941221  1
  In  In57  1  0.61091916  0.81670726  0.85080185  1
  In  In58  1  0.01372023  0.33145082  0.66887304  1
  In  In59  1  0.68530881  0.17437159  0.83054621  1
  In  In60  1  0.82804791  0.34113955  0.47583414  1
  In  In61  1  -0.01729977  -0.02057766  0.01734941  1
  In  In62  1  0.18841187  0.34795801  0.81907671  1
  In  In63  1  0.33615370  0.50046696  0.15933279  1
  In  In64  1  0.81583029  -0.01364716  0.15327398  1
  In  In65  1  0.15472855  0.68372224  0.44266329  1
  In  In66  1  0.81969637  0.34627140  0.86490119  1
  In  In67  1  0.78291757  0.86712253  0.63766548  1
  In  In68  1  0.66563105  0.50922921  0.51048858  1
  In  In69  1  0.17495950  0.32169332  0.14834644  1
  In  In70  1  0.66828937  0.49412677  0.18475277  1
  In  In71  1  0.36074230  -0.03268452  0.31461336  1
  Te  Te72  1  0.09363668  0.05712208  0.09684732  1
  Te  Te73  1  0.07807028  0.05668422  0.36923024  1
  Te  Te74  1  0.09567638  0.07930187  0.72734166  1
  Te  Te75  1  0.06383384  0.41778508  0.10920281  1
  Te  Te76  1  0.09747046  0.44138884  0.41185449  1
  Te  Te77  1  0.06720222  0.42930519  0.77415224  1
  Te  Te78  1  0.08300969  0.77879492  0.06015944  1
  Te  Te79  1  0.04189509  0.76800618  0.40312467  1
  Te  Te80  1  0.08681711  0.76773240  0.75959986  1
  Te  Te81  1  0.41894827  0.03569379  0.09598634  1
  Te  Te82  1  0.44478935  0.04463046  0.42150238  1
  Te  Te83  1  0.43514312  0.05095296  0.75203746  1
  Te  Te84  1  0.43338898  0.39718566  0.10480792  1
  Te  Te85  1  0.41607820  0.43019045  0.41584067  1
  Te  Te86  1  0.40379812  0.42204333  0.76025424  1
  Te  Te87  1  0.39747976  0.79425034  0.11663365  1
  Te  Te88  1  0.43146433  0.79514374  0.42627712  1
  Te  Te89  1  0.42072794  0.76195252  0.74328082  1
  Te  Te90  1  0.75577711  0.09357973  0.06898679  1
  Te  Te91  1  0.71020659  0.04992738  0.39377629  1
  Te  Te92  1  0.75440573  0.08152729  0.73260993  1
  Te  Te93  1  0.75558710  0.42158829  0.08239551  1
  Te  Te94  1  0.73077849  0.42646522  0.40049169  1
  Te  Te95  1  0.75146665  0.41878178  0.75011299  1
  Te  Te96  1  0.75160756  0.73942565  0.08726620  1
  Te  Te97  1  0.79029369  0.79144440  0.39858575  1
  Te  Te98  1  0.75177784  0.77745106  0.75798127  1
  Te  Te99  1  0.09691158  0.24501392  0.26137661  1
  Te  Te100  1  0.07235910  0.23117771  0.57245674  1
  Te  Te101  1  0.09347820  0.25594048  0.91092203  1
  Te  Te102  1  0.05304817  0.58011240  0.25182707  1
  Te  Te103  1  0.09563702  0.60335079  0.59385336  1
  Te  Te104  1  0.06738768  0.59718099  0.91522166  1
  Te  Te105  1  0.07686899  0.91918579  0.21265122  1
  Te  Te106  1  0.07651817  0.89789176  0.56603779  1
  Te  Te107  1  0.10524098  0.89586919  0.95633566  1
  Te  Te108  1  0.41195620  0.21594455  0.24234711  1
  Te  Te109  1  0.42847906  0.21845399  0.58302296  1
  Te  Te110  1  0.40861510  0.25410068  0.90620184  1
  Te  Te111  1  0.41688196  0.59979677  0.24184385  1
  Te  Te112  1  0.42336083  0.60948966  0.56436563  1
  Te  Te113  1  0.45469200  0.62144373  0.89979079  1
  Te  Te114  1  0.45231026  0.90160169  0.21642446  1
  Te  Te115  1  0.39248279  0.88566883  0.55995239  1
  Te  Te116  1  0.44607097  0.94243279  0.95082284  1
  Te  Te117  1  0.74104153  0.23995879  0.25764693  1
  Te  Te118  1  0.75618435  0.24018388  0.56737511  1
  Te  Te119  1  0.73261506  0.25781588  0.94055364  1
  Te  Te120  1  0.75126120  0.60896016  0.24186163  1
  Te  Te121  1  0.75969003  0.57920847  0.60543308  1
  Te  Te122  1  0.73890550  0.60624559  0.93763424  1
  Te  Te123  1  0.78311725  0.89207679  0.26224586  1
  Te  Te124  1  0.67582851  0.91291605  0.54292559  1
  Te  Te125  1  0.73814217  0.89898898  0.92578804  1
  Te  Te126  1  0.27047925  0.21340886  0.09993081  1
  Te  Te127  1  0.25661839  0.26141059  0.42593732  1
  Te  Te128  1  0.24728745  0.24965824  0.72208867  1
  Te  Te129  1  0.25445348  0.59658012  0.07602380  1
  Te  Te130  1  0.26295073  0.60854890  0.38024569  1
  Te  Te131  1  0.25431589  0.57093491  0.75300331  1
  Te  Te132  1  0.31308420  0.95915079  0.01577139  1
  Te  Te133  1  0.24901342  0.91224553  0.40702409  1
  Te  Te134  1  0.25847887  0.91663080  0.77450407  1
  Te  Te135  1  0.57463195  0.23629854  0.07386379  1
  Te  Te136  1  0.59235872  0.23788363  0.41423680  1
  Te  Te137  1  0.57378600  0.22660920  0.73574542  1
  Te  Te138  1  0.57802312  0.57212871  0.08823294  1
  Te  Te139  1  0.58180061  0.59299545  0.41812155  1
  Te  Te140  1  0.58130477  0.58901956  0.74872497  1
  Te  Te141  1  0.57768367  0.91718821  0.10570707  1
  Te  Te142  1  0.57502128  0.85288806  0.43910188  1
  Te  Te143  1  0.58386975  0.91990900  0.74976784  1
  Te  Te144  1  0.92561076  0.24352834  0.07061024  1
  Te  Te145  1  0.92829473  0.23972178  0.41725327  1
  Te  Te146  1  0.91596099  0.25370618  0.77246470  1
  Te  Te147  1  0.95206004  0.60406103  0.11979295  1
  Te  Te148  1  0.91010494  0.60236205  0.44255370  1
  Te  Te149  1  0.91351168  0.58578337  0.74073074  1
  Te  Te150  1  0.95855622  0.87033038  0.12749969  1
  Te  Te151  1  0.93272637  0.99077140  0.43567439  1
  Te  Te152  1  0.92590786  0.92975894  0.74867320  1
  Te  Te153  1  0.26317629  0.05185756  0.24177265  1
  Te  Te154  1  0.24960322  0.08249360  0.57878120  1
  Te  Te155  1  0.25558736  0.09068226  0.91007635  1
  Te  Te156  1  0.24901214  0.41208781  0.24660977  1
  Te  Te157  1  0.26455642  0.43777765  0.56692813  1
  Te  Te158  1  0.23814088  0.42116130  0.94538284  1
  Te  Te159  1  0.23807104  0.76532174  0.22975400  1
  Te  Te160  1  0.23488959  0.74718389  0.56327044  1
  Te  Te161  1  0.27102890  0.75159805  0.92324402  1
  Te  Te162  1  0.60314518  0.04285371  0.25825389  1
  Te  Te163  1  0.58341804  0.02502213  0.59792600  1
  Te  Te164  1  0.58261644  0.08619445  0.90481869  1
  Te  Te165  1  0.58205356  0.39495895  0.25074793  1
  Te  Te166  1  0.57510654  0.40556483  0.58964786  1
  Te  Te167  1  0.58110724  0.41905917  0.92651942  1
  Te  Te168  1  0.58106402  0.74939662  0.26722240  1
  Te  Te169  1  0.59265514  0.74552107  0.55713361  1
  Te  Te170  1  0.53948038  0.74692012  0.95643503  1
  Te  Te171  1  0.89913655  0.08103082  0.24109055  1
  Te  Te172  1  0.85947886  0.04549107  0.55995366  1
  Te  Te173  1  0.90973330  0.07669580  0.92504912  1
  Te  Te174  1  0.90515310  0.41703407  0.25331198  1
  Te  Te175  1  0.91457204  0.40932687  0.58139649  1
  Te  Te176  1  0.90394605  0.45519777  0.92793201  1
  Te  Te177  1  0.95526110  0.69481943  0.24791698  1
  Te  Te178  1  0.90054956  0.78463011  0.58328579  1
  Te  Te179  1  0.91645774  0.74427940  0.92899830  1
