# generated using pymatgen
data_In2Te3
_symmetry_space_group_name_H-M   'P 1'
_cell_length_a   18.93818509
_cell_length_b   18.96819411
_cell_length_c   18.94709697
_cell_angle_alpha   90.02943759
_cell_angle_beta   89.88974132
_cell_angle_gamma   89.95690951
_symmetry_Int_Tables_number   1
_chemical_formula_structural   In2Te3
_chemical_formula_sum   'In72 Te108'
_cell_volume   6806.22082336
_cell_formula_units_Z   36
loop_
 _symmetry_equiv_pos_site_id
 _symmetry_equiv_pos_as_xyz
  1  'x, y, z'
loop_
 _atom_site_type_symbol
 _atom_site_label
 _atom_site_symmetry_multiplicity
 _atom_site_fract_x
 _atom_site_fract_y
 _atom_site_fract_z
 _atom_site_occupancy
  In  In0  1  0.67583693  0.83698528  0.17012604  1
  In  In1  1  -0.02683752  0.81041727  0.87343108  1
  In  In2  1  0.65587276  -0.00252161  0.65496688  1
  In  In3  1  0.37355256  0.37883947  0.36187675  1
  In  In4  1  0.36030620  0.17043029  0.14974436  1
  In  In5  1  0.66019497  0.48897876  0.84759672  1
  In  In6  1  0.50965882  0.67255260  0.84769914  1
  In  In7  1  0.66831943  0.64471377  0.64501332  1
  In  In8  1  0.51782876  0.18096470  0.33657142  1
  In  In9  1  -0.00861124  0.19477141  0.84562744  1
  In  In10  1  0.67994386  0.47652172  0.47969717  1
  In  In11  1  -0.00051517  0.82865520  0.15053353  1
  In  In12  1  0.16751996  0.15107049  0.01059623  1
  In  In13  1  0.82719995  -0.01539424  0.17547925  1
  In  In14  1  0.49057414  0.83888236  0.32007576  1
  In  In15  1  0.14597018  0.15855282  0.65551481  1
  In  In16  1  -0.01622548  0.34833213  0.64796005  1
  In  In17  1  0.35455328  0.51517097  0.80182645  1
  In  In18  1  0.49680777  0.47044121  0.61239737  1
  In  In19  1  -0.03155134  0.17168431  0.16463168  1
  In  In20  1  0.84712713  0.01970907  0.83815139  1
  In  In21  1  0.14932543  -0.04030690  0.83934418  1
  In  In22  1  0.01353124  0.52509851  0.85258034  1
  In  In23  1  0.82897648  0.84100640  0.66456849  1
  In  In24  1  0.66826920  0.82100227  0.84361964  1
  In  In25  1  0.17050775  0.49275073  0.00616946  1
  In  In26  1  0.33158510  0.17735994  0.49270092  1
  In  In27  1  0.34072375  0.82994995  0.84068945  1
  In  In28  1  0.53141623  0.35614582  0.19088213  1
  In  In29  1  0.67357000  -0.00689768  0.00464386  1
  In  In30  1  0.35029935  0.17809734  0.85527147  1
  In  In31  1  0.67334968  0.19764960  0.49962569  1
  In  In32  1  0.31852219  -0.00678388  0.33554984  1
  In  In33  1  0.01244634  0.67171538  0.66292724  1
  In  In34  1  -0.02349517  0.02945728  0.65505465  1
  In  In35  1  0.34317369  -0.00866179  -0.00023678  1
  In  In36  1  0.15547219  0.65773919  0.17969189  1
  In  In37  1  0.50328583  0.82212354  0.66071006  1
  In  In38  1  0.24292297  0.52727290  0.63876356  1
  In  In39  1  0.67166462  0.16148918  0.83932370  1
  In  In40  1  0.37188276  0.62180483  0.31146511  1
  In  In41  1  0.82562646  0.32717177  0.82735909  1
  In  In42  1  0.15108131  0.51228138  0.33518013  1
  In  In43  1  0.18221787  0.34778091  0.18098096  1
  In  In44  1  0.82018204  0.65011148  0.16493006  1
  In  In45  1  -0.00796739  0.33516600  0.01932509  1
  In  In46  1  0.84607803  0.50197417  0.65202074  1
  In  In47  1  0.67208715  0.64656586  0.02536938  1
  In  In48  1  -0.01600212  0.49804336  0.47341258  1
  In  In49  1  0.15722859  0.82047272  0.32594215  1
  In  In50  1  0.15692610  0.83305928  0.67190819  1
  In  In51  1  -0.03558002  0.35920552  0.29407933  1
  In  In52  1  0.65651254  0.17824045  0.16865290  1
  In  In53  1  0.64254738  0.82016420  0.49573915  1
  In  In54  1  0.66172448  0.64752827  0.33060161  1
  In  In55  1  0.81157060  0.49442533  0.01934278  1
  In  In56  1  0.31882008  0.66790213  0.00701681  1
  In  In57  1  0.34067822  0.82494009  0.49268832  1
  In  In58  1  0.36449263  0.35300131  -0.00133804  1
  In  In59  1  0.82810116  0.84142145  0.33809687  1
  In  In60  1  0.35088839  0.03028491  0.65403145  1
  In  In61  1  0.16189991  0.17670168  0.34974842  1
  In  In62  1  0.16196598  -0.00822963  0.17501587  1
  In  In63  1  -0.01069196  0.17429657  0.49405831  1
  In  In64  1  0.53175595  0.49375892  0.01688425  1
  In  In65  1  0.51292695  0.17596510  0.68163727  1
  In  In66  1  0.16137216  0.67256598  0.50424658  1
  In  In67  1  0.33796388  0.82603024  0.15324827  1
  In  In68  1  0.18421490  0.33213488  0.80160433  1
  In  In69  1  -0.01252571  0.84223282  0.50422956  1
  In  In70  1  0.80364441  0.16558146  0.32990700  1
  In  In71  1  0.34587748  0.34905815  0.65954830  1
  Te  Te72  1  0.06634201  0.07539894  0.09105802  1
  Te  Te73  1  0.08147889  0.08228883  0.42507879  1
  Te  Te74  1  0.07625410  0.08305252  0.76764310  1
  Te  Te75  1  0.07526287  0.42802897  0.10606289  1
  Te  Te76  1  0.07147232  0.39943222  0.39591079  1
  Te  Te77  1  0.06826725  0.41642766  0.75536969  1
  Te  Te78  1  0.09941706  0.74702965  0.07881178  1
  Te  Te79  1  0.06244877  0.74223630  0.41465720  1
  Te  Te80  1  0.07807829  0.75239765  0.77168273  1
  Te  Te81  1  0.43510416  0.09555667  0.05014221  1
  Te  Te82  1  0.41463750  0.08501021  0.40637351  1
  Te  Te83  1  0.43271285  0.08025233  0.77045851  1
  Te  Te84  1  0.41988617  0.43494977  0.11154375  1
  Te  Te85  1  0.42703435  0.46239358  0.47293775  1
  Te  Te86  1  0.44530281  0.40701401  0.75505815  1
  Te  Te87  1  0.42429458  0.72792675  0.08817633  1
  Te  Te88  1  0.42263036  0.73111859  0.40629465  1
  Te  Te89  1  0.41446231  0.73459660  0.74736263  1
  Te  Te90  1  0.75375662  0.08780051  0.09206681  1
  Te  Te91  1  0.70787181  0.08689741  0.40836045  1
  Te  Te92  1  0.75474668  0.07906056  0.73529426  1
  Te  Te93  1  0.75468699  0.40884615  0.12601921  1
  Te  Te94  1  0.72270065  0.37319422  0.37602927  1
  Te  Te95  1  0.74964497  0.42417564  0.73940430  1
  Te  Te96  1  0.76281315  0.75879621  0.07400527  1
  Te  Te97  1  0.74526438  0.74086016  0.41712201  1
  Te  Te98  1  0.74360041  0.74024098  0.73906226  1
  Te  Te99  1  0.08087071  0.24936321  0.23902908  1
  Te  Te100  1  0.08596908  0.26652572  0.56999932  1
  Te  Te101  1  0.10289383  0.26590428  0.92225106  1
  Te  Te102  1  0.04688434  0.58645152  0.25729765  1
  Te  Te103  1  0.07909386  0.56478631  0.57770995  1
  Te  Te104  1  0.09411585  0.60368155  0.94657113  1
  Te  Te105  1  0.06393517  0.91989577  0.26308669  1
  Te  Te106  1  0.07570407  0.93061216  0.59054794  1
  Te  Te107  1  0.05498349  0.91302320  0.94031902  1
  Te  Te108  1  0.41198098  0.26867141  0.25373572  1
  Te  Te109  1  0.42959465  0.25345083  0.57734070  1
  Te  Te110  1  0.44898205  0.26036982  0.92378898  1
  Te  Te111  1  0.46921812  0.55789035  0.22084399  1
  Te  Te112  1  0.38281370  0.56640625  0.59469775  1
  Te  Te113  1  0.42811651  0.56965585  0.92681490  1
  Te  Te114  1  0.41043730  0.93469866  0.23065059  1
  Te  Te115  1  0.42433013  0.92193063  0.57582559  1
  Te  Te116  1  0.43298652  0.90737198  0.92096620  1
  Te  Te117  1  0.73653428  0.27670769  0.25176333  1
  Te  Te118  1  0.79188979  0.22215086  0.58219745  1
  Te  Te119  1  0.76893888  0.23472057  0.92463461  1
  Te  Te120  1  0.77582984  0.56181295  0.27978459  1
  Te  Te121  1  0.76764177  0.58252811  0.55013785  1
  Te  Te122  1  0.75272049  0.59069733  0.90908464  1
  Te  Te123  1  0.72497318  0.93356817  0.27615177  1
  Te  Te124  1  0.74461162  0.91426048  0.56400304  1
  Te  Te125  1  0.76881004  0.91137768  0.91059349  1
  Te  Te126  1  0.25281036  0.26370471  0.07270297  1
  Te  Te127  1  0.26120173  0.27713775  0.40402740  1
  Te  Te128  1  0.26581467  0.22442610  0.73075371  1
  Te  Te129  1  0.25531278  0.57014402  0.10551716  1
  Te  Te130  1  0.25208560  0.59482321  0.41143420  1
  Te  Te131  1  0.23127498  0.58631155  0.77139265  1
  Te  Te132  1  0.23833324  0.90888156  0.07421195  1
  Te  Te133  1  0.23210010  0.90784433  0.42615664  1
  Te  Te134  1  0.25852355  0.93077800  0.73413576  1
  Te  Te135  1  0.58128908  0.27156150  0.08041924  1
  Te  Te136  1  0.57438808  0.28716742  0.42494869  1
  Te  Te137  1  0.60816728  0.26105099  0.75086693  1
  Te  Te138  1  0.59829319  0.56536600  0.13116115  1
  Te  Te139  1  0.57421362  0.56164030  0.41558461  1
  Te  Te140  1  0.58165240  0.57876810  0.75243226  1
  Te  Te141  1  0.58255395  0.91179659  0.08670398  1
  Te  Te142  1  0.55697337  0.91520414  0.42538512  1
  Te  Te143  1  0.58174670  0.90992833  0.75547139  1
  Te  Te144  1  0.88392234  0.26331505  0.08719611  1
  Te  Te145  1  0.91096062  0.25603411  0.39161617  1
  Te  Te146  1  0.90863271  0.24331235  0.72795653  1
  Te  Te147  1  0.91642760  0.59590688  0.05926972  1
  Te  Te148  1  0.93099868  0.57747134  0.36312291  1
  Te  Te149  1  0.91881408  0.59065611  0.75089198  1
  Te  Te150  1  0.91005706  0.91655602  0.07474450  1
  Te  Te151  1  0.90708213  0.93160195  0.42224289  1
  Te  Te152  1  0.93017287  0.91668090  0.74817576  1
  Te  Te153  1  0.25086007  0.09950507  0.23778880  1
  Te  Te154  1  0.23882960  0.07968231  0.56386688  1
  Te  Te155  1  0.24139244  0.07315575  0.90306855  1
  Te  Te156  1  0.26686218  0.43697952  0.26691042  1
  Te  Te157  1  0.23309301  0.39511448  0.57859641  1
  Te  Te158  1  0.26144306  0.41796984  0.90119259  1
  Te  Te159  1  0.26730891  0.74031474  0.25928216  1
  Te  Te160  1  0.25631748  0.74810321  0.59507060  1
  Te  Te161  1  0.24254960  0.75314349  0.91583112  1
  Te  Te162  1  0.57295612  0.08365130  0.24378970  1
  Te  Te163  1  0.57718674  0.09403274  0.57146757  1
  Te  Te164  1  0.58550779  0.07150873  0.91695421  1
  Te  Te165  1  0.58610557  0.41527291  0.31929442  1
  Te  Te166  1  0.62294294  0.39910690  0.59132076  1
  Te  Te167  1  0.61844963  0.39328609  0.95241110  1
  Te  Te168  1  0.58170660  0.74357504  0.24461900  1
  Te  Te169  1  0.55802451  0.71509538  0.56865527  1
  Te  Te170  1  0.58559429  0.75119190  0.94974296  1
  Te  Te171  1  0.91052701  0.07624083  0.26528034  1
  Te  Te172  1  0.87816617  0.09573769  0.56217349  1
  Te  Te173  1  0.91985177  0.10319290  0.93397257  1
  Te  Te174  1  0.87536065  0.44438093  0.20733831  1
  Te  Te175  1  0.88804886  0.40294551  0.54399378  1
  Te  Te176  1  0.91324925  0.42232806  0.91567733  1
  Te  Te177  1  0.90400783  0.75303255  0.24209251  1
  Te  Te178  1  0.90577991  0.73918290  0.57987878  1
  Te  Te179  1  0.90846966  0.70309614  0.94773183  1
