# generated using pymatgen
data_In2Te3
_symmetry_space_group_name_H-M   'P 1'
_cell_length_a   18.94930678
_cell_length_b   18.92195773
_cell_length_c   18.94722369
_cell_angle_alpha   90.03244560
_cell_angle_beta   89.89570790
_cell_angle_gamma   90.08041676
_symmetry_Int_Tables_number   1
_chemical_formula_structural   In2Te3
_chemical_formula_sum   'In72 Te108'
_cell_volume   6793.65926272
_cell_formula_units_Z   36
loop_
 _symmetry_equiv_pos_site_id
 _symmetry_equiv_pos_as_xyz
  1  'x, y, z'
loop_
 _atom_site_type_symbol
 _atom_site_label
 _atom_site_symmetry_multiplicity
 _atom_site_fract_x
 _atom_site_fract_y
 _atom_site_fract_z
 _atom_site_occupancy
  In  In0  1  0.34676242  -0.02174312  0.30177318  1
  In  In1  1  0.33550554  0.32868779  -0.02523919  1
  In  In2  1  0.84146044  0.83307475  0.33814340  1
  In  In3  1  0.85322411  0.49818089  0.31875756  1
  In  In4  1  0.85698194  0.34062051  0.50560663  1
  In  In5  1  0.02355924  0.64729951  0.65113141  1
  In  In6  1  0.64663989  0.31898877  0.31820469  1
  In  In7  1  0.30984572  0.01175519  0.66351777  1
  In  In8  1  0.31382603  0.67019622  0.68143436  1
  In  In9  1  0.00735631  0.16917614  0.51592372  1
  In  In10  1  0.81439379  0.14162998  0.34440949  1
  In  In11  1  -0.01490677  0.01495843  0.66477157  1
  In  In12  1  0.52214155  0.50945146  0.00671075  1
  In  In13  1  0.80502102  0.51204078  -0.00906332  1
  In  In14  1  -0.02602966  0.83817659  0.16919967  1
  In  In15  1  0.32979907  0.18315926  0.84467413  1
  In  In16  1  0.81043300  -0.01474484  0.12270363  1
  In  In17  1  0.30633255  0.48021590  0.49489140  1
  In  In18  1  0.02026466  0.82402192  0.84390828  1
  In  In19  1  0.17273668  -0.03492977  0.18375576  1
  In  In20  1  0.69216430  0.35108340  0.65049075  1
  In  In21  1  -0.01848305  0.14922704  0.83568460  1
  In  In22  1  0.65929900  0.33579045  -0.01556739  1
  In  In23  1  0.30197011  0.33467093  0.33539246  1
  In  In24  1  0.32499129  0.82986035  0.50986228  1
  In  In25  1  0.49897357  0.67706819  0.52075736  1
  In  In26  1  0.47719872  0.81725408  0.03139190  1
  In  In27  1  0.33696185  0.14908325  0.17179824  1
  In  In28  1  0.49289466  -0.02929387  0.45952715  1
  In  In29  1  0.52096034  0.67354716  0.84491837  1
  In  In30  1  0.66259160  0.67418839  -0.00306369  1
  In  In31  1  0.49367275  0.18878275  0.66119204  1
  In  In32  1  0.16859406  0.01276608  0.48434868  1
  In  In33  1  0.16740711  0.35588389  0.81998446  1
  In  In34  1  0.14982405  -0.00763244  0.83273454  1
  In  In35  1  0.67056399  0.15580809  0.50038620  1
  In  In36  1  0.65659875  0.82456530  0.14898382  1
  In  In37  1  0.17147947  0.50244001  0.33016618  1
  In  In38  1  0.51015996  0.10660732  0.29030197  1
  In  In39  1  0.52715404  0.83467636  0.66889663  1
  In  In40  1  0.16622045  0.84428898  0.66254668  1
  In  In41  1  0.35491930  0.67631934  0.30551986  1
  In  In42  1  0.69313007  0.52141310  0.47649052  1
  In  In43  1  0.48068407  0.33113867  0.16318430  1
  In  In44  1  0.01324439  0.33155081  0.02005273  1
  In  In45  1  0.81361175  0.67159518  0.15034548  1
  In  In46  1  0.18263695  0.66370999  0.16165755  1
  In  In47  1  0.47305654  0.52302335  0.30415275  1
  In  In48  1  0.15397262  0.14986653  0.00671637  1
  In  In49  1  0.17447845  0.35915914  0.16019933  1
  In  In50  1  0.84903955  0.50417179  0.67487156  1
  In  In51  1  0.81447685  -0.01401382  0.87077260  1
  In  In52  1  0.50064452  0.34967536  0.52155522  1
  In  In53  1  0.00123073  0.49962491  0.85017769  1
  In  In54  1  0.34261276  0.35352585  0.66801812  1
  In  In55  1  0.83554581  0.31522587  0.82073024  1
  In  In56  1  0.48800530  0.52421753  0.70177552  1
  In  In57  1  0.86051224  0.68917215  0.50733516  1
  In  In58  1  0.65628349  0.16300700  0.82408172  1
  In  In59  1  0.31355384  0.78907301  0.87042676  1
  In  In60  1  0.49214824  0.14418640  0.02276837  1
  In  In61  1  -0.00452843  0.67319949  0.00190257  1
  In  In62  1  -0.01528544  -0.00957247  0.34168803  1
  In  In63  1  0.66252091  0.67825640  0.30768522  1
  In  In64  1  0.03073380  0.66432199  0.37314880  1
  In  In65  1  0.81781617  0.81669596  0.70864071  1
  In  In66  1  0.32925536  0.53199225  0.84627079  1
  In  In67  1  0.69269892  0.00261674  0.65478776  1
  In  In68  1  0.02810586  0.34262572  0.35006046  1
  In  In69  1  0.00159022  0.17023308  0.18224661  1
  In  In70  1  0.49948772  -0.01686544  0.83669880  1
  In  In71  1  0.83039282  0.32348891  0.17277720  1
  Te  Te72  1  0.08095559  0.06469794  0.10618330  1
  Te  Te73  1  0.07538866  0.09675164  0.39897701  1
  Te  Te74  1  0.09079463  0.09478321  0.73985987  1
  Te  Te75  1  0.09001844  0.44269547  0.07627938  1
  Te  Te76  1  0.08671700  0.44581905  0.44159154  1
  Te  Te77  1  0.05387662  0.41059754  0.74360418  1
  Te  Te78  1  0.08005711  0.75887790  0.09473921  1
  Te  Te79  1  0.10052412  0.74300783  0.47226552  1
  Te  Te80  1  0.10338378  0.73887054  0.74931787  1
  Te  Te81  1  0.39297597  0.04720051  0.07942117  1
  Te  Te82  1  0.40877442  0.07953325  0.40511715  1
  Te  Te83  1  0.42005152  0.08679830  0.75445022  1
  Te  Te84  1  0.40984619  0.42302552  0.06805336  1
  Te  Te85  1  0.42307497  0.41633348  0.40852678  1
  Te  Te86  1  0.41782036  0.41984620  0.78228068  1
  Te  Te87  1  0.35776732  0.81111963  0.12839493  1
  Te  Te88  1  0.42380052  0.75915557  0.41954756  1
  Te  Te89  1  0.42169939  0.75179692  0.74825215  1
  Te  Te90  1  0.70602959  0.07603582  0.07935791  1
  Te  Te91  1  0.71819115  0.04527333  0.40943707  1
  Te  Te92  1  0.76705895  0.08401064  0.75801544  1
  Te  Te93  1  0.74036707  0.41336796  0.08904558  1
  Te  Te94  1  0.74974326  0.40006836  0.40203741  1
  Te  Te95  1  0.75185342  0.42974854  0.76557826  1
  Te  Te96  1  0.77293772  0.77915967  0.04900855  1
  Te  Te97  1  0.74709808  0.74082392  0.41481602  1
  Te  Te98  1  0.73287604  0.71487407  0.77192097  1
  Te  Te99  1  0.10614034  0.25770397  0.24984534  1
  Te  Te100  1  0.10220791  0.27608956  0.54344979  1
  Te  Te101  1  0.08937150  0.25105865  0.91295284  1
  Te  Te102  1  0.07677816  0.58966368  0.25139433  1
  Te  Te103  1  0.07600788  0.58105293  0.52769909  1
  Te  Te104  1  0.09388494  0.59249762  0.92064487  1
  Te  Te105  1  0.07398088  0.88908901  0.27266758  1
  Te  Te106  1  0.07945604  0.93036062  0.57688520  1
  Te  Te107  1  0.10712062  0.89946922  0.93616877  1
  Te  Te108  1  0.41699062  0.23940321  0.26632386  1
  Te  Te109  1  0.39414069  0.25085197  0.56604544  1
  Te  Te110  1  0.44768933  0.24525849  0.91606263  1
  Te  Te111  1  0.43325059  0.61362335  0.19493368  1
  Te  Te112  1  0.40522537  0.57367825  0.58450660  1
  Te  Te113  1  0.42301315  0.60792255  0.93998481  1
  Te  Te114  1  0.44137660  0.88253638  0.24072765  1
  Te  Te115  1  0.41665618  0.92070402  0.59177983  1
  Te  Te116  1  0.40658605  0.90009747  0.92185307  1
  Te  Te117  1  0.73638142  0.22405390  0.24213911  1
  Te  Te118  1  0.76734871  0.23955671  0.58202807  1
  Te  Te119  1  0.75206979  0.23448997  0.91911844  1
  Te  Te120  1  0.74472505  0.56767574  0.24112419  1
  Te  Te121  1  0.76643628  0.59607415  0.58489908  1
  Te  Te122  1  0.75470275  0.61494868  0.89397934  1
  Te  Te123  1  0.75271326  0.90286969  0.23794188  1
  Te  Te124  1  0.76159741  0.88933535  0.59308578  1
  Te  Te125  1  0.73479560  0.88349814  0.93887397  1
  Te  Te126  1  0.25651806  0.24701447  0.07847019  1
  Te  Te127  1  0.22034046  0.28220246  0.44191192  1
  Te  Te128  1  0.24811068  0.25400461  0.74094207  1
  Te  Te129  1  0.27138422  0.61775139  0.05390745  1
  Te  Te130  1  0.26730147  0.59321594  0.40428836  1
  Te  Te131  1  0.22956903  0.56437827  0.74055525  1
  Te  Te132  1  0.27528669  0.93197705  0.08221985  1
  Te  Te133  1  0.25245335  0.91268748  0.40766699  1
  Te  Te134  1  0.26548648  0.90372144  0.76117513  1
  Te  Te135  1  0.58178534  0.24934117  0.08683077  1
  Te  Te136  1  0.57305533  0.24796404  0.42990389  1
  Te  Te137  1  0.59211041  0.27194293  0.73890579  1
  Te  Te138  1  0.58357161  0.60595113  0.10151222  1
  Te  Te139  1  0.57443516  0.58661773  0.40613506  1
  Te  Te140  1  0.60172088  0.61323869  0.73480122  1
  Te  Te141  1  0.56726849  0.92696931  0.08451223  1
  Te  Te142  1  0.61536407  0.92772372  0.39989490  1
  Te  Te143  1  0.61272766  0.91981706  0.75886554  1
  Te  Te144  1  0.91088805  0.23408832  0.07882179  1
  Te  Te145  1  0.91095457  0.24895926  0.39442569  1
  Te  Te146  1  0.92861326  0.24115070  0.73548490  1
  Te  Te147  1  0.90818612  0.57387135  0.08314588  1
  Te  Te148  1  0.92058808  0.56862169  0.43160493  1
  Te  Te149  1  0.92867858  0.59960670  0.76086273  1
  Te  Te150  1  0.92704185  0.92311895  0.05780069  1
  Te  Te151  1  0.90986294  0.91257072  0.44057289  1
  Te  Te152  1  0.92255045  0.92448926  0.76917306  1
  Te  Te153  1  0.23689480  0.08071815  0.26101260  1
  Te  Te154  1  0.24173291  0.10312816  0.57474506  1
  Te  Te155  1  0.25152435  0.07673610  0.91665140  1
  Te  Te156  1  0.27634960  0.44361995  0.23421547  1
  Te  Te157  1  0.23457221  0.44233830  0.61817140  1
  Te  Te158  1  0.23912129  0.43477175  0.92660536  1
  Te  Te159  1  0.24593956  0.76262721  0.25360511  1
  Te  Te160  1  0.22784334  0.72796878  0.56807327  1
  Te  Te161  1  0.21713596  0.70076595  0.94096073  1
  Te  Te162  1  0.59909988  0.04645109  0.18805577  1
  Te  Te163  1  0.57339021  0.08010006  0.59132502  1
  Te  Te164  1  0.58728338  0.07116669  0.92384796  1
  Te  Te165  1  0.57330133  0.42442477  0.23961198  1
  Te  Te166  1  0.59768561  0.44953121  0.58138611  1
  Te  Te167  1  0.59614148  0.43915097  0.90210701  1
  Te  Te168  1  0.56146332  0.77388486  0.25454863  1
  Te  Te169  1  0.60751165  0.76041857  0.57200306  1
  Te  Te170  1  0.58802696  0.78525188  0.92287664  1
  Te  Te171  1  0.90008400  0.06819088  0.23886159  1
  Te  Te172  1  0.90268428  0.07763181  0.56048217  1
  Te  Te173  1  0.92300712  0.06307033  0.93847858  1
  Te  Te174  1  0.94033136  0.40633623  0.23813494  1
  Te  Te175  1  0.93943206  0.40985431  0.60497170  1
  Te  Te176  1  0.90435353  0.40528176  0.93124550  1
  Te  Te177  1  0.91042900  0.72433398  0.25588033  1
  Te  Te178  1  0.93293946  0.76378221  0.61470999  1
  Te  Te179  1  0.91175236  0.74744861  0.90715999  1
