# generated using pymatgen
data_In2Te3
_symmetry_space_group_name_H-M   'P 1'
_cell_length_a   19.02305730
_cell_length_b   19.01471005
_cell_length_c   19.00662799
_cell_angle_alpha   90.01062593
_cell_angle_beta   90.02238176
_cell_angle_gamma   89.93666755
_symmetry_Int_Tables_number   1
_chemical_formula_structural   In2Te3
_chemical_formula_sum   'In72 Te108'
_cell_volume   6875.03307980
_cell_formula_units_Z   36
loop_
 _symmetry_equiv_pos_site_id
 _symmetry_equiv_pos_as_xyz
  1  'x, y, z'
loop_
 _atom_site_type_symbol
 _atom_site_label
 _atom_site_symmetry_multiplicity
 _atom_site_fract_x
 _atom_site_fract_y
 _atom_site_fract_z
 _atom_site_occupancy
  In  In0  1  0.81801628  0.81849820  0.65247417  1
  In  In1  1  0.84669232  0.84166525  0.32201470  1
  In  In2  1  0.68789075  0.30521194  0.00059608  1
  In  In3  1  0.30384218  0.36200677  -0.00678311  1
  In  In4  1  0.33037758  0.82910854  0.83550860  1
  In  In5  1  0.00400606  0.82131804  0.14684177  1
  In  In6  1  0.19531455  0.00424416  0.50900768  1
  In  In7  1  0.67564512  0.65209069  0.00803119  1
  In  In8  1  0.84296351  0.80081428  -0.00580468  1
  In  In9  1  0.49462154  0.67407807  0.48952488  1
  In  In10  1  0.01533269  0.52019742  0.16955997  1
  In  In11  1  0.17156353  -0.00952266  0.82848764  1
  In  In12  1  -0.00580320  0.18490494  0.85150395  1
  In  In13  1  0.68585455  -0.00238374  0.33908287  1
  In  In14  1  0.16115278  0.66970344  0.81201801  1
  In  In15  1  0.48668133  0.83875068  0.66222568  1
  In  In16  1  -0.02693465  0.83874156  0.50650353  1
  In  In17  1  0.01259375  0.35202367  0.01339392  1
  In  In18  1  0.00451525  0.49597092  0.81588054  1
  In  In19  1  0.49830266  0.49825963  0.65862376  1
  In  In20  1  0.66711178  0.32468267  0.33689799  1
  In  In21  1  0.83660368  0.65398211  0.49537549  1
  In  In22  1  0.68141191  0.50595841  0.85043076  1
  In  In23  1  0.34049372  0.17937527  0.15348635  1
  In  In24  1  0.15219727  0.00334890  0.15140798  1
  In  In25  1  0.83277399  0.01686495  0.83090637  1
  In  In26  1  0.32490149  0.01582938  0.01613534  1
  In  In27  1  0.17260240  0.18313108  0.64492457  1
  In  In28  1  0.01199475  0.18299726  0.48255182  1
  In  In29  1  0.20162393  0.68073496  0.55841690  1
  In  In30  1  0.30274670  0.63907365  0.00627899  1
  In  In31  1  0.32403817  0.33575039  0.35506103  1
  In  In32  1  0.85809363  0.35492812  0.52600644  1
  In  In33  1  0.48916387  -0.01397331  0.50552959  1
  In  In34  1  0.83577372  0.49773673  0.34058260  1
  In  In35  1  0.49244609  0.15891947  0.35498160  1
  In  In36  1  0.66779713  0.50242659  0.18303175  1
  In  In37  1  0.50472365  0.17941750  -0.00343914  1
  In  In38  1  0.67747706  0.15098141  0.17016051  1
  In  In39  1  0.83547296  0.00116741  0.17080305  1
  In  In40  1  0.17271090  0.18827065  0.33975509  1
  In  In41  1  0.49636421  0.82628401  0.34279696  1
  In  In42  1  0.81347161  -0.00649341  0.49930114  1
  In  In43  1  0.48728029  0.51527172  0.33333251  1
  In  In44  1  0.33414804  -0.01074420  0.32613747  1
  In  In45  1  0.15935101  0.51336266  0.67290356  1
  In  In46  1  0.34217761  0.33179030  0.64640897  1
  In  In47  1  0.66578539  0.68824371  0.34581041  1
  In  In48  1  0.33003539  0.81780218  0.17091885  1
  In  In49  1  0.02903464  0.64899124  -0.00027976  1
  In  In50  1  0.03335605  0.35648637  0.35801747  1
  In  In51  1  0.65260691  0.17980183  0.81853878  1
  In  In52  1  0.15303947  0.17266603  0.01591194  1
  In  In53  1  0.65614437  0.82948443  0.79800826  1
  In  In54  1  0.67080740  -0.01271811  -0.00834523  1
  In  In55  1  0.50868690  0.48265240  0.00303783  1
  In  In56  1  0.48335285  0.84998749  0.00619847  1
  In  In57  1  0.85024419  0.35195402  0.82893137  1
  In  In58  1  0.83860257  0.16207014  0.68560772  1
  In  In59  1  0.00621595  0.00486876  0.66594513  1
  In  In60  1  0.00843171  0.65268222  0.32449521  1
  In  In61  1  0.01991439  0.84216328  0.83795491  1
  In  In62  1  0.32558215  0.51709472  0.48501604  1
  In  In63  1  0.33373108  0.48356580  0.18717317  1
  In  In64  1  0.83912014  0.34385497  0.13805532  1
  In  In65  1  0.15482138  0.82705055  0.30283416  1
  In  In66  1  0.47217277  0.32883085  0.83026718  1
  In  In67  1  0.65550623  0.32932243  0.66421516  1
  In  In68  1  0.32578454  0.12248727  0.76389615  1
  In  In69  1  0.49313771  0.66530139  0.87273930  1
  In  In70  1  0.66143243  0.13570018  0.50891661  1
  In  In71  1  0.66615161  0.64947109  0.65440648  1
  Te  Te72  1  0.05802724  0.10363465  0.10239747  1
  Te  Te73  1  0.09948155  0.07899694  0.41561014  1
  Te  Te74  1  0.08587381  0.10179865  0.74969565  1
  Te  Te75  1  0.10928044  0.43484721  0.09096428  1
  Te  Te76  1  0.11945623  0.38957247  0.47149883  1
  Te  Te77  1  0.08923763  0.40352526  0.74000397  1
  Te  Te78  1  0.10804622  0.72759563  0.09906602  1
  Te  Te79  1  0.06411608  0.76471477  0.40887008  1
  Te  Te80  1  0.08693731  0.76758945  0.73212578  1
  Te  Te81  1  0.43763213  0.08167494  0.09212937  1
  Te  Te82  1  0.39137621  0.07849951  0.43341028  1
  Te  Te83  1  0.44269422  0.05384164  0.71385793  1
  Te  Te84  1  0.41793428  0.39890124  0.08706634  1
  Te  Te85  1  0.42649358  0.41707235  0.43098886  1
  Te  Te86  1  0.39823641  0.43158311  0.75038017  1
  Te  Te87  1  0.40646241  0.73612515  0.06825584  1
  Te  Te88  1  0.39486084  0.73253311  0.39659224  1
  Te  Te89  1  0.42413627  0.73710514  0.76080085  1
  Te  Te90  1  0.76130797  0.08499561  0.06360963  1
  Te  Te91  1  0.77041957  0.11084998  0.39769150  1
  Te  Te92  1  0.72737441  0.07428123  0.73776981  1
  Te  Te93  1  0.73866306  0.43162406  0.06753316  1
  Te  Te94  1  0.75004399  0.41099004  0.42874981  1
  Te  Te95  1  0.74703653  0.42185461  0.74252757  1
  Te  Te96  1  0.74551723  0.75085571  0.08917834  1
  Te  Te97  1  0.76500639  0.76948714  0.42716147  1
  Te  Te98  1  0.75464372  0.72397994  0.75265982  1
  Te  Te99  1  0.07756174  0.26041731  0.25786390  1
  Te  Te100  1  0.07995916  0.27900209  0.57429466  1
  Te  Te101  1  0.09827693  0.27247803  0.91509314  1
  Te  Te102  1  0.10660260  0.54984537  0.28340470  1
  Te  Te103  1  0.08936764  0.59048151  0.56921701  1
  Te  Te104  1  0.11496177  0.55326515  0.91348141  1
  Te  Te105  1  0.05895111  0.92676955  0.24189438  1
  Te  Te106  1  0.08538771  0.91807755  0.57252821  1
  Te  Te107  1  0.08798230  0.93053471  0.93195073  1
  Te  Te108  1  0.41470424  0.25126860  0.26349619  1
  Te  Te109  1  0.37939487  0.23334567  0.54674812  1
  Te  Te110  1  0.39066626  0.24900123  0.92728975  1
  Te  Te111  1  0.40557792  0.59699408  0.24573950  1
  Te  Te112  1  0.40914532  0.59570521  0.58636764  1
  Te  Te113  1  0.40307135  0.55684102  0.92392904  1
  Te  Te114  1  0.42650241  0.91452295  0.23602659  1
  Te  Te115  1  0.39283668  0.88173473  0.55362171  1
  Te  Te116  1  0.40410715  0.93762969  0.91227994  1
  Te  Te117  1  0.75957503  0.25898716  0.23744106  1
  Te  Te118  1  0.75429309  0.24129939  0.58405943  1
  Te  Te119  1  0.77084705  0.23815429  0.89412480  1
  Te  Te120  1  0.75630008  0.59679952  0.25947926  1
  Te  Te121  1  0.75292180  0.56272953  0.57531816  1
  Te  Te122  1  0.77352427  0.59757947  0.91404991  1
  Te  Te123  1  0.73908994  0.90242057  0.23508777  1
  Te  Te124  1  0.73250285  0.92330116  0.59666377  1
  Te  Te125  1  0.76008936  0.89921091  0.89586110  1
  Te  Te126  1  0.23547090  0.26982973  0.09858996  1
  Te  Te127  1  0.25932066  0.24011055  0.45279716  1
  Te  Te128  1  0.25758426  0.25592120  0.74890701  1
  Te  Te129  1  0.23142989  0.54034505  0.09176205  1
  Te  Te130  1  0.25841111  0.63651481  0.42789757  1
  Te  Te131  1  0.26268315  0.58896621  0.74454883  1
  Te  Te132  1  0.24346168  0.90719820  0.08010380  1
  Te  Te133  1  0.24172753  0.90060207  0.40356733  1
  Te  Te134  1  0.24266576  0.89771447  0.73588651  1
  Te  Te135  1  0.58711261  0.25307049  0.09925069  1
  Te  Te136  1  0.58393815  0.24563704  0.43748302  1
  Te  Te137  1  0.54758748  0.24497519  0.73024063  1
  Te  Te138  1  0.57226208  0.58283130  0.09534964  1
  Te  Te139  1  0.59228107  0.57986213  0.42186105  1
  Te  Te140  1  0.57627329  0.58185243  0.76941002  1
  Te  Te141  1  0.57994767  0.92446864  0.08596267  1
  Te  Te142  1  0.59253432  0.91317580  0.42336582  1
  Te  Te143  1  0.55341745  0.92848485  0.75956679  1
  Te  Te144  1  0.92173446  0.24865332  0.06553017  1
  Te  Te145  1  0.91577373  0.27541201  0.41077047  1
  Te  Te146  1  0.93470976  0.26585615  0.73639283  1
  Te  Te147  1  0.92355553  0.59496086  0.08465802  1
  Te  Te148  1  0.93902162  0.56412565  0.42753583  1
  Te  Te149  1  0.90639876  0.55299055  0.72436150  1
  Te  Te150  1  0.91149398  0.91223724  0.06982405  1
  Te  Te151  1  0.92202940  0.94271657  0.40729658  1
  Te  Te152  1  0.90835178  0.91490374  0.73697437  1
  Te  Te153  1  0.25229919  0.08585509  0.24139524  1
  Te  Te154  1  0.26872796  0.06888835  0.62375222  1
  Te  Te155  1  0.24613503  0.09494057  0.91338985  1
  Te  Te156  1  0.23565820  0.43156430  0.28655057  1
  Te  Te157  1  0.24440984  0.41958323  0.56829382  1
  Te  Te158  1  0.23248357  0.45286477  0.90654662  1
  Te  Te159  1  0.22482803  0.72616199  0.22069874  1
  Te  Te160  1  0.27613663  0.79498359  0.61033410  1
  Te  Te161  1  0.23678216  0.74599130  0.92020316  1
  Te  Te162  1  0.58216846  0.07822735  0.26308081  1
  Te  Te163  1  0.55371522  0.08468850  0.59718303  1
  Te  Te164  1  0.58102608  0.08344119  0.90975002  1
  Te  Te165  1  0.57361855  0.41131754  0.25574496  1
  Te  Te166  1  0.57496874  0.40983034  0.57307583  1
  Te  Te167  1  0.58949189  0.38818424  0.90662903  1
  Te  Te168  1  0.57576360  0.74783545  0.24890955  1
  Te  Te169  1  0.58651238  0.75347515  0.58106627  1
  Te  Te170  1  0.59280244  0.76654776  0.92405719  1
  Te  Te171  1  0.87449091  0.08022759  0.28590030  1
  Te  Te172  1  0.91884867  0.09253047  0.57474419  1
  Te  Te173  1  0.94298619  0.06354495  0.91383282  1
  Te  Te174  1  0.91930476  0.41835455  0.24304699  1
  Te  Te175  1  0.91832473  0.46315045  0.60474020  1
  Te  Te176  1  0.91807781  0.43724042  0.93081466  1
  Te  Te177  1  0.91674793  0.73782471  0.23823092  1
  Te  Te178  1  0.92482688  0.72799843  0.59654099  1
  Te  Te179  1  0.94191138  0.73116711  0.90322529  1
