# generated using pymatgen
data_In2Te3
_symmetry_space_group_name_H-M   'P 1'
_cell_length_a   18.89561032
_cell_length_b   18.90445852
_cell_length_c   18.89877154
_cell_angle_alpha   89.92595589
_cell_angle_beta   89.97350424
_cell_angle_gamma   89.85257767
_symmetry_Int_Tables_number   1
_chemical_formula_structural   In2Te3
_chemical_formula_sum   'In72 Te108'
_cell_volume   6750.82570554
_cell_formula_units_Z   36
loop_
 _symmetry_equiv_pos_site_id
 _symmetry_equiv_pos_as_xyz
  1  'x, y, z'
loop_
 _atom_site_type_symbol
 _atom_site_label
 _atom_site_symmetry_multiplicity
 _atom_site_fract_x
 _atom_site_fract_y
 _atom_site_fract_z
 _atom_site_occupancy
  In  In0  1  0.18793880  0.37596118  0.52585435  1
  In  In1  1  0.82634358  0.32075056  0.51422255  1
  In  In2  1  0.33032783  0.49916836  0.82568964  1
  In  In3  1  0.82450639  0.19170102  0.68364105  1
  In  In4  1  0.17089266  0.16743955  0.68095170  1
  In  In5  1  0.04307134  0.50328975  0.49483218  1
  In  In6  1  0.64395248  0.34641471  0.34026313  1
  In  In7  1  0.45321896  0.82080941  0.34190734  1
  In  In8  1  0.48621126  0.65699700  0.83522825  1
  In  In9  1  0.51060640  0.20921180  0.70647233  1
  In  In10  1  0.86173971  0.82499710  0.03302303  1
  In  In11  1  0.34923543  0.17198917  0.52476220  1
  In  In12  1  0.00412538  0.67013474  0.01883159  1
  In  In13  1  0.31360746  -0.00188982  0.32219234  1
  In  In14  1  0.03514520  0.32255307  0.35295116  1
  In  In15  1  0.48049048  0.85071399  0.00201391  1
  In  In16  1  -0.00525791  0.34849369  0.68243625  1
  In  In17  1  0.66421645  -0.00420894  0.65367939  1
  In  In18  1  0.80485056  0.18229364  -0.01940207  1
  In  In19  1  0.81853988  0.47550784  0.69289100  1
  In  In20  1  0.49435299  0.48123614  0.68407006  1
  In  In21  1  0.32326624  0.78847930  0.53507151  1
  In  In22  1  0.00945838  0.00557422  0.64709671  1
  In  In23  1  -0.00437393  0.83639259  0.49950702  1
  In  In24  1  0.31029794  0.86985430  0.14602644  1
  In  In25  1  0.86186008  0.49956385  0.34865495  1
  In  In26  1  0.00677700  0.16158919  0.49977925  1
  In  In27  1  0.17317357  -0.00961866  0.82840078  1
  In  In28  1  0.34096133  0.34615686  0.32416066  1
  In  In29  1  0.66336990  0.02952592  0.29728191  1
  In  In30  1  0.07040418  0.64330821  0.33426162  1
  In  In31  1  0.64491485  0.51311944  0.14990402  1
  In  In32  1  -0.00619116  0.83089758  0.85109095  1
  In  In33  1  0.64733674  0.62810947  0.01295861  1
  In  In34  1  0.33985452  -0.01802828  0.67718808  1
  In  In35  1  0.83861203  0.34098224  0.13088154  1
  In  In36  1  0.64258978  0.19229916  0.12684242  1
  In  In37  1  0.48744192  0.64225281  0.15150294  1
  In  In38  1  0.36054367  0.34589147  0.01726424  1
  In  In39  1  0.82025199  0.01205809  0.83063613  1
  In  In40  1  0.65339535  0.62876747  0.67559391  1
  In  In41  1  0.82169732  0.47216845  -0.03280652  1
  In  In42  1  0.66164684  0.83296358  0.48574621  1
  In  In43  1  0.65794613  0.83042884  0.82739396  1
  In  In44  1  0.48373364  0.81839935  0.69887741  1
  In  In45  1  0.66095295  0.18235263  0.48408297  1
  In  In46  1  0.18035528  0.67486533  0.86315430  1
  In  In47  1  0.00207604  0.30847686  -0.00161297  1
  In  In48  1  0.85927863  0.66245628  0.18874137  1
  In  In49  1  0.49529892  0.65192095  0.52639496  1
  In  In50  1  0.85330236  -0.01598229  0.16533793  1
  In  In51  1  0.14852368  0.33105645  0.83318960  1
  In  In52  1  0.03469516  0.85703049  0.14311962  1
  In  In53  1  0.20161681  0.18639062  0.31623342  1
  In  In54  1  0.01660944  0.51240086  0.18787326  1
  In  In55  1  0.19024999  0.51510501  0.02435007  1
  In  In56  1  0.66597761  0.68437728  0.32252830  1
  In  In57  1  0.00150064  0.63328121  0.67386502  1
  In  In58  1  0.66366542  0.01040236  -0.01864017  1
  In  In59  1  0.46254773  0.03380025  0.90045963  1
  In  In60  1  0.80590462  0.16080660  0.30824405  1
  In  In61  1  0.36502981  0.16593278  0.13560007  1
  In  In62  1  0.49625229  0.00802490  0.48250057  1
  In  In63  1  0.82334658  0.81669042  0.67269570  1
  In  In64  1  0.17614718  0.84029060  0.32362198  1
  In  In65  1  0.66096882  0.49476518  0.54672897  1
  In  In66  1  0.31364822  0.18037096  0.84273997  1
  In  In67  1  0.65369952  0.83945809  0.13728806  1
  In  In68  1  0.18824395  0.32907248  0.16692840  1
  In  In69  1  0.14976678  -0.01510140  0.48838558  1
  In  In70  1  0.85702368  0.84324931  0.34453891  1
  In  In71  1  0.48946783  0.51186010  0.32953388  1
  Te  Te72  1  0.09771061  -0.00811210  0.11082687  1
  Te  Te73  1  0.10278773  0.09843008  0.40078319  1
  Te  Te74  1  0.06887297  0.08761508  0.75849176  1
  Te  Te75  1  0.07928514  0.41452049  0.08839538  1
  Te  Te76  1  0.12958686  0.43936664  0.38218471  1
  Te  Te77  1  0.10364378  0.43441165  0.73440550  1
  Te  Te78  1  0.11463656  0.75015362  0.07596447  1
  Te  Te79  1  0.10610706  0.75857951  0.42990941  1
  Te  Te80  1  0.07320489  0.73481073  0.76665961  1
  Te  Te81  1  0.42441061  0.06365697  0.04095466  1
  Te  Te82  1  0.40175201  0.09468491  0.40287054  1
  Te  Te83  1  0.40900737  0.09744244  0.74470736  1
  Te  Te84  1  0.43460279  0.42937739  0.11375002  1
  Te  Te85  1  0.39378414  0.44488540  0.42393554  1
  Te  Te86  1  0.42920977  0.39524422  0.78632871  1
  Te  Te87  1  0.40267130  0.75258651  0.08485244  1
  Te  Te88  1  0.39447469  0.70874750  0.42534968  1
  Te  Te89  1  0.37847462  0.72709053  0.75365486  1
  Te  Te90  1  0.74495416  0.08187909  0.09295252  1
  Te  Te91  1  0.74492055  0.07395265  0.41781322  1
  Te  Te92  1  0.72393675  0.09853417  0.75202827  1
  Te  Te93  1  0.71506209  0.40300837  0.06179742  1
  Te  Te94  1  0.74733301  0.42292446  0.42379705  1
  Te  Te95  1  0.72843006  0.38279994  0.76465375  1
  Te  Te96  1  0.75110632  0.72944578  0.09320133  1
  Te  Te97  1  0.76655474  0.74320449  0.42007072  1
  Te  Te98  1  0.74278380  0.72482477  0.76127938  1
  Te  Te99  1  0.08344100  0.24125098  0.23536175  1
  Te  Te100  1  0.08422071  0.25946737  0.58477967  1
  Te  Te101  1  0.09762703  0.22604264  0.92213495  1
  Te  Te102  1  0.11388491  0.62439870  0.19106568  1
  Te  Te103  1  0.11841551  0.60073238  0.58022604  1
  Te  Te104  1  0.08389727  0.57366173  0.93322561  1
  Te  Te105  1  0.08485875  0.93961878  0.26118170  1
  Te  Te106  1  0.09942629  0.89277315  0.60015726  1
  Te  Te107  1  0.10642805  0.89418465  0.92398891  1
  Te  Te108  1  0.41836020  0.24486624  0.24832702  1
  Te  Te109  1  0.43378810  0.27129954  0.59491294  1
  Te  Te110  1  0.42210128  0.24802657  0.92138493  1
  Te  Te111  1  0.39013423  0.58366005  0.24560743  1
  Te  Te112  1  0.39950552  0.57768987  0.61442089  1
  Te  Te113  1  0.38799951  0.58934829  0.93312182  1
  Te  Te114  1  0.42154922  0.92864535  0.24057127  1
  Te  Te115  1  0.43458033  0.90318906  0.57455979  1
  Te  Te116  1  0.39587747  0.89973863  0.88897809  1
  Te  Te117  1  0.73693681  0.27414797  0.23330769  1
  Te  Te118  1  0.71709494  0.26418113  0.60064187  1
  Te  Te119  1  0.78591900  0.29040132  0.87969437  1
  Te  Te120  1  0.74958549  0.56848135  0.25498317  1
  Te  Te121  1  0.77027847  0.58634737  0.58804423  1
  Te  Te122  1  0.73478813  0.57417954  0.90782599  1
  Te  Te123  1  0.74545569  0.89776680  0.24586506  1
  Te  Te124  1  0.76088876  0.91264211  0.57131607  1
  Te  Te125  1  0.75344290  0.89889220  0.92436916  1
  Te  Te126  1  0.25296610  0.24138893  0.06418807  1
  Te  Te127  1  0.25244881  0.26017225  0.44041124  1
  Te  Te128  1  0.25864347  0.27505953  0.73623835  1
  Te  Te129  1  0.30592341  0.59752749  0.06236892  1
  Te  Te130  1  0.18784943  0.58270562  0.39863606  1
  Te  Te131  1  0.21171818  0.56415471  0.76498138  1
  Te  Te132  1  0.22571667  0.93835114  0.04448533  1
  Te  Te133  1  0.27288109  0.90770791  0.44081747  1
  Te  Te134  1  0.23150219  0.89796373  0.72701015  1
  Te  Te135  1  0.54359382  0.26498505  0.03630093  1
  Te  Te136  1  0.55576638  0.25638886  0.41382977  1
  Te  Te137  1  0.58974676  0.30857405  0.78554940  1
  Te  Te138  1  0.52783103  0.53038684  0.04171706  1
  Te  Te139  1  0.59230698  0.59294881  0.42090423  1
  Te  Te140  1  0.58505705  0.55123095  0.78740839  1
  Te  Te141  1  0.56623340  0.94980955  0.08452954  1
  Te  Te142  1  0.58164055  0.92103313  0.39032806  1
  Te  Te143  1  0.57066519  0.93175805  0.75627892  1
  Te  Te144  1  0.91472374  0.21932831  0.08693762  1
  Te  Te145  1  0.90777063  0.24571531  0.40926143  1
  Te  Te146  1  0.91985086  0.25879666  0.77573813  1
  Te  Te147  1  0.90559069  0.56191216  0.08439419  1
  Te  Te148  1  0.94653480  0.59882546  0.41796757  1
  Te  Te149  1  0.91311844  0.55934308  0.76627573  1
  Te  Te150  1  0.92399044  0.95961487  0.03603000  1
  Te  Te151  1  0.92665738  0.94300232  0.42623259  1
  Te  Te152  1  0.91371291  0.91965272  0.74356330  1
  Te  Te153  1  0.25590364  0.08728904  0.21581238  1
  Te  Te154  1  0.24206320  0.07393850  0.58256045  1
  Te  Te155  1  0.25380041  0.07072499  0.92444323  1
  Te  Te156  1  0.26380105  0.43492971  0.23391679  1
  Te  Te157  1  0.30199859  0.45804791  0.56767054  1
  Te  Te158  1  0.24510361  0.40855044  0.92910040  1
  Te  Te159  1  0.27910905  0.76777526  0.24957551  1
  Te  Te160  1  0.24517945  0.68982425  0.60781744  1
  Te  Te161  1  0.29819427  0.76549780  0.88206699  1
  Te  Te162  1  0.56909300  0.12458700  0.23786813  1
  Te  Te163  1  0.57166022  0.09416278  0.58199885  1
  Te  Te164  1  0.59134860  0.10648243  0.89902083  1
  Te  Te165  1  0.55795776  0.41224865  0.23156488  1
  Te  Te166  1  0.54990166  0.40371679  0.56856819  1
  Te  Te167  1  0.61213386  0.36096682  0.94662884  1
  Te  Te168  1  0.56354492  0.75424428  0.23484567  1
  Te  Te169  1  0.59212094  0.75562555  0.60044359  1
  Te  Te170  1  0.57668935  0.74848977  0.92896589  1
  Te  Te171  1  0.91587840  0.07568072  0.26135875  1
  Te  Te172  1  0.90145849  0.09718263  0.58911084  1
  Te  Te173  1  0.90729808  0.09364793  0.91498381  1
  Te  Te174  1  0.92283652  0.40139439  0.25045360  1
  Te  Te175  1  0.92662748  0.42208193  0.56586509  1
  Te  Te176  1  0.93705768  0.40530770  0.90470745  1
  Te  Te177  1  0.94616911  0.77146442  0.24409502  1
  Te  Te178  1  0.92251952  0.73871606  0.58948265  1
  Te  Te179  1  0.90308717  0.73133197  0.92197575  1
