# generated using pymatgen
data_In2Te3
_symmetry_space_group_name_H-M   'P 1'
_cell_length_a   18.92802334
_cell_length_b   18.95184239
_cell_length_c   18.93093750
_cell_angle_alpha   90.00674592
_cell_angle_beta   89.97947994
_cell_angle_gamma   90.02390430
_symmetry_Int_Tables_number   1
_chemical_formula_structural   In2Te3
_chemical_formula_sum   'In72 Te108'
_cell_volume   6790.92215024
_cell_formula_units_Z   36
loop_
 _symmetry_equiv_pos_site_id
 _symmetry_equiv_pos_as_xyz
  1  'x, y, z'
loop_
 _atom_site_type_symbol
 _atom_site_label
 _atom_site_symmetry_multiplicity
 _atom_site_fract_x
 _atom_site_fract_y
 _atom_site_fract_z
 _atom_site_occupancy
  In  In0  1  0.31741263  0.15354827  0.85129045  1
  In  In1  1  0.66089675  0.16211878  0.17201263  1
  In  In2  1  0.49356352  0.67880506  0.82492849  1
  In  In3  1  0.01275781  0.82407864  0.16313476  1
  In  In4  1  0.86366285  0.52211282  -0.01049603  1
  In  In5  1  0.29253472  0.00462037  0.32041193  1
  In  In6  1  0.49549635  0.81439988  0.66372477  1
  In  In7  1  0.32633373  0.33682213  0.32595315  1
  In  In8  1  0.04706786  0.13200566  0.82497672  1
  In  In9  1  0.00009047  0.15668574  0.52704503  1
  In  In10  1  0.67323288  0.36228006  0.00205676  1
  In  In11  1  -0.00666110  0.30676090  0.00112403  1
  In  In12  1  0.47492828  0.32880722  0.17911871  1
  In  In13  1  0.48516980  -0.00084979  0.14638049  1
  In  In14  1  0.67183999  0.00007312  0.31992182  1
  In  In15  1  0.31369508  0.33424170  0.00292153  1
  In  In16  1  0.65557660  0.66220124  0.64707020  1
  In  In17  1  0.33795470  0.52081527  0.50238899  1
  In  In18  1  0.33251606  -0.00361481  0.67641920  1
  In  In19  1  0.01222133  0.50519663  0.16968395  1
  In  In20  1  0.33010783  0.49881773  0.82662889  1
  In  In21  1  0.16455423  0.83260595  0.64438762  1
  In  In22  1  0.11305232  0.34285062  0.48767655  1
  In  In23  1  0.02266074  0.85939906  0.85133208  1
  In  In24  1  0.33626602  0.32889602  0.66316162  1
  In  In25  1  0.83347572  0.16078457  0.66322068  1
  In  In26  1  0.82240491  0.66080490  0.47700439  1
  In  In27  1  0.69831691  0.70589275  0.03686302  1
  In  In28  1  0.16745399  0.33245042  0.16446044  1
  In  In29  1  0.50398182  0.01082899  0.50094487  1
  In  In30  1  0.66421194  0.18363742  0.50759660  1
  In  In31  1  0.68281224  0.85181149  0.83657910  1
  In  In32  1  0.65404871  0.18783146  0.80746563  1
  In  In33  1  0.50690409  0.32861173  0.50186882  1
  In  In34  1  0.65511396  0.52274103  0.17640690  1
  In  In35  1  0.15310532  0.00418745  0.16006296  1
  In  In36  1  0.65987172  0.69338086  0.33381907  1
  In  In37  1  0.17191012  0.65550049  0.84151202  1
  In  In38  1  0.51665985  0.50822970  0.00830197  1
  In  In39  1  0.31323447  0.17803511  0.47696500  1
  In  In40  1  -0.00515856  -0.01619351  0.37804135  1
  In  In41  1  0.85635494  0.49573369  0.31159042  1
  In  In42  1  0.03321683  0.66902753  0.01119119  1
  In  In43  1  0.87589407  0.34435160  0.14931415  1
  In  In44  1  0.31512354  -0.01939005  0.01193187  1
  In  In45  1  0.17036660  -0.01652944  0.50541954  1
  In  In46  1  0.85439059  0.83554567  0.68801866  1
  In  In47  1  0.49639242  0.66488536  0.48815499  1
  In  In48  1  -0.00373695  0.66491100  0.32650912  1
  In  In49  1  0.01354713  0.63280714  0.67098481  1
  In  In50  1  -0.02387085  0.84337546  0.50580050  1
  In  In51  1  0.88469689  0.35275607  0.52190285  1
  In  In52  1  0.17611163  0.47959907  0.66639948  1
  In  In53  1  0.87007448  0.18437836  0.00293372  1
  In  In54  1  0.46465577  0.53586690  0.30585386  1
  In  In55  1  0.83388990  0.31523252  0.81605710  1
  In  In56  1  0.68706914  0.00296150  0.66609861  1
  In  In57  1  0.66563454  0.32819463  0.35179277  1
  In  In58  1  0.84906623  -0.02869427  0.17407032  1
  In  In59  1  0.65990040  0.48204891  0.50856158  1
  In  In60  1  0.30496784  0.66811574  0.01716987  1
  In  In61  1  0.18853016  0.80049962  0.30804156  1
  In  In62  1  0.85581866  0.66461632  0.83678963  1
  In  In63  1  0.68113053  0.49849680  0.82452025  1
  In  In64  1  0.47939519  0.83018165  -0.00380345  1
  In  In65  1  0.82911442  0.17052872  0.32840860  1
  In  In66  1  0.48038104  0.82859234  0.33083317  1
  In  In67  1  0.69009904  -0.00982687  0.01431178  1
  In  In68  1  0.18526534  0.67238281  0.49094346  1
  In  In69  1  0.48171139  0.17916342  -0.01290038  1
  In  In70  1  0.49067882  0.00659648  0.85018839  1
  In  In71  1  0.17800517  0.34737254  0.83232555  1
  Te  Te72  1  0.05117303  0.04226547  0.05729972  1
  Te  Te73  1  0.09313090  0.08740731  0.42624166  1
  Te  Te74  1  0.09469921  0.02972400  0.72899987  1
  Te  Te75  1  0.07578964  0.41836228  0.06704058  1
  Te  Te76  1  0.04970136  0.44055648  0.39954686  1
  Te  Te77  1  0.07100285  0.40194157  0.73998198  1
  Te  Te78  1  0.11967666  0.77788824  0.06856799  1
  Te  Te79  1  0.07572757  0.76170998  0.42174774  1
  Te  Te80  1  0.07632509  0.75117101  0.74562100  1
  Te  Te81  1  0.39274081  0.09780833  0.07753942  1
  Te  Te82  1  0.39946623  0.07229762  0.41025785  1
  Te  Te83  1  0.42071340  0.09645528  0.75258842  1
  Te  Te84  1  0.41162980  0.42455793  0.08113412  1
  Te  Te85  1  0.43148909  0.42354268  0.41045979  1
  Te  Te86  1  0.41860015  0.42527265  0.73639060  1
  Te  Te87  1  0.39567902  0.75941637  0.09438283  1
  Te  Te88  1  0.39574195  0.73537157  0.40833635  1
  Te  Te89  1  0.39412281  0.75634491  0.75108315  1
  Te  Te90  1  0.77455711  0.09329346  0.09813935  1
  Te  Te91  1  0.74515112  0.08555533  0.42241620  1
  Te  Te92  1  0.75403423  0.08205884  0.77529784  1
  Te  Te93  1  0.76419935  0.44376739  0.09310324  1
  Te  Te94  1  0.77074543  0.41812525  0.41559301  1
  Te  Te95  1  0.75264705  0.40740296  0.73508016  1
  Te  Te96  1  0.78132263  0.78261669  0.12914734  1
  Te  Te97  1  0.75523665  0.77542975  0.41298845  1
  Te  Te98  1  0.74253481  0.73417347  0.75188983  1
  Te  Te99  1  0.06639458  0.25259847  0.23758782  1
  Te  Te100  1  0.08144030  0.25495851  0.60059128  1
  Te  Te101  1  0.10213533  0.24355767  0.91530958  1
  Te  Te102  1  0.09903052  0.60987261  0.23166269  1
  Te  Te103  1  0.10210233  0.56813295  0.56718749  1
  Te  Te104  1  0.07014687  0.57283973  0.90601874  1
  Te  Te105  1  0.08519662  0.90958141  0.27381740  1
  Te  Te106  1  0.05407592  0.93567689  0.60035616  1
  Te  Te107  1  0.10119416  0.94896324  0.94247732  1
  Te  Te108  1  0.39876547  0.23062071  0.25343801  1
  Te  Te109  1  0.41605557  0.23249558  0.57572092  1
  Te  Te110  1  0.40697020  0.27317075  0.89894477  1
  Te  Te111  1  0.37280193  0.58863493  0.20174429  1
  Te  Te112  1  0.43868289  0.57771749  0.59109593  1
  Te  Te113  1  0.41423882  0.59238205  0.92745513  1
  Te  Te114  1  0.39775473  0.92387035  0.24320731  1
  Te  Te115  1  0.41591428  0.91436049  0.57871693  1
  Te  Te116  1  0.39061527  0.90586520  0.89873646  1
  Te  Te117  1  0.75524491  0.27137860  0.23509268  1
  Te  Te118  1  0.76713782  0.26742420  0.57847414  1
  Te  Te119  1  0.74402221  0.24929744  0.93013691  1
  Te  Te120  1  0.75754295  0.59627391  0.25977966  1
  Te  Te121  1  0.75824594  0.57087369  0.58292604  1
  Te  Te122  1  0.73924806  0.59302077  0.93391586  1
  Te  Te123  1  0.72738402  0.89892914  0.22394686  1
  Te  Te124  1  0.75705859  0.89591865  0.59643449  1
  Te  Te125  1  0.77813133  0.90865890  0.93116265  1
  Te  Te126  1  0.23220672  0.23560235  0.07272740  1
  Te  Te127  1  0.21512567  0.26377938  0.40135307  1
  Te  Te128  1  0.24495074  0.24036721  0.74767584  1
  Te  Te129  1  0.22558855  0.60173113  0.12541945  1
  Te  Te130  1  0.25357045  0.57992570  0.39890366  1
  Te  Te131  1  0.25536909  0.59116027  0.73213991  1
  Te  Te132  1  0.23758667  0.89521392  0.10484688  1
  Te  Te133  1  0.25132398  0.89220090  0.41475203  1
  Te  Te134  1  0.21733236  0.93117832  0.74827139  1
  Te  Te135  1  0.57994863  0.25967589  0.07936573  1
  Te  Te136  1  0.56437707  0.22775068  0.40080453  1
  Te  Te137  1  0.59195326  0.28443618  0.72340372  1
  Te  Te138  1  0.57939528  0.61998653  0.09020408  1
  Te  Te139  1  0.59121062  0.56976449  0.40578875  1
  Te  Te140  1  0.57613365  0.57877523  0.74538879  1
  Te  Te141  1  0.58271316  0.90464233  0.08057057  1
  Te  Te142  1  0.58163628  0.91728646  0.41059208  1
  Te  Te143  1  0.57434020  0.92114833  0.75158233  1
  Te  Te144  1  0.96397967  0.21688110  0.12985027  1
  Te  Te145  1  0.92301999  0.24260579  0.42285226  1
  Te  Te146  1  0.93547393  0.22037886  0.75823420  1
  Te  Te147  1  0.92137671  0.60610125  0.09895411  1
  Te  Te148  1  0.93274832  0.56644564  0.42688613  1
  Te  Te149  1  0.91076674  0.56159784  0.74983570  1
  Te  Te150  1  0.94614648  0.92498126  0.07013715  1
  Te  Te151  1  0.87845116  0.89623473  0.40724567  1
  Te  Te152  1  0.91951665  0.93357496  0.77427275  1
  Te  Te153  1  0.21485462  0.10496840  0.24749112  1
  Te  Te154  1  0.25087237  0.08618623  0.58298542  1
  Te  Te155  1  0.22647365  0.05236988  0.91337527  1
  Te  Te156  1  0.24145245  0.42718886  0.24977022  1
  Te  Te157  1  0.25241787  0.39938789  0.55673322  1
  Te  Te158  1  0.23660846  0.44613602  0.93279146  1
  Te  Te159  1  0.29206750  0.71832856  0.23494570  1
  Te  Te160  1  0.26826110  0.74887664  0.58560036  1
  Te  Te161  1  0.23488877  0.75943420  0.92329169  1
  Te  Te162  1  0.56158623  0.08178180  0.25004776  1
  Te  Te163  1  0.58428964  0.09343999  0.60076596  1
  Te  Te164  1  0.58997063  0.08278487  0.93681337  1
  Te  Te165  1  0.58311452  0.41180830  0.25163276  1
  Te  Te166  1  0.59224849  0.39172083  0.60788062  1
  Te  Te167  1  0.57430538  0.41522344  0.90232132  1
  Te  Te168  1  0.56102641  0.74488253  0.24009856  1
  Te  Te169  1  0.59070621  0.76380993  0.55659361  1
  Te  Te170  1  0.59187229  0.75587319  0.91502175  1
  Te  Te171  1  0.92120189  0.06456662  0.26961459  1
  Te  Te172  1  0.89697108  0.06343182  0.57478987  1
  Te  Te173  1  0.92862224  0.09181522  0.90622429  1
  Te  Te174  1  0.96436755  0.39001366  0.27772223  1
  Te  Te175  1  0.96044537  0.41582918  0.62819098  1
  Te  Te176  1  0.91451036  0.40471922  0.91157167  1
  Te  Te177  1  0.90924496  0.75354299  0.24465595  1
  Te  Te178  1  0.91678765  0.72651915  0.58622908  1
  Te  Te179  1  0.93340051  0.75434842  0.92685535  1
