# generated using pymatgen
data_In2Te3
_symmetry_space_group_name_H-M   'P 1'
_cell_length_a   18.76742809
_cell_length_b   18.76821032
_cell_length_c   18.76329454
_cell_angle_alpha   90.02693786
_cell_angle_beta   90.03296838
_cell_angle_gamma   89.95376138
_symmetry_Int_Tables_number   1
_chemical_formula_structural   In2Te3
_chemical_formula_sum   'In72 Te108'
_cell_volume   6609.01072782
_cell_formula_units_Z   36
loop_
 _symmetry_equiv_pos_site_id
 _symmetry_equiv_pos_as_xyz
  1  'x, y, z'
loop_
 _atom_site_type_symbol
 _atom_site_label
 _atom_site_symmetry_multiplicity
 _atom_site_fract_x
 _atom_site_fract_y
 _atom_site_fract_z
 _atom_site_occupancy
  In  In0  1  0.35801602  0.67720413  0.68752504  1
  In  In1  1  0.33893777  0.00306622  -0.00601857  1
  In  In2  1  -0.01604115  -0.01836022  0.34773497  1
  In  In3  1  0.82348003  0.15180321  0.35194416  1
  In  In4  1  0.82314824  0.81589213  -0.00739733  1
  In  In5  1  -0.00063748  0.82364993  0.83826949  1
  In  In6  1  0.17366806  0.01476189  0.17565795  1
  In  In7  1  0.81976769  0.83013419  0.65519456  1
  In  In8  1  0.50436307  0.50906952  0.65254353  1
  In  In9  1  0.16115813  0.49285260  -0.00595126  1
  In  In10  1  0.32480123  0.34338987  0.01157524  1
  In  In11  1  0.36724609  0.00547856  0.35090126  1
  In  In12  1  0.17534915  0.16010715  0.65203296  1
  In  In13  1  0.64570425  0.34815539  0.65992868  1
  In  In14  1  0.16625996  0.35517665  0.83350211  1
  In  In15  1  0.18908278  0.31932603  0.17377768  1
  In  In16  1  0.03127043  0.32974161  0.67060391  1
  In  In17  1  0.35952406  0.14801902  0.18043954  1
  In  In18  1  0.37399798  0.66053881  -0.01944868  1
  In  In19  1  0.48871513  0.50780000  0.34106997  1
  In  In20  1  0.34493421  0.83888230  0.49971814  1
  In  In21  1  0.16286401  0.48927072  0.31376580  1
  In  In22  1  0.33192339  0.15286824  0.84296041  1
  In  In23  1  0.82217715  -0.01804799  0.84713871  1
  In  In24  1  0.81790472  0.14483132  0.02410493  1
  In  In25  1  0.48708078  0.15921567  0.00560230  1
  In  In26  1  0.00645555  -0.01242631  -0.01607771  1
  In  In27  1  0.34265120  0.66929617  0.33183486  1
  In  In28  1  0.16520173  0.68119555  0.51062842  1
  In  In29  1  0.32389467  -0.02100373  0.66291781  1
  In  In30  1  0.85094066  0.13950076  0.65434583  1
  In  In31  1  0.67211233  0.52350221  0.82280957  1
  In  In32  1  0.64274253  0.18555688  0.82890225  1
  In  In33  1  0.65150284  0.70419560  0.64995798  1
  In  In34  1  0.35845047  0.82158372  0.17985224  1
  In  In35  1  0.80188148  0.69025588  0.49626777  1
  In  In36  1  0.86610936  0.35403281  0.86325607  1
  In  In37  1  0.66677146  0.81942199  0.82887681  1
  In  In38  1  0.65167903  0.14420940  0.49016083  1
  In  In39  1  0.01952211  0.51595160  0.48866037  1
  In  In40  1  0.48025214  -0.01406560  0.81987723  1
  In  In41  1  -0.00563596  0.16871018  0.51372461  1
  In  In42  1  0.83153454  0.31608347  0.49671259  1
  In  In43  1  0.00139186  0.67817865  0.34571601  1
  In  In44  1  0.64757702  0.68461051  -0.00939670  1
  In  In45  1  0.84951288  0.50242128  0.67648824  1
  In  In46  1  0.64749270  0.50650821  0.49739135  1
  In  In47  1  0.00039181  0.66678138  0.66296372  1
  In  In48  1  0.83242527  0.36114192  0.18067507  1
  In  In49  1  -0.00606954  0.82124630  0.17392765  1
  In  In50  1  0.33582960  0.50076692  0.51898453  1
  In  In51  1  0.67320588  -0.01307119  0.64748020  1
  In  In52  1  0.01230173  0.00939359  0.64278523  1
  In  In53  1  0.16151549  0.68095002  0.16888483  1
  In  In54  1  0.52406291  0.35010732  0.81706015  1
  In  In55  1  0.17382570  -0.00086342  0.50311190  1
  In  In56  1  0.65144195  0.34799534  -0.01008748  1
  In  In57  1  0.80690049  -0.00021955  0.17362459  1
  In  In58  1  0.00225059  0.34892275  -0.01237355  1
  In  In59  1  0.17997886  0.80353895  0.00364359  1
  In  In60  1  0.32295518  0.50516352  0.17354277  1
  In  In61  1  0.67388903  0.31090818  0.33222777  1
  In  In62  1  0.02793316  0.16941332  0.81552265  1
  In  In63  1  0.62124878  0.12445445  0.21821147  1
  In  In64  1  0.66523443  0.52125407  0.15536238  1
  In  In65  1  0.49216317  0.32392609  0.17312687  1
  In  In66  1  0.01548245  0.18966850  0.17511003  1
  In  In67  1  0.84983523  0.65926022  0.15562310  1
  In  In68  1  0.63786223  0.85635252  0.19549579  1
  In  In69  1  0.35222684  0.31890596  0.63673789  1
  In  In70  1  0.18161842  0.65874871  0.81906133  1
  In  In71  1  0.83992572  0.50128219  0.29872317  1
  Te  Te72  1  0.07880530  0.08651463  0.07902965  1
  Te  Te73  1  0.07677877  0.08175096  0.41731596  1
  Te  Te74  1  0.11780974  0.05644833  0.75462156  1
  Te  Te75  1  0.08971015  0.41098812  0.10073587  1
  Te  Te76  1  0.10136118  0.41236670  0.42408104  1
  Te  Te77  1  0.06162624  0.43604311  0.76774639  1
  Te  Te78  1  0.05800163  0.73388770  0.06718489  1
  Te  Te79  1  0.08521669  0.77080654  0.42372947  1
  Te  Te80  1  0.09563844  0.76021894  0.73864441  1
  Te  Te81  1  0.44804820  0.04268030  0.10240369  1
  Te  Te82  1  0.43899767  0.10506308  0.43625985  1
  Te  Te83  1  0.41369706  0.09192303  0.73294133  1
  Te  Te84  1  0.42607543  0.42987206  0.08620008  1
  Te  Te85  1  0.40149393  0.41530985  0.41581226  1
  Te  Te86  1  0.41536015  0.42112636  0.73837986  1
  Te  Te87  1  0.44094929  0.75049925  0.07976765  1
  Te  Te88  1  0.43671149  0.75892942  0.40806352  1
  Te  Te89  1  0.45839999  0.74989539  0.76804085  1
  Te  Te90  1  0.70108338  0.06738060  0.08726503  1
  Te  Te91  1  0.71652305  0.05418818  0.38769725  1
  Te  Te92  1  0.74228479  0.08148202  0.75845761  1
  Te  Te93  1  0.75431488  0.43318511  0.06677868  1
  Te  Te94  1  0.75218492  0.41902582  0.41502338  1
  Te  Te95  1  0.75035825  0.40296526  0.75966005  1
  Te  Te96  1  0.73697812  0.76142664  0.10578902  1
  Te  Te97  1  0.69792910  0.76118776  0.41758853  1
  Te  Te98  1  0.76644606  0.73153118  0.75669488  1
  Te  Te99  1  0.10674632  0.24852550  0.28120411  1
  Te  Te100  1  0.10878412  0.26175884  0.55827250  1
  Te  Te101  1  0.10047948  0.24969910  0.92396614  1
  Te  Te102  1  0.06670800  0.58652936  0.24259044  1
  Te  Te103  1  0.10460209  0.57255241  0.60111959  1
  Te  Te104  1  0.08949595  0.59773120  0.91915474  1
  Te  Te105  1  0.08500804  0.91416365  0.25284881  1
  Te  Te106  1  0.08937304  0.90280874  0.57753191  1
  Te  Te107  1  0.11065526  0.90554574  0.90992597  1
  Te  Te108  1  0.41728687  0.24735762  0.27376032  1
  Te  Te109  1  0.39501879  0.22234636  0.53367758  1
  Te  Te110  1  0.42634703  0.26670317  0.91315173  1
  Te  Te111  1  0.43032678  0.59783941  0.23019126  1
  Te  Te112  1  0.43068585  0.60973916  0.56518592  1
  Te  Te113  1  0.43766271  0.55126384  0.90639777  1
  Te  Te114  1  0.44810963  0.91661727  0.25797548  1
  Te  Te115  1  0.43605907  0.92375377  0.58247664  1
  Te  Te116  1  0.41235000  0.90001595  0.91920599  1
  Te  Te117  1  0.75556650  0.23055473  0.23330433  1
  Te  Te118  1  0.73987996  0.23863979  0.59075354  1
  Te  Te119  1  0.75192188  0.24828746  0.91820851  1
  Te  Te120  1  0.74041355  0.60648270  0.25733329  1
  Te  Te121  1  0.74014229  0.57938856  0.59712649  1
  Te  Te122  1  0.74741866  0.59743905  0.92520068  1
  Te  Te123  1  0.74055463  0.92559973  0.28316176  1
  Te  Te124  1  0.75827220  0.91461165  0.54719006  1
  Te  Te125  1  0.72025110  0.91559930  0.93717218  1
  Te  Te126  1  0.26469082  0.22221598  0.08241820  1
  Te  Te127  1  0.23315199  0.22185980  0.37107955  1
  Te  Te128  1  0.25084570  0.25303322  0.75163028  1
  Te  Te129  1  0.25194500  0.59880280  0.07613783  1
  Te  Te130  1  0.24278770  0.58606531  0.41098586  1
  Te  Te131  1  0.26841719  0.57080040  0.73713251  1
  Te  Te132  1  0.25108471  0.90742127  0.09621727  1
  Te  Te133  1  0.25479103  0.91569582  0.40283832  1
  Te  Te134  1  0.22885578  0.94559450  0.76698346  1
  Te  Te135  1  0.59242029  0.24476076  0.08837664  1
  Te  Te136  1  0.57333873  0.25080878  0.42047759  1
  Te  Te137  1  0.55452051  0.23678758  0.71526169  1
  Te  Te138  1  0.56586199  0.61144959  0.09171217  1
  Te  Te139  1  0.58604343  0.60156572  0.40390096  1
  Te  Te140  1  0.57142615  0.60982695  0.74686943  1
  Te  Te141  1  0.57252627  0.94533107  0.09693872  1
  Te  Te142  1  0.57506180  0.86215735  0.41643366  1
  Te  Te143  1  0.58062014  0.90323172  0.73556541  1
  Te  Te144  1  0.91226270  0.25660016  0.07827740  1
  Te  Te145  1  0.92769715  0.25306926  0.39877622  1
  Te  Te146  1  0.91469301  0.24995476  0.74516477  1
  Te  Te147  1  0.90402977  0.54338295  0.08430990  1
  Te  Te148  1  0.89692461  0.58463020  0.42770072  1
  Te  Te149  1  0.92293075  0.59262686  0.76581900  1
  Te  Te150  1  0.90826563  0.92115759  0.08129649  1
  Te  Te151  1  0.89113387  0.91843706  0.44273008  1
  Te  Te152  1  0.91875763  0.92521819  0.74197162  1
  Te  Te153  1  0.24667207  0.09908006  0.28586964  1
  Te  Te154  1  0.27738491  0.09665768  0.55940349  1
  Te  Te155  1  0.23534569  0.08965408  0.93431831  1
  Te  Te156  1  0.28034074  0.39690967  0.27115522  1
  Te  Te157  1  0.24401215  0.40877225  0.58985598  1
  Te  Te158  1  0.27358902  0.43993526  0.90413142  1
  Te  Te159  1  0.24260739  0.76428285  0.26550288  1
  Te  Te160  1  0.25972730  0.76105052  0.60010801  1
  Te  Te161  1  0.27745867  0.74906715  0.90019623  1
  Te  Te162  1  0.52304337  0.05030280  0.31021538  1
  Te  Te163  1  0.56351505  0.05543223  0.57253790  1
  Te  Te164  1  0.57185583  0.07675722  0.90833802  1
  Te  Te165  1  0.59600875  0.41812187  0.25011275  1
  Te  Te166  1  0.55262437  0.39987217  0.55130204  1
  Te  Te167  1  0.56408552  0.45806123  0.92492567  1
  Te  Te168  1  0.56238431  0.76494184  0.28749211  1
  Te  Te169  1  0.57639670  0.78827439  0.55414026  1
  Te  Te170  1  0.54780447  0.75390014  0.89819545  1
  Te  Te171  1  0.92104720  0.08358134  0.24043073  1
  Te  Te172  1  0.89551990  0.04830534  0.53808393  1
  Te  Te173  1  0.92092958  0.09211313  0.90595145  1
  Te  Te174  1  0.94635804  0.40552045  0.26498563  1
  Te  Te175  1  0.92337345  0.40781489  0.57881757  1
  Te  Te176  1  0.92194180  0.47020110  0.94303442  1
  Te  Te177  1  0.89572218  0.76002223  0.27060934  1
  Te  Te178  1  0.92168207  0.75513780  0.56654962  1
  Te  Te179  1  0.91540983  0.73025341  0.91655601  1
