# generated using pymatgen
data_In2Te3
_symmetry_space_group_name_H-M   'P 1'
_cell_length_a   18.88992703
_cell_length_b   18.87040710
_cell_length_c   18.86678688
_cell_angle_alpha   90.03136602
_cell_angle_beta   89.94398653
_cell_angle_gamma   89.85973178
_symmetry_Int_Tables_number   1
_chemical_formula_structural   In2Te3
_chemical_formula_sum   'In72 Te108'
_cell_volume   6725.24203406
_cell_formula_units_Z   36
loop_
 _symmetry_equiv_pos_site_id
 _symmetry_equiv_pos_as_xyz
  1  'x, y, z'
loop_
 _atom_site_type_symbol
 _atom_site_label
 _atom_site_symmetry_multiplicity
 _atom_site_fract_x
 _atom_site_fract_y
 _atom_site_fract_z
 _atom_site_occupancy
  In  In0  1  0.65325058  0.68114469  -0.00327160  1
  In  In1  1  0.67520406  0.15139615  0.84673052  1
  In  In2  1  0.14342490  0.32200467  0.15938530  1
  In  In3  1  0.16040858  0.86669485  0.34249800  1
  In  In4  1  0.51446975  0.81252063  0.34790471  1
  In  In5  1  0.83334760  0.82954398  0.66904848  1
  In  In6  1  0.13203889  0.30802083  0.84547868  1
  In  In7  1  0.65644605  0.60134067  0.34212981  1
  In  In8  1  0.49546443  0.48494175  0.65862457  1
  In  In9  1  0.15186384  0.49922401  -0.00333354  1
  In  In10  1  0.32058272  -0.02596735  0.32658661  1
  In  In11  1  0.82407533  0.49434592  0.01080477  1
  In  In12  1  0.50685510  0.52141495  -0.02083358  1
  In  In13  1  0.47745769  0.84463767  -0.00229497  1
  In  In14  1  0.68248498  0.49253947  0.80589076  1
  In  In15  1  0.33291831  0.50148958  0.15060649  1
  In  In16  1  0.81547226  0.45545295  0.64389685  1
  In  In17  1  0.52211902  -0.00672072  0.81976038  1
  In  In18  1  0.33754205  0.83806265  0.15302577  1
  In  In19  1  0.18812975  0.69103668  0.52284924  1
  In  In20  1  0.83342759  0.02383609  0.15774425  1
  In  In21  1  0.30809015  0.17411735  0.84845315  1
  In  In22  1  0.50740126  0.18128732  0.34622875  1
  In  In23  1  0.19951240  0.68373858  0.83968543  1
  In  In24  1  0.00703603  0.66868394  0.30282470  1
  In  In25  1  0.82330477  0.46280074  0.34668618  1
  In  In26  1  0.03507232  0.64305866  0.67310573  1
  In  In27  1  0.84058351  0.86188623  0.33930971  1
  In  In28  1  0.32723326  0.15300030  0.51372254  1
  In  In29  1  0.66541011  0.16431482  0.16786314  1
  In  In30  1  0.55078268  0.32232660  0.50565518  1
  In  In31  1  0.66504342  0.64751637  0.66149637  1
  In  In32  1  0.34053647  0.52513546  0.49256966  1
  In  In33  1  0.02307235  0.87619342  0.85982265  1
  In  In34  1  0.49810811  0.03672718  0.15173511  1
  In  In35  1  0.32761599  0.35256334  -0.00310366  1
  In  In36  1  0.15578555  0.31723391  0.51898224  1
  In  In37  1  0.82620252  0.16970613  0.65908192  1
  In  In38  1  0.50782390  0.00633688  0.52457127  1
  In  In39  1  0.17828834  0.47847396  0.35813774  1
  In  In40  1  0.00891884  0.00914095  0.68749219  1
  In  In41  1  0.16405065  0.50672316  0.68444865  1
  In  In42  1  0.86579837  0.67233334  0.83300242  1
  In  In43  1  0.18772845  -0.01035830  0.14946480  1
  In  In44  1  -0.01273757  0.49723673  0.83248690  1
  In  In45  1  0.50373254  0.63817394  0.17062702  1
  In  In46  1  0.35694184  0.70060755  0.31367237  1
  In  In47  1  -0.03304126  0.49274940  0.17098240  1
  In  In48  1  0.33666286  0.17445365  0.15643408  1
  In  In49  1  0.83770286  0.29981353  0.16185435  1
  In  In50  1  0.82417984  0.67181048  0.50309877  1
  In  In51  1  0.34344608  0.33209319  0.35509506  1
  In  In52  1  0.01899337  0.85389117  0.13509494  1
  In  In53  1  0.82539111  0.67399572  0.14413184  1
  In  In54  1  0.67569737  0.01644679  0.61744120  1
  In  In55  1  0.53047415  0.13703361  0.66114216  1
  In  In56  1  -0.00967164  0.17770894  0.48920322  1
  In  In57  1  -0.02463476  0.13167612  0.85669999  1
  In  In58  1  -0.02855031  0.47556378  0.49525935  1
  In  In59  1  -0.02759725  0.84641829  0.47523629  1
  In  In60  1  0.67614584  0.31342651  0.01942017  1
  In  In61  1  0.66906801  0.82908561  0.51819634  1
  In  In62  1  0.68946949  0.87078192  0.85084701  1
  In  In63  1  0.14219751  0.67603547  0.14794342  1
  In  In64  1  0.45196202  0.68966528  0.82205174  1
  In  In65  1  0.33111348  -0.00857055  0.68186540  1
  In  In66  1  0.17435431  0.85748402  0.69233887  1
  In  In67  1  -0.00379891  0.15581992  0.16380078  1
  In  In68  1  0.34631761  0.33554498  0.66965244  1
  In  In69  1  0.15208816  0.00935882  0.49270566  1
  In  In70  1  0.67064635  0.84242553  0.15526925  1
  In  In71  1  0.50777941  0.31788346  0.82894303  1
  Te  Te72  1  0.08906376  0.07402048  0.07375576  1
  Te  Te73  1  0.08036127  0.09718959  0.40026488  1
  Te  Te74  1  0.10006460  0.08041229  0.78282225  1
  Te  Te75  1  0.05527506  0.41194780  0.07416933  1
  Te  Te76  1  0.07054403  0.38944637  0.41291288  1
  Te  Te77  1  0.06774595  0.40587970  0.74076470  1
  Te  Te78  1  0.07624921  0.75425951  0.04295314  1
  Te  Te79  1  0.07813183  0.75117223  0.41232954  1
  Te  Te80  1  0.07429007  0.75974948  0.76247663  1
  Te  Te81  1  0.37776608  0.06006282  0.07196346  1
  Te  Te82  1  0.41137990  0.07163853  0.41462285  1
  Te  Te83  1  0.41037339  0.10608689  0.74937499  1
  Te  Te84  1  0.43792461  0.42122164  0.07610071  1
  Te  Te85  1  0.43132121  0.40873655  0.44971283  1
  Te  Te86  1  0.41228339  0.42337732  0.77403628  1
  Te  Te87  1  0.41953250  0.73005084  0.08234143  1
  Te  Te88  1  0.41723669  0.74907096  0.43778083  1
  Te  Te89  1  0.40283012  0.78361385  0.72168539  1
  Te  Te90  1  0.73660320  0.08563803  0.06099527  1
  Te  Te91  1  0.72957617  0.05056409  0.47697860  1
  Te  Te92  1  0.74931142  0.06787320  0.74215969  1
  Te  Te93  1  0.74790304  0.41297237  0.11417359  1
  Te  Te94  1  0.74929235  0.37709683  0.44201942  1
  Te  Te95  1  0.78509457  0.39009553  0.77406633  1
  Te  Te96  1  0.76044233  0.77571515  0.05140822  1
  Te  Te97  1  0.74870543  0.75629399  0.40259038  1
  Te  Te98  1  0.74436088  0.74168132  0.75488172  1
  Te  Te99  1  0.07884362  0.23614202  0.25803458  1
  Te  Te100  1  0.08258108  0.21871676  0.59769666  1
  Te  Te101  1  0.04528170  0.23714476  0.94224727  1
  Te  Te102  1  0.09424436  0.55518579  0.24463767  1
  Te  Te103  1  0.09163330  0.56568051  0.55366387  1
  Te  Te104  1  0.08454072  0.59255144  0.89701180  1
  Te  Te105  1  0.07307882  0.94280062  0.24601418  1
  Te  Te106  1  0.07401855  0.90474984  0.58223164  1
  Te  Te107  1  0.09230482  0.98028954  0.94236304  1
  Te  Te108  1  0.42444839  0.26259623  0.24641750  1
  Te  Te109  1  0.43005048  0.24218711  0.58183621  1
  Te  Te110  1  0.41598909  0.24783949  0.92805759  1
  Te  Te111  1  0.41120990  0.56443103  0.26615693  1
  Te  Te112  1  0.42064494  0.59369857  0.59396957  1
  Te  Te113  1  0.39533246  0.59796010  0.92167800  1
  Te  Te114  1  0.43446636  0.90829035  0.24773131  1
  Te  Te115  1  0.43709195  0.90908001  0.61406561  1
  Te  Te116  1  0.41087559  0.92869863  0.89517471  1
  Te  Te117  1  0.76417184  0.22045253  0.26631264  1
  Te  Te118  1  0.76931118  0.26593068  0.55522423  1
  Te  Te119  1  0.76224002  0.24102423  0.92533440  1
  Te  Te120  1  0.77924973  0.57856219  0.25411350  1
  Te  Te121  1  0.73934100  0.55973557  0.56032916  1
  Te  Te122  1  0.75142181  0.59263326  0.91027650  1
  Te  Te123  1  0.74280449  0.93659620  0.24950415  1
  Te  Te124  1  0.79016500  0.92048417  0.55485894  1
  Te  Te125  1  0.74852284  0.97398953  0.93836271  1
  Te  Te126  1  0.23893105  0.24912678  0.06563765  1
  Te  Te127  1  0.24447995  0.23755088  0.41788045  1
  Te  Te128  1  0.23858750  0.25771007  0.74169859  1
  Te  Te129  1  0.24642469  0.59522351  0.06802643  1
  Te  Te130  1  0.24678193  0.60863974  0.40029095  1
  Te  Te131  1  0.26589876  0.59574543  0.74074870  1
  Te  Te132  1  0.23889735  0.88464087  0.05022779  1
  Te  Te133  1  0.26185460  0.90541800  0.44889020  1
  Te  Te134  1  0.26162603  0.92020626  0.79718423  1
  Te  Te135  1  0.56894607  0.25234997  0.09926778  1
  Te  Te136  1  0.60630132  0.29094117  0.37006912  1
  Te  Te137  1  0.60521814  0.24547982  0.73764412  1
  Te  Te138  1  0.60884574  0.56762082  0.08650372  1
  Te  Te139  1  0.56249245  0.53474869  0.43517199  1
  Te  Te140  1  0.56835637  0.58785450  0.76615145  1
  Te  Te141  1  0.57751699  0.93069754  0.07362317  1
  Te  Te142  1  0.58902847  0.92008123  0.42349000  1
  Te  Te143  1  0.61453364  0.91750631  0.72761554  1
  Te  Te144  1  0.92296337  0.23462212  0.05885048  1
  Te  Te145  1  0.87625606  0.26851746  0.44615551  1
  Te  Te146  1  0.91465673  0.22771754  0.76184478  1
  Te  Te147  1  0.92812142  0.59538259  0.06465733  1
  Te  Te148  1  0.92236485  0.59363793  0.40696771  1
  Te  Te149  1  0.90399286  0.57472530  0.71854275  1
  Te  Te150  1  0.91608544  0.93742304  0.06385792  1
  Te  Te151  1  0.93589294  0.96186568  0.39202247  1
  Te  Te152  1  0.90853743  0.92138170  0.76201714  1
  Te  Te153  1  0.25200100  0.08541334  0.25107356  1
  Te  Te154  1  0.23117150  0.07853377  0.60412618  1
  Te  Te155  1  0.20792138  0.08045707  0.90547624  1
  Te  Te156  1  0.25564228  0.40400064  0.24303106  1
  Te  Te157  1  0.25631478  0.41936850  0.57615016  1
  Te  Te158  1  0.23042190  0.41452012  0.89754300  1
  Te  Te159  1  0.22846110  0.76441677  0.24220272  1
  Te  Te160  1  0.26908012  0.75473042  0.63151043  1
  Te  Te161  1  0.24899812  0.79793669  0.91725662  1
  Te  Te162  1  0.58507019  0.07616521  0.26900646  1
  Te  Te163  1  0.61152000  0.13298196  0.52683525  1
  Te  Te164  1  0.56158153  0.09320630  0.91912119  1
  Te  Te165  1  0.58656956  0.47412460  0.30121448  1
  Te  Te166  1  0.60500314  0.39224846  0.62422400  1
  Te  Te167  1  0.60104644  0.41330239  0.91200574  1
  Te  Te168  1  0.59698253  0.73762037  0.24097224  1
  Te  Te169  1  0.57906200  0.72745759  0.57301642  1
  Te  Te170  1  0.57484054  0.76826760  0.89996638  1
  Te  Te171  1  0.88785966  0.11578293  0.26322073  1
  Te  Te172  1  0.92209279  0.07574516  0.58406595  1
  Te  Te173  1  0.89240603  0.03676637  0.93922241  1
  Te  Te174  1  0.92198380  0.38252942  0.26323310  1
  Te  Te175  1  0.92598741  0.37129967  0.58947590  1
  Te  Te176  1  0.89789902  0.41168029  0.91294795  1
  Te  Te177  1  0.91624279  0.76896498  0.23218645  1
  Te  Te178  1  0.93113504  0.74000507  0.58950466  1
  Te  Te179  1  0.91353730  0.78715983  0.91109921  1
