# generated using pymatgen
data_In2Te3
_symmetry_space_group_name_H-M   'P 1'
_cell_length_a   18.78810232
_cell_length_b   18.78122717
_cell_length_c   18.79389949
_cell_angle_alpha   90.04954976
_cell_angle_beta   90.01681913
_cell_angle_gamma   89.96319312
_symmetry_Int_Tables_number   1
_chemical_formula_structural   In2Te3
_chemical_formula_sum   'In72 Te108'
_cell_volume   6631.67923142
_cell_formula_units_Z   36
loop_
 _symmetry_equiv_pos_site_id
 _symmetry_equiv_pos_as_xyz
  1  'x, y, z'
loop_
 _atom_site_type_symbol
 _atom_site_label
 _atom_site_symmetry_multiplicity
 _atom_site_fract_x
 _atom_site_fract_y
 _atom_site_fract_z
 _atom_site_occupancy
  In  In0  1  0.63489589  0.81793339  0.18455419  1
  In  In1  1  0.84252017  0.01025982  0.15987328  1
  In  In2  1  0.32227723  0.18172841  0.83339438  1
  In  In3  1  0.02111321  0.50635821  0.17328178  1
  In  In4  1  0.63327523  0.65326997  0.02999598  1
  In  In5  1  0.83038547  0.66513893  0.49855766  1
  In  In6  1  0.01847120  0.35272346  0.65696328  1
  In  In7  1  0.85963074  0.00568594  0.83406535  1
  In  In8  1  0.65237474  0.17723908  0.50429401  1
  In  In9  1  0.02064113  0.16875116  0.85288380  1
  In  In10  1  0.00996788  0.51189057  0.50396491  1
  In  In11  1  0.18310421  0.51272122  0.68047634  1
  In  In12  1  0.50197755  0.15164109  0.34539285  1
  In  In13  1  -0.00257232  -0.01662357  0.65507353  1
  In  In14  1  0.03663056  0.79361622  0.47154054  1
  In  In15  1  0.65860162  0.66544962  0.64218595  1
  In  In16  1  0.83695654  0.34634948  0.84123736  1
  In  In17  1  0.34158597  0.36131361  0.35161292  1
  In  In18  1  0.66332705  0.34507075  -0.01807800  1
  In  In19  1  0.50450965  0.17581491  0.65897221  1
  In  In20  1  0.64696170  0.81478294  0.49513912  1
  In  In21  1  0.18646855  -0.02743355  0.83417892  1
  In  In22  1  0.16571008  0.16142026  0.30398907  1
  In  In23  1  0.68328781  0.18264038  0.15874699  1
  In  In24  1  0.32283739  0.79455524  0.84356639  1
  In  In25  1  0.47508709  0.83407881  0.01094461  1
  In  In26  1  0.33494757  -0.02164327  0.66958338  1
  In  In27  1  0.01416255  0.34317192  -0.00271334  1
  In  In28  1  0.84028154  0.17090317  0.65710228  1
  In  In29  1  0.17225726  0.36320737  0.50480364  1
  In  In30  1  0.31212545  0.16231658  0.16229846  1
  In  In31  1  0.66336932  0.83393817  0.83099500  1
  In  In32  1  0.00110376  0.81746743  0.15990994  1
  In  In33  1  0.31227582  0.81653334  0.51193444  1
  In  In34  1  0.84464442  0.84464847  -0.00171422  1
  In  In35  1  0.83298029  0.48003877  -0.00279788  1
  In  In36  1  0.66919514  0.49181187  0.84093735  1
  In  In37  1  0.14754040  0.33763536  0.16171684  1
  In  In38  1  0.83533044  0.82266021  0.36339696  1
  In  In39  1  0.64815553  0.33767774  0.34103882  1
  In  In40  1  0.49838155  0.33819362  0.17693230  1
  In  In41  1  0.03852603  0.63963940  -0.00865625  1
  In  In42  1  0.18222665  0.54466056  0.36459031  1
  In  In43  1  0.82934701  0.67362938  0.17724406  1
  In  In44  1  0.16375935  0.19189741  0.67929090  1
  In  In45  1  0.86636152  0.64563938  0.82986177  1
  In  In46  1  0.48578082  0.36283664  0.83254699  1
  In  In47  1  0.82145898  0.01224040  0.50599398  1
  In  In48  1  0.32043431  0.35762743  -0.02079372  1
  In  In49  1  0.00310768  -0.00242312  0.31538719  1
  In  In50  1  0.17831005  -0.01734624  0.49369703  1
  In  In51  1  0.30815496  0.53235975  0.16173634  1
  In  In52  1  0.34396879  0.17120593  0.50117134  1
  In  In53  1  0.47546874  0.53050590  0.66254080  1
  In  In54  1  0.66635436  0.16390107  0.85439144  1
  In  In55  1  0.31221646  0.79049367  0.16825272  1
  In  In56  1  0.68226559  -0.01453834  0.33837040  1
  In  In57  1  0.01532407  0.15180026  0.16354753  1
  In  In58  1  0.85825465  0.32036345  0.46302365  1
  In  In59  1  0.64051400  0.37240677  0.66045847  1
  In  In60  1  0.52881080  -0.00422642  0.82617969  1
  In  In61  1  0.03538605  0.67813820  0.70497417  1
  In  In62  1  0.48598555  0.53276155  0.35803536  1
  In  In63  1  0.84695214  0.83941519  0.67185588  1
  In  In64  1  0.63306119  0.00028664  0.67972766  1
  In  In65  1  0.16791626  -0.01242102  0.15938853  1
  In  In66  1  0.82197250  0.50937268  0.34139318  1
  In  In67  1  0.83647759  0.34218227  0.15644469  1
  In  In68  1  0.33162632  -0.00138558  0.00959258  1
  In  In69  1  0.49035677  -0.01677221  0.16774504  1
  In  In70  1  0.45728527  0.65316327  0.84619777  1
  In  In71  1  0.49235063  0.79364632  0.33854198  1
  Te  Te72  1  0.10089293  0.08124958  0.06680575  1
  Te  Te73  1  0.09142331  0.07904831  0.41035251  1
  Te  Te74  1  0.08754580  0.07171456  0.74411639  1
  Te  Te75  1  0.10839221  0.44842563  0.06196138  1
  Te  Te76  1  0.08394335  0.42913312  0.39960981  1
  Te  Te77  1  0.10612477  0.41019902  0.75898616  1
  Te  Te78  1  0.09994745  0.73383860  0.08715746  1
  Te  Te79  1  0.13308713  0.71215128  0.39365500  1
  Te  Te80  1  0.09935310  0.78217059  0.79101598  1
  Te  Te81  1  0.42511591  0.09357118  0.08407323  1
  Te  Te82  1  0.40491807  0.06693915  0.41622950  1
  Te  Te83  1  0.41905368  0.08839084  0.75260941  1
  Te  Te84  1  0.39466104  0.42007580  0.09960639  1
  Te  Te85  1  0.42367733  0.43317784  0.45134513  1
  Te  Te86  1  0.39365959  0.43417418  0.74328361  1
  Te  Te87  1  0.41451321  0.72069165  0.08311852  1
  Te  Te88  1  0.38587461  0.71928740  0.41450123  1
  Te  Te89  1  0.40805968  0.73710519  0.73472236  1
  Te  Te90  1  0.74979683  0.08356267  0.07256181  1
  Te  Te91  1  0.74743620  0.10468489  0.40955806  1
  Te  Te92  1  0.75112922  0.07779861  0.74289077  1
  Te  Te93  1  0.72709794  0.42878370  0.09431951  1
  Te  Te94  1  0.74064480  0.41739480  0.43256377  1
  Te  Te95  1  0.76286398  0.43057687  0.73825667  1
  Te  Te96  1  0.74461984  0.75714339  0.07664314  1
  Te  Te97  1  0.72114267  0.72223992  0.39424658  1
  Te  Te98  1  0.76127234  0.74298575  0.75441174  1
  Te  Te99  1  0.05818887  0.26382066  0.26193127  1
  Te  Te100  1  0.08343045  0.25140160  0.56341891  1
  Te  Te101  1  0.10866211  0.27383412  0.90619687  1
  Te  Te102  1  0.11277786  0.60567523  0.24046381  1
  Te  Te103  1  0.10108587  0.60490990  0.58229338  1
  Te  Te104  1  0.11106265  0.60204331  0.86474875  1
  Te  Te105  1  0.09601779  0.89359492  0.25622542  1
  Te  Te106  1  0.09146163  0.88851566  0.57897579  1
  Te  Te107  1  0.09191568  0.88733251  0.90509520  1
  Te  Te108  1  0.40433418  0.24422470  0.25744583  1
  Te  Te109  1  0.40930986  0.26618948  0.59314826  1
  Te  Te110  1  0.42267081  0.25592797  0.92227496  1
  Te  Te111  1  0.39171302  0.60288158  0.26352558  1
  Te  Te112  1  0.36616512  0.61277295  0.59558550  1
  Te  Te113  1  0.37566247  0.56798677  0.93806436  1
  Te  Te114  1  0.40775079  0.88670242  0.24683535  1
  Te  Te115  1  0.41581293  0.90905381  0.56916047  1
  Te  Te116  1  0.40603420  0.92068882  0.89810762  1
  Te  Te117  1  0.75715689  0.26413043  0.26327354  1
  Te  Te118  1  0.73890087  0.26515966  0.59349613  1
  Te  Te119  1  0.76977535  0.24523726  0.93269811  1
  Te  Te120  1  0.73847586  0.57582189  0.23879989  1
  Te  Te121  1  0.75355180  0.57136491  0.58186673  1
  Te  Te122  1  0.74837151  0.59210221  0.92769868  1
  Te  Te123  1  0.76592742  0.89786551  0.24357730  1
  Te  Te124  1  0.73893854  0.90789010  0.58524324  1
  Te  Te125  1  0.74983273  0.92917040  0.91269157  1
  Te  Te126  1  0.23897180  0.25688815  0.07028052  1
  Te  Te127  1  0.24357954  0.25367840  0.40728989  1
  Te  Te128  1  0.25972484  0.28239100  0.74551418  1
  Te  Te129  1  0.26935213  0.62190838  0.04514592  1
  Te  Te130  1  0.28855428  0.59607668  0.45911648  1
  Te  Te131  1  0.24631734  0.60040293  0.78800967  1
  Te  Te132  1  0.24523546  0.88952930  0.06976400  1
  Te  Te133  1  0.24590859  0.89138329  0.40127049  1
  Te  Te134  1  0.24262669  0.87410249  0.73029170  1
  Te  Te135  1  0.57829678  0.25662999  0.07553814  1
  Te  Te136  1  0.55057955  0.26655429  0.43435468  1
  Te  Te137  1  0.59233927  0.26263741  0.76411320  1
  Te  Te138  1  0.55062048  0.53986428  0.06814384  1
  Te  Te139  1  0.59564010  0.62511845  0.40032063  1
  Te  Te140  1  0.58273362  0.59116214  0.76286162  1
  Te  Te141  1  0.59009442  0.91450812  0.07403571  1
  Te  Te142  1  0.56941541  0.91314067  0.40628267  1
  Te  Te143  1  0.55776051  0.87775526  0.72963532  1
  Te  Te144  1  0.92639851  0.24842677  0.07819023  1
  Te  Te145  1  0.93078859  0.22111448  0.38752775  1
  Te  Te146  1  0.92599714  0.25323437  0.75254759  1
  Te  Te147  1  0.91603815  0.58194749  0.08505158  1
  Te  Te148  1  0.93145483  0.59713816  0.40467424  1
  Te  Te149  1  0.93459344  0.57143580  0.72403780  1
  Te  Te150  1  0.94374933  0.93180867  0.07568266  1
  Te  Te151  1  0.92761671  0.92129773  0.43256143  1
  Te  Te152  1  0.94594243  0.89568325  0.77327190  1
  Te  Te153  1  0.26540756  0.05403711  0.25801185  1
  Te  Te154  1  0.24673753  0.08441703  0.59738114  1
  Te  Te155  1  0.24188456  0.08644402  0.92155442  1
  Te  Te156  1  0.24200681  0.42092354  0.25243925  1
  Te  Te157  1  0.27030302  0.43058782  0.59043691  1
  Te  Te158  1  0.26984742  0.46506115  0.88829787  1
  Te  Te159  1  0.23142407  0.71415613  0.26915558  1
  Te  Te160  1  0.23824164  0.70507436  0.58362716  1
  Te  Te161  1  0.22619428  0.71605944  0.92671851  1
  Te  Te162  1  0.59384240  0.07844186  0.24412575  1
  Te  Te163  1  0.56236366  0.06896442  0.56370835  1
  Te  Te164  1  0.57581160  0.08206227  0.93553155  1
  Te  Te165  1  0.57112592  0.44044641  0.26049706  1
  Te  Te166  1  0.56330203  0.45453697  0.56623429  1
  Te  Te167  1  0.55210462  0.45393181  0.94101378  1
  Te  Te168  1  0.56726309  0.70070041  0.24578995  1
  Te  Te169  1  0.54968582  0.72932766  0.56697861  1
  Te  Te170  1  0.57336377  0.74621950  0.92043774  1
  Te  Te171  1  0.90185014  0.10290608  0.26627980  1
  Te  Te172  1  0.93594712  0.09475222  0.56734388  1
  Te  Te173  1  0.93114595  0.08558835  0.93422624  1
  Te  Te174  1  0.91952941  0.42580017  0.25326743  1
  Te  Te175  1  0.91062885  0.41634956  0.57009305  1
  Te  Te176  1  0.94212040  0.44018919  0.89874865  1
  Te  Te177  1  0.92890590  0.74122639  0.27164652  1
  Te  Te178  1  0.92988140  0.74930470  0.58085352  1
  Te  Te179  1  0.93072433  0.73786251  0.93234665  1
