# generated using pymatgen
data_In2Te3
_symmetry_space_group_name_H-M   'P 1'
_cell_length_a   18.94892169
_cell_length_b   18.98392378
_cell_length_c   18.95161320
_cell_angle_alpha   89.86120307
_cell_angle_beta   90.05153187
_cell_angle_gamma   89.99119961
_symmetry_Int_Tables_number   1
_chemical_formula_structural   In2Te3
_chemical_formula_sum   'In72 Te108'
_cell_volume   6817.34403641
_cell_formula_units_Z   36
loop_
 _symmetry_equiv_pos_site_id
 _symmetry_equiv_pos_as_xyz
  1  'x, y, z'
loop_
 _atom_site_type_symbol
 _atom_site_label
 _atom_site_symmetry_multiplicity
 _atom_site_fract_x
 _atom_site_fract_y
 _atom_site_fract_z
 _atom_site_occupancy
  In  In0  1  0.64468292  0.03412744  0.31405366  1
  In  In1  1  0.87354830  0.66553971  0.48161425  1
  In  In2  1  0.01240097  0.34290741  0.32303913  1
  In  In3  1  0.49105346  0.66062110  0.83458614  1
  In  In4  1  0.83964959  0.69166147  0.79701610  1
  In  In5  1  0.33494122  0.83611679  0.82096191  1
  In  In6  1  0.34241072  0.33679666  0.68452973  1
  In  In7  1  0.19544057  0.14363690  0.64736314  1
  In  In8  1  0.34934505  0.69058812  -0.01763203  1
  In  In9  1  0.01921038  0.66826958  0.02066024  1
  In  In10  1  0.49318048  0.15943097  0.65291261  1
  In  In11  1  0.66418683  0.16118973  0.84486034  1
  In  In12  1  0.67775521  0.66946996  0.32979454  1
  In  In13  1  0.15784695  0.69630308  0.17713840  1
  In  In14  1  0.83114470  0.16046088  0.00754404  1
  In  In15  1  0.34066471  0.66446210  0.67808920  1
  In  In16  1  0.80288816  0.85917692  0.65988660  1
  In  In17  1  0.81808469  0.67386429  0.16290282  1
  In  In18  1  0.51157032  0.50162809  0.64963159  1
  In  In19  1  0.01932183  0.47183913  0.85869627  1
  In  In20  1  0.00197682  0.81226570  0.49963011  1
  In  In21  1  -0.00669031  0.84239988  0.83619687  1
  In  In22  1  0.79950970  0.48507418  0.01700913  1
  In  In23  1  0.17519283  0.84220660  0.66091216  1
  In  In24  1  0.83067547  0.86343079  -0.01646537  1
  In  In25  1  0.65038296  0.33154890  0.66122187  1
  In  In26  1  0.33546445  0.32695421  0.02336193  1
  In  In27  1  0.65335158  0.48614038  0.85002723  1
  In  In28  1  0.50318011  0.97366836  0.63691662  1
  In  In29  1  0.32881917  0.49807675  0.16945779  1
  In  In30  1  0.65879153  0.03010878  0.03522767  1
  In  In31  1  0.18269153  0.33193262  0.50630438  1
  In  In32  1  0.50000831  0.85001673  0.02490585  1
  In  In33  1  0.17759473  0.00885493  0.15415749  1
  In  In34  1  0.83107588  0.84637623  0.31514425  1
  In  In35  1  0.81202741  0.16979587  0.33397390  1
  In  In36  1  -0.00179286  0.00142625  0.35182263  1
  In  In37  1  0.53187709  0.47302424  0.00246211  1
  In  In38  1  0.49426768  0.67048545  0.16812754  1
  In  In39  1  0.31641366  0.66771346  0.31695986  1
  In  In40  1  0.83599861  0.50273932  0.67203969  1
  In  In41  1  0.32586115  0.50016395  0.81563279  1
  In  In42  1  0.00006635  0.84026831  0.16294725  1
  In  In43  1  0.48140660  0.15990337  0.02029189  1
  In  In44  1  0.49823171  0.66543735  0.51084120  1
  In  In45  1  0.36121387  0.30140536  0.33318174  1
  In  In46  1  0.66733335  0.48033563  0.50327467  1
  In  In47  1  0.67995553  0.67719904  -0.01074626  1
  In  In48  1  0.00067148  -0.00447438  -0.00685154  1
  In  In49  1  0.82339321  0.15207549  0.68521189  1
  In  In50  1  0.01943268  0.15803408  0.49121820  1
  In  In51  1  0.47379610  0.84058981  0.31340262  1
  In  In52  1  0.82840124  0.32663804  0.51547406  1
  In  In53  1  0.64855491  0.85794231  0.48689355  1
  In  In54  1  -0.01384032  0.15765205  0.16963101  1
  In  In55  1  0.63177973  0.28420926  0.34625354  1
  In  In56  1  0.33077801  0.01422935  0.32375058  1
  In  In57  1  -0.00415709  0.49568367  0.18953187  1
  In  In58  1  0.17197763  0.31114304  0.16985307  1
  In  In59  1  0.69134980  0.69610861  0.66555545  1
  In  In60  1  0.01060790  0.17425804  0.83079187  1
  In  In61  1  0.33873104  0.13928607  0.49036438  1
  In  In62  1  0.01886643  0.64086227  0.35143205  1
  In  In63  1  0.02522227  0.65401358  0.65055962  1
  In  In64  1  0.35118780  0.15590360  0.83310306  1
  In  In65  1  -0.00750321  -0.00291746  0.66090906  1
  In  In66  1  -0.00585855  0.33752079  0.68606136  1
  In  In67  1  -0.00882243  0.31760760  -0.00524190  1
  In  In68  1  0.18415500  0.66090643  0.49169303  1
  In  In69  1  0.17882181  0.50053491  0.00419545  1
  In  In70  1  0.33129088  0.00943084  -0.00660074  1
  In  In71  1  0.64543270  0.47684209  0.19630096  1
  Te  Te72  1  0.08135679  0.09724855  0.07084452  1
  Te  Te73  1  0.10898744  0.06617951  0.42292805  1
  Te  Te74  1  0.09006396  0.08039353  0.74050664  1
  Te  Te75  1  0.08551019  0.41500150  0.08835300  1
  Te  Te76  1  0.09406152  0.41344141  0.42093556  1
  Te  Te77  1  0.09803549  0.41781205  0.74955172  1
  Te  Te78  1  0.10202235  0.78606212  0.06410778  1
  Te  Te79  1  0.09991249  0.75831764  0.40100282  1
  Te  Te80  1  0.08112400  0.75626180  0.74518328  1
  Te  Te81  1  0.42598961  0.04795932  0.10460815  1
  Te  Te82  1  0.43951335  0.10638804  0.38288639  1
  Te  Te83  1  0.42147601  0.06022183  0.74158401  1
  Te  Te84  1  0.43469389  0.41175013  0.10148622  1
  Te  Te85  1  0.44873358  0.39202995  0.40756873  1
  Te  Te86  1  0.44435742  0.42345491  0.76045901  1
  Te  Te87  1  0.39697261  0.76634382  0.10288638  1
  Te  Te88  1  0.41400341  0.74304584  0.41273263  1
  Te  Te89  1  0.43955324  0.76401758  0.73639231  1
  Te  Te90  1  0.74632944  0.11569542  0.12100027  1
  Te  Te91  1  0.74441175  0.07002359  0.41698902  1
  Te  Te92  1  0.71696308  0.06179495  0.74440121  1
  Te  Te93  1  0.71313491  0.39650196  0.09388436  1
  Te  Te94  1  0.73522682  0.38386467  0.41052456  1
  Te  Te95  1  0.74365622  0.41187113  0.74935079  1
  Te  Te96  1  0.74594181  0.77663497  0.08167145  1
  Te  Te97  1  0.75631276  0.75513348  0.42796378  1
  Te  Te98  1  0.72725559  0.78932839  0.78042356  1
  Te  Te99  1  0.08522024  0.22592105  0.26133484  1
  Te  Te100  1  0.08207991  0.24329134  0.60149930  1
  Te  Te101  1  0.09701981  0.25405388  0.91860261  1
  Te  Te102  1  0.10967845  0.57185488  0.25250824  1
  Te  Te103  1  0.08224638  0.56892307  0.54862718  1
  Te  Te104  1  0.09608629  0.59188937  0.91563860  1
  Te  Te105  1  0.08505953  0.92831715  0.24980572  1
  Te  Te106  1  0.08316804  0.92070278  0.56722278  1
  Te  Te107  1  0.09165009  0.92643639  0.90223237  1
  Te  Te108  1  0.44573963  0.23704658  0.22729052  1
  Te  Te109  1  0.40107078  0.24935387  0.57481086  1
  Te  Te110  1  0.42323294  0.25894377  0.92029106  1
  Te  Te111  1  0.42687644  0.57236272  0.25835671  1
  Te  Te112  1  0.40039956  0.56882255  0.57359664  1
  Te  Te113  1  0.42317630  0.56488278  0.93430159  1
  Te  Te114  1  0.41073179  0.93884759  0.21997903  1
  Te  Te115  1  0.39693073  0.92975312  0.54268623  1
  Te  Te116  1  0.42341808  0.91815544  0.91348104  1
  Te  Te117  1  0.72416569  0.23995580  0.23685788  1
  Te  Te118  1  0.73620345  0.23111508  0.58702010  1
  Te  Te119  1  0.74263951  0.25130711  0.93085885  1
  Te  Te120  1  0.75709676  0.56710791  0.25169808  1
  Te  Te121  1  0.75594985  0.58854212  0.57484504  1
  Te  Te122  1  0.76076485  0.58646631  0.89888797  1
  Te  Te123  1  0.72442043  0.92030380  0.25005671  1
  Te  Te124  1  0.73255574  0.94960232  0.56794231  1
  Te  Te125  1  0.73585068  0.95926981  0.92871976  1
  Te  Te126  1  0.26849117  0.22067636  0.10319521  1
  Te  Te127  1  0.24685801  0.23349883  0.41336134  1
  Te  Te128  1  0.24921890  0.23896452  0.75228015  1
  Te  Te129  1  0.25330837  0.60310033  0.08782052  1
  Te  Te130  1  0.25836523  0.56829179  0.40626661  1
  Te  Te131  1  0.23448354  0.58779540  0.74398503  1
  Te  Te132  1  0.24387908  0.91365037  0.06473093  1
  Te  Te133  1  0.28564711  0.92985978  0.43709378  1
  Te  Te134  1  0.24828659  0.93172359  0.75033436  1
  Te  Te135  1  0.56215986  0.23436058  0.12289800  1
  Te  Te136  1  0.56053504  0.18756667  0.43502617  1
  Te  Te137  1  0.57053482  0.24295606  0.75247756  1
  Te  Te138  1  0.59793588  0.59154096  0.08517620  1
  Te  Te139  1  0.59082067  0.58493412  0.42199659  1
  Te  Te140  1  0.59937732  0.59184401  0.74337351  1
  Te  Te141  1  0.59329612  0.92097420  0.11314887  1
  Te  Te142  1  0.55559477  0.93536112  0.39776950  1
  Te  Te143  1  0.61911350  0.94407656  0.72285343  1
  Te  Te144  1  0.90274252  0.26411548  0.10252512  1
  Te  Te145  1  0.91942043  0.24912064  0.41950588  1
  Te  Te146  1  0.89674438  0.25564258  0.76763789  1
  Te  Te147  1  0.91235156  0.57589183  0.07995721  1
  Te  Te148  1  0.90922483  0.55421620  0.39570833  1
  Te  Te149  1  0.93688969  0.57588872  0.75813757  1
  Te  Te150  1  0.90431902  0.93526019  0.09533339  1
  Te  Te151  1  0.90637634  0.90901325  0.43028822  1
  Te  Te152  1  0.89707600  0.92962716  0.75708234  1
  Te  Te153  1  0.25743182  0.10717535  0.23172456  1
  Te  Te154  1  0.27519565  0.03356058  0.57715183  1
  Te  Te155  1  0.24664603  0.10623124  0.92154611  1
  Te  Te156  1  0.26114775  0.39634451  0.25702964  1
  Te  Te157  1  0.26679233  0.41889062  0.58920402  1
  Te  Te158  1  0.25735091  0.40783132  0.91594916  1
  Te  Te159  1  0.24239977  0.78085131  0.26011890  1
  Te  Te160  1  0.26644396  0.75368063  0.57937880  1
  Te  Te161  1  0.24964093  0.73603448  0.88786558  1
  Te  Te162  1  0.55259228  0.12094174  0.23031219  1
  Te  Te163  1  0.57160124  0.08165620  0.55187057  1
  Te  Te164  1  0.56392915  0.07834286  0.92228756  1
  Te  Te165  1  0.55625479  0.40791090  0.29654931  1
  Te  Te166  1  0.55637022  0.38906135  0.55546951  1
  Te  Te167  1  0.60348185  0.36946954  0.92601197  1
  Te  Te168  1  0.58867755  0.75829136  0.24752453  1
  Te  Te169  1  0.58056852  0.76634398  0.58781897  1
  Te  Te170  1  0.57020723  0.75651751  0.92246895  1
  Te  Te171  1  0.90153714  0.07016834  0.25839045  1
  Te  Te172  1  0.90967472  0.09093037  0.57620570  1
  Te  Te173  1  0.91326647  0.08383454  0.90552812  1
  Te  Te174  1  0.90154228  0.39902453  0.24381790  1
  Te  Te175  1  0.92503366  0.42327746  0.57958347  1
  Te  Te176  1  0.89620206  0.41096353  0.92201071  1
  Te  Te177  1  0.92690418  0.73624795  0.24940520  1
  Te  Te178  1  0.90861314  0.75318692  0.60835424  1
  Te  Te179  1  0.91659761  0.74214980  0.93112190  1
