# generated using pymatgen
data_In2Te3
_symmetry_space_group_name_H-M   'P 1'
_cell_length_a   18.95913830
_cell_length_b   18.95627713
_cell_length_c   18.94980380
_cell_angle_alpha   90.03413084
_cell_angle_beta   90.05861089
_cell_angle_gamma   89.97397789
_symmetry_Int_Tables_number   1
_chemical_formula_structural   In2Te3
_chemical_formula_sum   'In72 Te108'
_cell_volume   6810.45319394
_cell_formula_units_Z   36
loop_
 _symmetry_equiv_pos_site_id
 _symmetry_equiv_pos_as_xyz
  1  'x, y, z'
loop_
 _atom_site_type_symbol
 _atom_site_label
 _atom_site_symmetry_multiplicity
 _atom_site_fract_x
 _atom_site_fract_y
 _atom_site_fract_z
 _atom_site_occupancy
  In  In0  1  0.53876335  0.65413525  0.15196760  1
  In  In1  1  -0.02345127  -0.00974631  0.02661908  1
  In  In2  1  0.30384478  0.33119602  0.34102109  1
  In  In3  1  -0.03296071  0.35015483  0.28926509  1
  In  In4  1  0.00096633  0.17234979  0.45400552  1
  In  In5  1  0.51869221  0.00519744  0.51948883  1
  In  In6  1  0.30565660  0.82763865  0.14825774  1
  In  In7  1  0.82503969  0.13772133  0.33106205  1
  In  In8  1  0.17834295  0.18101223  0.67849619  1
  In  In9  1  0.16364203  0.66119549  0.86063437  1
  In  In10  1  0.34932633  0.18043488  0.48712014  1
  In  In11  1  0.69020859  0.84557101  0.45690070  1
  In  In12  1  0.83276602  -0.01385945  0.84816686  1
  In  In13  1  0.66132684  0.83484678  0.84260096  1
  In  In14  1  0.66068759  0.65861419  0.66506806  1
  In  In15  1  0.84488329  0.66196332  0.17155991  1
  In  In16  1  0.50011023  0.82070935  0.67746011  1
  In  In17  1  0.65538164  0.16371056  0.81209301  1
  In  In18  1  0.82719480  0.81889084  0.66837014  1
  In  In19  1  -0.00836479  0.32711925  0.64529200  1
  In  In20  1  0.00484926  0.50589435  0.83529749  1
  In  In21  1  0.51126140  0.00319450  0.85214755  1
  In  In22  1  0.33440852  0.15961825  0.16434720  1
  In  In23  1  0.50321149  0.66829802  0.50797781  1
  In  In24  1  0.67344597  0.65329113  -0.00923165  1
  In  In25  1  0.13543858  0.84686987  0.33854978  1
  In  In26  1  0.18629128  0.32552600  0.83312751  1
  In  In27  1  0.68813201  0.34055782  0.00854990  1
  In  In28  1  0.00444283  0.80803795  0.84527604  1
  In  In29  1  0.53728228  0.47505814  0.34224176  1
  In  In30  1  0.32706982  -0.00530003  0.32726414  1
  In  In31  1  0.68164022  0.00949847  0.62930708  1
  In  In32  1  0.16863267  0.03149048  0.47876162  1
  In  In33  1  -0.01213034  0.82249891  0.49499502  1
  In  In34  1  0.83592248  0.33372210  0.84661240  1
  In  In35  1  0.67380861  0.84272430  0.18540143  1
  In  In36  1  0.33730717  0.48961730  0.53766637  1
  In  In37  1  -0.02332453  0.01067647  0.63979322  1
  In  In38  1  0.67481428  0.49412078  0.83921886  1
  In  In39  1  0.34402584  0.49813959  0.16700516  1
  In  In40  1  0.48804606  0.48338445  0.71730095  1
  In  In41  1  0.81521832  0.19511911  0.64237422  1
  In  In42  1  -0.02576575  0.18877073  0.15572542  1
  In  In43  1  0.51944287  0.32884516  0.48577852  1
  In  In44  1  0.69039608  0.47867518  0.50259452  1
  In  In45  1  0.16494933  0.49994924  0.64278974  1
  In  In46  1  0.01478134  0.17023747  0.86219374  1
  In  In47  1  0.34981527  0.66418624  0.33645254  1
  In  In48  1  0.67842844  0.15501671  0.14319545  1
  In  In49  1  0.48471640  0.32142516  0.15857719  1
  In  In50  1  0.34284516  0.32433239  -0.01951599  1
  In  In51  1  0.15844955  0.83354291  0.66962533  1
  In  In52  1  -0.00427978  0.67812884  0.01084940  1
  In  In53  1  0.14624892  0.51794802  0.33230045  1
  In  In54  1  0.34277235  0.16877974  0.82382212  1
  In  In55  1  0.15688717  0.19609937  0.00825213  1
  In  In56  1  0.50460324  0.01311665  0.17762256  1
  In  In57  1  0.83664942  0.85113217  0.31627552  1
  In  In58  1  0.70834210  0.66848803  0.32636932  1
  In  In59  1  0.51896860  0.86681589  0.36058103  1
  In  In60  1  -0.03773631  0.50991212  0.45176365  1
  In  In61  1  0.86208454  0.49667730  0.67632305  1
  In  In62  1  0.33503601  0.64272938  -0.01788417  1
  In  In63  1  0.13948715  0.66816007  0.17490915  1
  In  In64  1  0.64267349  0.31647957  0.66247879  1
  In  In65  1  0.16043903  -0.00514125  0.83637753  1
  In  In66  1  0.32535916  0.67734774  0.71279567  1
  In  In67  1  0.16314190  -0.01562083  0.17852756  1
  In  In68  1  0.49298850  0.84570688  0.01904991  1
  In  In69  1  0.34352966  -0.01326676  0.68849996  1
  In  In70  1  0.15613669  0.67090289  0.50982470  1
  In  In71  1  0.68118671  0.32769759  0.32422339  1
  Te  Te72  1  0.08407219  0.08645859  0.08280775  1
  Te  Te73  1  0.06341694  0.06050897  0.37752104  1
  Te  Te74  1  0.07318626  0.08102814  0.74392003  1
  Te  Te75  1  0.00973280  0.34895776  0.13877868  1
  Te  Te76  1  0.06501212  0.41122194  0.39975320  1
  Te  Te77  1  0.08323457  0.40347694  0.73951541  1
  Te  Te78  1  0.08992184  0.76936242  0.08137009  1
  Te  Te79  1  0.06508631  0.72826828  0.40276122  1
  Te  Te80  1  0.08470234  0.72636129  0.74562673  1
  Te  Te81  1  0.41733534  0.07656459  0.07607724  1
  Te  Te82  1  0.42433914  0.07027369  0.41561832  1
  Te  Te83  1  0.44249436  0.08580466  0.74342663  1
  Te  Te84  1  0.42684851  0.42583156  0.06510901  1
  Te  Te85  1  0.41192332  0.42620535  0.41452934  1
  Te  Te86  1  0.39332188  0.43919132  0.82180971  1
  Te  Te87  1  0.41926967  0.73134834  0.10013788  1
  Te  Te88  1  0.42019984  0.76420752  0.42574151  1
  Te  Te89  1  0.42339016  0.75881513  0.78445273  1
  Te  Te90  1  0.78872797  0.05788189  0.11026045  1
  Te  Te91  1  0.73606526  0.07742521  0.43111674  1
  Te  Te92  1  0.77212895  0.07736542  0.73872291  1
  Te  Te93  1  0.79125269  0.39102376  0.10633827  1
  Te  Te94  1  0.76615276  0.44344276  0.37727608  1
  Te  Te95  1  0.75273774  0.40489769  0.73302758  1
  Te  Te96  1  0.74223493  0.74519897  0.09286902  1
  Te  Te97  1  0.79237430  0.73210667  0.43369169  1
  Te  Te98  1  0.74718434  0.73414448  0.76519138  1
  Te  Te99  1  0.07590498  0.25142137  0.24664450  1
  Te  Te100  1  0.08296706  0.23183613  0.57192491  1
  Te  Te101  1  0.06881492  0.29247721  0.93067157  1
  Te  Te102  1  0.05067587  0.56099157  0.22694282  1
  Te  Te103  1  0.05795987  0.56872789  0.56196690  1
  Te  Te104  1  0.08514699  0.56695796  0.94799140  1
  Te  Te105  1  0.05889971  0.88473223  0.21710984  1
  Te  Te106  1  0.09074251  0.93169620  0.57405511  1
  Te  Te107  1  0.07121306  0.91677792  0.92841559  1
  Te  Te108  1  0.40696315  0.24835980  0.26601837  1
  Te  Te109  1  0.42850794  0.26232909  0.57873749  1
  Te  Te110  1  0.42558952  0.21081641  0.93766799  1
  Te  Te111  1  0.44370242  0.57316766  0.25874714  1
  Te  Te112  1  0.41873802  0.59594552  0.61122577  1
  Te  Te113  1  0.42649950  0.56467651  0.89822358  1
  Te  Te114  1  0.41349298  0.90091064  0.24465318  1
  Te  Te115  1  0.41946529  0.90842275  0.58268659  1
  Te  Te116  1  0.41202852  0.92938959  0.92887896  1
  Te  Te117  1  0.76600202  0.24020676  0.23418987  1
  Te  Te118  1  0.73284176  0.27716727  0.55353379  1
  Te  Te119  1  0.74811617  0.23364030  0.91442869  1
  Te  Te120  1  0.73166281  0.57475346  0.21651820  1
  Te  Te121  1  0.76371453  0.57991933  0.58847925  1
  Te  Te122  1  0.77314224  0.56258547  0.92640539  1
  Te  Te123  1  0.76317855  0.95660511  0.23223479  1
  Te  Te124  1  0.77863226  0.91538486  0.56200170  1
  Te  Te125  1  0.76506150  0.88867077  0.93391201  1
  Te  Te126  1  0.25461854  0.26932683  0.09555263  1
  Te  Te127  1  0.23043264  0.23069146  0.41828106  1
  Te  Te128  1  0.28604738  0.27453271  0.72984136  1
  Te  Te129  1  0.24792061  0.59094070  0.09678706  1
  Te  Te130  1  0.25734454  0.58305390  0.42766862  1
  Te  Te131  1  0.23436492  0.56722539  0.75891668  1
  Te  Te132  1  0.25705971  0.94238607  0.07372909  1
  Te  Te133  1  0.24451150  0.91123142  0.42360814  1
  Te  Te134  1  0.25381234  0.89579750  0.77042841  1
  Te  Te135  1  0.58058353  0.24662433  0.06841017  1
  Te  Te136  1  0.58213356  0.23884377  0.38915326  1
  Te  Te137  1  0.56057988  0.27363152  0.77742579  1
  Te  Te138  1  0.58694017  0.55449089  0.05816254  1
  Te  Te139  1  0.60376147  0.59033603  0.42545448  1
  Te  Te140  1  0.57608955  0.59361913  0.77240726  1
  Te  Te141  1  0.59724071  0.93138087  0.08786243  1
  Te  Te142  1  0.62819533  0.97291052  0.39579526  1
  Te  Te143  1  0.60115158  0.92227818  0.73221589  1
  Te  Te144  1  0.89323674  0.27833113  0.06669312  1
  Te  Te145  1  0.89748315  0.26110964  0.39507043  1
  Te  Te146  1  0.92391254  0.24007156  0.75229611  1
  Te  Te147  1  0.94023652  0.57195056  0.09995036  1
  Te  Te148  1  0.86626005  0.60133269  0.38740673  1
  Te  Te149  1  0.92602829  0.60068725  0.75618300  1
  Te  Te150  1  0.87118862  0.92662010  0.10832770  1
  Te  Te151  1  0.91788231  0.92303951  0.41570341  1
  Te  Te152  1  0.93071276  0.91287794  0.74850503  1
  Te  Te153  1  0.23545828  0.09239686  0.25828422  1
  Te  Te154  1  0.25957282  0.07827785  0.59906602  1
  Te  Te155  1  0.23289367  0.10557724  0.90926039  1
  Te  Te156  1  0.23559075  0.42744893  0.24616579  1
  Te  Te157  1  0.22823368  0.39637085  0.56026531  1
  Te  Te158  1  0.24922555  0.42431752  0.92256455  1
  Te  Te159  1  0.24421408  0.75028074  0.26853447  1
  Te  Te160  1  0.25686044  0.74814255  0.59123109  1
  Te  Te161  1  0.25193296  0.75219082  0.93235279  1
  Te  Te162  1  0.58134531  0.11604575  0.24893654  1
  Te  Te163  1  0.58868809  0.11445184  0.58691557  1
  Te  Te164  1  0.62433599  0.06769610  0.91855567  1
  Te  Te165  1  0.59511494  0.40574229  0.22320439  1
  Te  Te166  1  0.57174431  0.44259669  0.59157601  1
  Te  Te167  1  0.59413284  0.38615699  0.90050843  1
  Te  Te168  1  0.58122482  0.75480972  0.27090085  1
  Te  Te169  1  0.60567613  0.76915040  0.56718437  1
  Te  Te170  1  0.57107775  0.75060482  0.92974092  1
  Te  Te171  1  0.94432431  0.08365661  0.25964807  1
  Te  Te172  1  0.90056289  0.10618850  0.55309276  1
  Te  Te173  1  0.90877256  0.09091374  0.93289656  1
  Te  Te174  1  0.84918161  0.44128119  0.24493869  1
  Te  Te175  1  0.90357713  0.41003298  0.55763542  1
  Te  Te176  1  0.89743241  0.44556381  0.92077663  1
  Te  Te177  1  0.92808448  0.76575840  0.23881922  1
  Te  Te178  1  0.93151388  0.73982878  0.60163382  1
  Te  Te179  1  0.89906077  0.76195195  0.93528125  1
