# generated using pymatgen
data_In2Te3
_symmetry_space_group_name_H-M   'P 1'
_cell_length_a   18.98514471
_cell_length_b   18.97039718
_cell_length_c   18.98766979
_cell_angle_alpha   89.84497463
_cell_angle_beta   90.08343582
_cell_angle_gamma   90.09382825
_symmetry_Int_Tables_number   1
_chemical_formula_structural   In2Te3
_chemical_formula_sum   'In72 Te108'
_cell_volume   6838.47677227
_cell_formula_units_Z   36
loop_
 _symmetry_equiv_pos_site_id
 _symmetry_equiv_pos_as_xyz
  1  'x, y, z'
loop_
 _atom_site_type_symbol
 _atom_site_label
 _atom_site_symmetry_multiplicity
 _atom_site_fract_x
 _atom_site_fract_y
 _atom_site_fract_z
 _atom_site_occupancy
  In  In0  1  -0.00704935  0.66032426  0.31974350  1
  In  In1  1  0.00633457  0.01105063  0.33370030  1
  In  In2  1  0.67201372  0.69086241  0.37316418  1
  In  In3  1  0.32912378  -0.04908068  0.33173064  1
  In  In4  1  0.48337338  0.51640582  0.01639925  1
  In  In5  1  0.31860819  0.35606469  0.32612180  1
  In  In6  1  0.51590186  0.36104551  0.16993004  1
  In  In7  1  0.68151076  0.35998508  0.02586549  1
  In  In8  1  0.65812878  0.82003865  0.16848097  1
  In  In9  1  0.82893812  0.52093285  0.32323888  1
  In  In10  1  -0.00688341  0.83969111  0.16017066  1
  In  In11  1  0.31829485  0.52905556  0.85442057  1
  In  In12  1  0.32092469  0.54035328  0.49343165  1
  In  In13  1  0.17415738  0.31755179  0.85271639  1
  In  In14  1  0.15619281  0.83223902  0.00016643  1
  In  In15  1  0.36216439  -0.03890622  0.62000241  1
  In  In16  1  0.15230337  0.50813653  0.67326976  1
  In  In17  1  -0.00177947  0.66429745  0.63389318  1
  In  In18  1  0.15778507  -0.01875252  0.17466502  1
  In  In19  1  0.33055566  0.16909067  0.21653049  1
  In  In20  1  0.50289813  0.83245365  -0.01180035  1
  In  In21  1  0.00986745  0.15813327  0.49788612  1
  In  In22  1  0.16825197  0.83529029  0.63964429  1
  In  In23  1  0.49329718  0.68150625  0.15504766  1
  In  In24  1  0.81110151  0.85091707  -0.01739365  1
  In  In25  1  0.64242499  -0.00662787  0.01204017  1
  In  In26  1  -0.00341076  0.82300360  0.48713328  1
  In  In27  1  0.85922415  0.51731519  0.65186207  1
  In  In28  1  0.02100350  0.31245232  0.67306732  1
  In  In29  1  0.00569189  0.50103722  0.18064725  1
  In  In30  1  0.33908455  0.15847663  0.83662857  1
  In  In31  1  0.16839756  0.51422128  0.02521151  1
  In  In32  1  -0.00593369  0.18144530  0.85328953  1
  In  In33  1  0.01719745  0.18547511  0.20507467  1
  In  In34  1  0.36042124  0.31942119  0.64523218  1
  In  In35  1  -0.00506259  0.82355401  0.81776064  1
  In  In36  1  0.65519831  0.50589740  0.83318976  1
  In  In37  1  0.85250347  0.31023531  0.51287935  1
  In  In38  1  0.50304188  -0.02833589  0.46969974  1
  In  In39  1  0.34502578  0.83277689  0.85476512  1
  In  In40  1  0.66051067  0.15800377  0.81345665  1
  In  In41  1  0.33954527  0.70876329  0.66244797  1
  In  In42  1  0.65942910  0.50485763  0.49303620  1
  In  In43  1  0.68500246  0.34582644  0.65165685  1
  In  In44  1  0.20137196  0.12993199  0.64455250  1
  In  In45  1  0.48633526  0.51596988  0.68745434  1
  In  In46  1  -0.01842807  0.03422486  0.00628281  1
  In  In47  1  0.80673236  0.16097444  0.66187469  1
  In  In48  1  0.48978227  0.16922491  0.04048733  1
  In  In49  1  0.50811454  -0.01460708  0.82800267  1
  In  In50  1  0.78133177  0.71467403  0.52405177  1
  In  In51  1  0.51570245  0.30993702  0.47957599  1
  In  In52  1  0.82386014  0.17938730  0.02213463  1
  In  In53  1  0.50782788  0.48234943  0.33983872  1
  In  In54  1  0.66393625  0.81873849  0.82660500  1
  In  In55  1  0.84135423  0.64917168  0.87377192  1
  In  In56  1  0.00818122  -0.00342188  0.67177643  1
  In  In57  1  0.66762319  0.01255807  0.30636368  1
  In  In58  1  0.31417072  0.49328312  0.17092632  1
  In  In59  1  0.30273637  0.07476300  0.04687112  1
  In  In60  1  0.16389748  -0.01007804  0.81962022  1
  In  In61  1  0.33451636  0.67803215  0.32833500  1
  In  In62  1  0.83416797  0.82462550  0.33526744  1
  In  In63  1  0.69145356  0.32308126  0.32728934  1
  In  In64  1  0.01304768  0.65073838  0.02950045  1
  In  In65  1  0.82211873  0.15762772  0.31426368  1
  In  In66  1  -0.00426977  0.50396075  0.44476085  1
  In  In67  1  0.17972181  0.35983787  0.47678519  1
  In  In68  1  0.49991352  0.30846158  0.83102177  1
  In  In69  1  0.84203671  0.34602832  0.86256721  1
  In  In70  1  -0.01020621  0.49848447  0.88408117  1
  In  In71  1  0.51729328  0.11396962  0.62722058  1
  Te  Te72  1  0.08359194  0.09164107  0.10026692  1
  Te  Te73  1  0.10410176  0.08465205  0.41483145  1
  Te  Te74  1  0.08367199  0.10930810  0.74729787  1
  Te  Te75  1  0.09258937  0.41129512  0.09887023  1
  Te  Te76  1  0.06995584  0.39048664  0.38176281  1
  Te  Te77  1  0.07682564  0.41522692  0.77133816  1
  Te  Te78  1  0.10016416  0.74392335  0.11020895  1
  Te  Te79  1  0.08256312  0.74171713  0.40311215  1
  Te  Te80  1  0.08783030  0.74330173  0.73000935  1
  Te  Te81  1  0.42604828  0.07671611  0.14092714  1
  Te  Te82  1  0.42411528  0.05654547  0.37690255  1
  Te  Te83  1  0.41462827  0.07303141  0.73643956  1
  Te  Te84  1  0.40236391  0.40615456  0.08205387  1
  Te  Te85  1  0.40991346  0.42150789  0.43932517  1
  Te  Te86  1  0.40650577  0.41116886  0.76636161  1
  Te  Te87  1  0.40498588  0.74283373  0.05411274  1
  Te  Te88  1  0.39347350  0.76484255  0.43660474  1
  Te  Te89  1  0.43373377  0.75999191  0.76331469  1
  Te  Te90  1  0.73234279  0.08124433  0.09597580  1
  Te  Te91  1  0.75127000  0.07398315  0.41135926  1
  Te  Te92  1  0.71953271  0.06007057  0.72367014  1
  Te  Te93  1  0.78354994  0.45262532  0.07168483  1
  Te  Te94  1  0.76538010  0.41402015  0.43608141  1
  Te  Te95  1  0.77147930  0.42784146  0.74808686  1
  Te  Te96  1  0.73000591  0.75089308  0.05672015  1
  Te  Te97  1  0.72657376  0.83998481  0.44468383  1
  Te  Te98  1  0.77253196  0.72720033  0.76732781  1
  Te  Te99  1  0.11695053  0.27450714  0.27030937  1
  Te  Te100  1  0.11528514  0.24788635  0.57499215  1
  Te  Te101  1  0.07252197  0.26445695  0.94279533  1
  Te  Te102  1  0.10252760  0.57837942  0.26356938  1
  Te  Te103  1  0.08487046  0.57128134  0.55195793  1
  Te  Te104  1  0.09792467  0.59743823  0.91549333  1
  Te  Te105  1  0.08098816  0.89396500  0.27127156  1
  Te  Te106  1  0.08330362  0.92996769  0.55976461  1
  Te  Te107  1  0.06098365  0.93568312  0.91876013  1
  Te  Te108  1  0.43241894  0.27547266  0.26401342  1
  Te  Te109  1  0.42430853  0.21439425  0.55718641  1
  Te  Te110  1  0.40752043  0.24965301  0.93575743  1
  Te  Te111  1  0.42342839  0.57010643  0.25015048  1
  Te  Te112  1  0.42258061  0.60707213  0.58371376  1
  Te  Te113  1  0.42905925  0.60325073  0.91143184  1
  Te  Te114  1  0.39615327  0.85674894  0.24026006  1
  Te  Te115  1  0.44936611  0.85961861  0.55563942  1
  Te  Te116  1  0.40861141  0.94618062  0.93271397  1
  Te  Te117  1  0.79024569  0.27570927  0.22738586  1
  Te  Te118  1  0.72715454  0.23617363  0.55598564  1
  Te  Te119  1  0.73049651  0.25543005  0.91304570  1
  Te  Te120  1  0.73166680  0.61137453  0.26409145  1
  Te  Te121  1  0.73654829  0.58523817  0.59763204  1
  Te  Te122  1  0.74908931  0.55321374  0.93948772  1
  Te  Te123  1  0.76031164  0.90914787  0.23380963  1
  Te  Te124  1  0.69870048  0.83621175  0.68035976  1
  Te  Te125  1  0.72684182  0.94299964  0.89893541  1
  Te  Te126  1  0.25588984  0.20411518  0.09498695  1
  Te  Te127  1  0.26262201  0.25543122  0.41746380  1
  Te  Te128  1  0.25885647  0.25095120  0.73882754  1
  Te  Te129  1  0.26571763  0.60371347  0.08827592  1
  Te  Te130  1  0.24008258  0.57167894  0.37447716  1
  Te  Te131  1  0.25556925  0.59881606  0.73601979  1
  Te  Te132  1  0.24777168  0.92936704  0.06704097  1
  Te  Te133  1  0.27532211  0.85813023  0.43793367  1
  Te  Te134  1  0.26128219  0.91482636  0.73347146  1
  Te  Te135  1  0.60170593  0.25303646  0.10318102  1
  Te  Te136  1  0.59157788  0.23152282  0.38409181  1
  Te  Te137  1  0.57917203  0.24793397  0.71736811  1
  Te  Te138  1  0.58216770  0.57636061  0.10426523  1
  Te  Te139  1  0.55943028  0.59464315  0.42646161  1
  Te  Te140  1  0.58942570  0.60202399  0.74520429  1
  Te  Te141  1  0.55625155  0.91411105  0.10585601  1
  Te  Te142  1  0.54642497  0.92859939  0.33347239  1
  Te  Te143  1  0.55997574  0.88670491  0.73114280  1
  Te  Te144  1  0.91609464  0.25058804  0.11286859  1
  Te  Te145  1  0.92393969  0.23837272  0.40402155  1
  Te  Te146  1  0.89763942  0.25558917  0.74471912  1
  Te  Te147  1  0.90637811  0.57824593  0.09893427  1
  Te  Te148  1  0.89067975  0.61213035  0.43081306  1
  Te  Te149  1  0.93879148  0.58616627  0.76174475  1
  Te  Te150  1  0.89976329  0.92847994  0.07889591  1
  Te  Te151  1  0.91161091  0.92708869  0.41731090  1
  Te  Te152  1  0.91265858  0.92767468  0.75820812  1
  Te  Te153  1  0.23779626  0.06239941  0.27446153  1
  Te  Te154  1  0.26896754  0.04818868  0.54659297  1
  Te  Te155  1  0.22564296  0.08984232  0.91169680  1
  Te  Te156  1  0.21900207  0.38008329  0.21361049  1
  Te  Te157  1  0.26011286  0.42806182  0.59791696  1
  Te  Te158  1  0.25128153  0.41904401  0.93264673  1
  Te  Te159  1  0.27029470  0.78252586  0.24514144  1
  Te  Te160  1  0.24625165  0.74595135  0.54819270  1
  Te  Te161  1  0.22752647  0.75777209  0.89747402  1
  Te  Te162  1  0.63287669  0.11596343  0.20500688  1
  Te  Te163  1  0.61104771  0.03514593  0.55042638  1
  Te  Te164  1  0.56660643  0.10121200  0.92059687  1
  Te  Te165  1  0.62052224  0.43481326  0.25146015  1
  Te  Te166  1  0.56686863  0.41846878  0.58622904  1
  Te  Te167  1  0.57449918  0.40616776  0.92004289  1
  Te  Te168  1  0.57281025  0.74698027  0.27056219  1
  Te  Te169  1  0.63132313  0.74706739  0.51839267  1
  Te  Te170  1  0.61015950  0.74133981  0.94319167  1
  Te  Te171  1  0.91558382  0.07204035  0.23116899  1
  Te  Te172  1  0.91359480  0.08298962  0.58643477  1
  Te  Te173  1  0.88194921  0.09611868  0.90809823  1
  Te  Te174  1  0.91206539  0.41842411  0.26272383  1
  Te  Te175  1  0.94712776  0.41105874  0.57997754  1
  Te  Te176  1  0.91491758  0.40858950  0.97521226  1
  Te  Te177  1  0.90113538  0.74033849  0.22875473  1
  Te  Te178  1  0.90301482  0.77462357  0.59721687  1
  Te  Te179  1  0.93433255  0.75630451  0.94181570  1
