# generated using pymatgen
data_In2Te3
_symmetry_space_group_name_H-M   'P 1'
_cell_length_a   18.79882945
_cell_length_b   18.80155892
_cell_length_c   18.79827166
_cell_angle_alpha   90.02581381
_cell_angle_beta   90.02386492
_cell_angle_gamma   90.06464402
_symmetry_Int_Tables_number   1
_chemical_formula_structural   In2Te3
_chemical_formula_sum   'In72 Te108'
_cell_volume   6644.19287103
_cell_formula_units_Z   36
loop_
 _symmetry_equiv_pos_site_id
 _symmetry_equiv_pos_as_xyz
  1  'x, y, z'
loop_
 _atom_site_type_symbol
 _atom_site_label
 _atom_site_symmetry_multiplicity
 _atom_site_fract_x
 _atom_site_fract_y
 _atom_site_fract_z
 _atom_site_occupancy
  In  In0  1  0.66378452  0.82807737  0.49762033  1
  In  In1  1  0.68341980  0.51258445  0.51112041  1
  In  In2  1  0.82384535  0.64863912  0.84063109  1
  In  In3  1  -0.00277094  0.02559991  0.65772971  1
  In  In4  1  0.17073103  0.00362071  0.50470643  1
  In  In5  1  0.01471281  0.16272646  0.17686345  1
  In  In6  1  0.48907656  0.15984216  0.01890354  1
  In  In7  1  0.49985197  0.68152667  0.49973748  1
  In  In8  1  0.52860526  0.31168885  0.80392546  1
  In  In9  1  -0.01844667  0.50180718  0.84392162  1
  In  In10  1  0.18450753  0.00659679  0.82992575  1
  In  In11  1  0.33928462  0.50532838  0.16949064  1
  In  In12  1  0.81159131  0.00399623  0.18767765  1
  In  In13  1  0.50461105  0.83851788  0.34751578  1
  In  In14  1  0.35011865  0.84241395  0.50006741  1
  In  In15  1  -0.00490596  0.49643544  0.17370053  1
  In  In16  1  -0.02079760  0.48706968  0.49887641  1
  In  In17  1  0.34712740  0.51566302  0.84644812  1
  In  In18  1  0.17090095  0.82554306  0.68780716  1
  In  In19  1  0.51511348  0.34727068  0.49491961  1
  In  In20  1  0.00801304  0.83878555  0.82312721  1
  In  In21  1  0.81022879  0.65917147  0.16303515  1
  In  In22  1  0.85322066  0.00214045  0.52199665  1
  In  In23  1  0.81857667  0.83065354  0.00866263  1
  In  In24  1  0.67661889  0.64765020  0.34161521  1
  In  In25  1  0.01381167  0.64471746  -0.00856648  1
  In  In26  1  -0.01987965  0.16870119  0.51486985  1
  In  In27  1  0.49535222  0.17186729  0.33258769  1
  In  In28  1  0.50290291  0.64928446  0.15559261  1
  In  In29  1  0.16611659  0.80991128  0.30739822  1
  In  In30  1  0.66179639  0.01780939  0.33126353  1
  In  In31  1  0.66368128  0.84102707  0.15539696  1
  In  In32  1  0.01745747  0.82046445  0.18859961  1
  In  In33  1  0.33611274  0.15824824  0.84367614  1
  In  In34  1  0.34419489  0.34709671  0.02286176  1
  In  In35  1  -0.03658119  0.82556411  0.51485909  1
  In  In36  1  0.48800306  0.80144047  0.70557178  1
  In  In37  1  0.48681296  0.48810984  0.00785425  1
  In  In38  1  -0.01862990  0.01550472  0.00514869  1
  In  In39  1  0.67527449  0.49522436  0.82588645  1
  In  In40  1  0.64351865  0.16424883  0.51966692  1
  In  In41  1  0.17289153  0.33128147  0.15069407  1
  In  In42  1  0.18409392  -0.01286899  0.16469831  1
  In  In43  1  0.82239278  0.31222215  0.79980135  1
  In  In44  1  0.33043046  0.49795017  0.48139093  1
  In  In45  1  0.16309837  0.17563488  0.33681294  1
  In  In46  1  0.34585127  0.01739151  0.33717839  1
  In  In47  1  0.81908960  0.37769453  0.14767260  1
  In  In48  1  0.64941641  -0.00259099  -0.01466588  1
  In  In49  1  0.52116297  0.81943118  -0.03918788  1
  In  In50  1  0.15288088  0.33287138  0.48522569  1
  In  In51  1  0.82319740  0.19454348  -0.01891319  1
  In  In52  1  -0.00417130  0.32904665  -0.01060351  1
  In  In53  1  0.20756664  0.84462022  0.00179392  1
  In  In54  1  0.81758720  0.33842438  0.49075572  1
  In  In55  1  0.82962049  0.18775509  0.33253073  1
  In  In56  1  0.52053108  0.51732561  0.66139314  1
  In  In57  1  0.80069388  0.02865721  0.81947791  1
  In  In58  1  0.65269301  0.16568945  0.16324885  1
  In  In59  1  0.82043233  0.81565526  0.67430633  1
  In  In60  1  0.17843741  0.65430862  0.50066565  1
  In  In61  1  0.33396622  0.31864983  0.31833110  1
  In  In62  1  0.18515465  0.66552318  0.16595676  1
  In  In63  1  0.15863810  0.16554912  0.65240019  1
  In  In64  1  0.35566929  0.32695472  0.64522524  1
  In  In65  1  -0.01200172  0.68600524  0.67287885  1
  In  In66  1  0.15590539  0.33299866  0.83954880  1
  In  In67  1  0.17285798  0.50479145  0.69991644  1
  In  In68  1  0.34108174  -0.00830135  0.66808828  1
  In  In69  1  0.34390959  0.66400164  0.00075335  1
  In  In70  1  0.51232584  0.00232877  0.82717424  1
  In  In71  1  -0.01887097  0.65358256  0.35257353  1
  Te  Te72  1  0.09741554  0.08298001  0.07792307  1
  Te  Te73  1  0.07322549  0.08674739  0.42342181  1
  Te  Te74  1  0.08100427  0.09722386  0.76492240  1
  Te  Te75  1  0.08246400  0.42510200  0.07052834  1
  Te  Te76  1  0.08999582  0.44223026  0.41117718  1
  Te  Te77  1  0.06231276  0.41104167  0.74849056  1
  Te  Te78  1  0.08987516  0.75681441  0.06974486  1
  Te  Te79  1  0.07657663  0.75551172  0.42660154  1
  Te  Te80  1  0.09629082  0.72452521  0.77507939  1
  Te  Te81  1  0.38295027  0.06365316  0.04985816  1
  Te  Te82  1  0.43233267  0.08595504  0.43602376  1
  Te  Te83  1  0.42456497  0.09897821  0.73695784  1
  Te  Te84  1  0.44482929  0.40122504  0.12724294  1
  Te  Te85  1  0.42539681  0.41732219  0.39303557  1
  Te  Te86  1  0.42337607  0.42091848  0.74550292  1
  Te  Te87  1  0.43317361  0.75830697  0.07867851  1
  Te  Te88  1  0.39952763  0.73860290  0.40044794  1
  Te  Te89  1  0.38342971  0.72065925  0.77064579  1
  Te  Te90  1  0.75776122  0.07773505  0.06748318  1
  Te  Te91  1  0.75721437  0.09147897  0.42900149  1
  Te  Te92  1  0.70101051  0.10720593  0.74265258  1
  Te  Te93  1  0.71618606  0.45105917  0.07362125  1
  Te  Te94  1  0.73145763  0.42285055  0.39399075  1
  Te  Te95  1  0.75498209  0.42151918  0.72315074  1
  Te  Te96  1  0.71683810  0.73202158  0.06240697  1
  Te  Te97  1  0.75565260  0.75210852  0.41089704  1
  Te  Te98  1  0.73019953  0.74693583  0.77320119  1
  Te  Te99  1  0.07805115  0.27455886  0.25844127  1
  Te  Te100  1  0.06549224  0.26956727  0.59344906  1
  Te  Te101  1  0.08835928  0.23452658  0.92510396  1
  Te  Te102  1  0.08382152  0.59298950  0.25357342  1
  Te  Te103  1  0.08153658  0.58489145  0.59699597  1
  Te  Te104  1  0.10115305  0.56966505  0.90058357  1
  Te  Te105  1  0.08240255  0.93370851  0.26633395  1
  Te  Te106  1  0.08259004  0.91013240  0.59348715  1
  Te  Te107  1  0.08531256  0.92264743  0.92486478  1
  Te  Te108  1  0.42396294  0.24558347  0.22581310  1
  Te  Te109  1  0.43768123  0.23879362  0.56120247  1
  Te  Te110  1  0.41944434  0.26849159  0.90821838  1
  Te  Te111  1  0.42904051  0.57845591  0.26104643  1
  Te  Te112  1  0.41094023  0.58458171  0.57979467  1
  Te  Te113  1  0.45428676  0.60244840  0.91279677  1
  Te  Te114  1  0.41741390  0.91615936  0.25671916  1
  Te  Te115  1  0.44545214  0.90894680  0.59528281  1
  Te  Te116  1  0.42291562  0.91678623  0.90894081  1
  Te  Te117  1  0.74429140  0.26555328  0.23413234  1
  Te  Te118  1  0.73892640  0.25559160  0.58845749  1
  Te  Te119  1  0.72440421  0.26917113  0.90376383  1
  Te  Te120  1  0.73681107  0.55590196  0.24050387  1
  Te  Te121  1  0.75292063  0.61208592  0.59278113  1
  Te  Te122  1  0.75418888  0.55957379  0.93751175  1
  Te  Te123  1  0.74355323  0.89952030  0.27269205  1
  Te  Te124  1  0.74625179  0.92032343  0.59306455  1
  Te  Te125  1  0.74437051  0.91197468  0.90249658  1
  Te  Te126  1  0.26280341  0.23886139  0.08088901  1
  Te  Te127  1  0.26299805  0.24259158  0.43116527  1
  Te  Te128  1  0.25352096  0.25335063  0.74450166  1
  Te  Te129  1  0.24505496  0.56792718  0.06682547  1
  Te  Te130  1  0.25187213  0.58678471  0.39289434  1
  Te  Te131  1  0.28006560  0.60288766  0.74208649  1
  Te  Te132  1  0.29933658  0.92817534  0.08671374  1
  Te  Te133  1  0.24347221  0.90906482  0.41008304  1
  Te  Te134  1  0.27563838  0.90049688  0.77054553  1
  Te  Te135  1  0.58172026  0.26035147  0.07665412  1
  Te  Te136  1  0.60742996  0.25936294  0.39495477  1
  Te  Te137  1  0.60493724  0.22749749  0.70660369  1
  Te  Te138  1  0.59898054  0.55508342  0.08756727  1
  Te  Te139  1  0.57136961  0.57223575  0.42230397  1
  Te  Te140  1  0.58568644  0.60236594  0.76549046  1
  Te  Te141  1  0.56072030  0.92219786  0.08073398  1
  Te  Te142  1  0.57915852  0.94016293  0.43382441  1
  Te  Te143  1  0.58756527  0.90367170  0.74618568  1
  Te  Te144  1  0.91373973  0.24656221  0.09705756  1
  Te  Te145  1  0.93114463  0.26938639  0.41093412  1
  Te  Te146  1  0.92141496  0.22109467  0.74138414  1
  Te  Te147  1  0.90856123  0.57685154  0.07565920  1
  Te  Te148  1  0.88291754  0.56693401  0.41910898  1
  Te  Te149  1  0.90287638  0.57456194  0.73424237  1
  Te  Te150  1  0.91517353  0.91184075  0.09804600  1
  Te  Te151  1  0.91437937  0.92137363  0.41550342  1
  Te  Te152  1  0.91011483  0.92675746  0.74646871  1
  Te  Te153  1  0.25590684  0.09888375  0.24387722  1
  Te  Te154  1  0.26949472  0.09292010  0.57690843  1
  Te  Te155  1  0.26015284  0.07364108  0.94108001  1
  Te  Te156  1  0.24178844  0.42115800  0.25357609  1
  Te  Te157  1  0.24246882  0.41968318  0.59108813  1
  Te  Te158  1  0.25507868  0.41946505  0.92006451  1
  Te  Te159  1  0.27766285  0.76420093  0.22336399  1
  Te  Te160  1  0.25908568  0.75331914  0.58584819  1
  Te  Te161  1  0.26159516  0.74584344  0.90620456  1
  Te  Te162  1  0.55999221  0.06705463  0.23064173  1
  Te  Te163  1  0.59969195  0.07203136  0.62701736  1
  Te  Te164  1  0.58518502  0.11168123  0.91013211  1
  Te  Te165  1  0.62541315  0.37418706  0.29450332  1
  Te  Te166  1  0.60719311  0.40960869  0.59951331  1
  Te  Te167  1  0.57762072  0.40944489  0.90972324  1
  Te  Te168  1  0.58772414  0.74685855  0.25211499  1
  Te  Te169  1  0.59319072  0.74151341  0.60108854  1
  Te  Te170  1  0.60543660  0.73690761  0.86993640  1
  Te  Te171  1  0.91787671  0.08148962  0.26388716  1
  Te  Te172  1  0.88007353  0.12401185  0.62776482  1
  Te  Te173  1  0.91202015  0.09962336  0.89856279  1
  Te  Te174  1  0.90425937  0.41950009  0.26051209  1
  Te  Te175  1  0.89383405  0.41364846  0.59565251  1
  Te  Te176  1  0.88989473  0.40581355  0.91579701  1
  Te  Te177  1  0.90448876  0.74389617  0.25334755  1
  Te  Te178  1  0.87247564  0.71084983  0.56667911  1
  Te  Te179  1  0.91862826  0.75462709  0.91879973  1
