# generated using pymatgen
data_In2Te3
_symmetry_space_group_name_H-M   'P 1'
_cell_length_a   18.80186142
_cell_length_b   18.81347644
_cell_length_c   18.80311710
_cell_angle_alpha   90.07829688
_cell_angle_beta   89.99762337
_cell_angle_gamma   89.93588196
_symmetry_Int_Tables_number   1
_chemical_formula_structural   In2Te3
_chemical_formula_sum   'In72 Te108'
_cell_volume   6651.18570986
_cell_formula_units_Z   36
loop_
 _symmetry_equiv_pos_site_id
 _symmetry_equiv_pos_as_xyz
  1  'x, y, z'
loop_
 _atom_site_type_symbol
 _atom_site_label
 _atom_site_symmetry_multiplicity
 _atom_site_fract_x
 _atom_site_fract_y
 _atom_site_fract_z
 _atom_site_occupancy
  In  In0  1  0.35215168  0.67236990  0.02760471  1
  In  In1  1  -0.00828442  0.00667754  0.66486766  1
  In  In2  1  0.66275158  0.31705791  0.67608388  1
  In  In3  1  -0.00430316  0.83258069  0.49463639  1
  In  In4  1  0.34688124  0.51032914  0.49524738  1
  In  In5  1  0.85178012  0.16982040  0.66046069  1
  In  In6  1  -0.02672500  0.36735382  0.64375474  1
  In  In7  1  0.33827901  0.46681890  0.83154294  1
  In  In8  1  0.50543429  0.00686118  0.18037539  1
  In  In9  1  0.33562757  0.33736782  0.31203899  1
  In  In10  1  0.13495256  0.30904701  0.86196719  1
  In  In11  1  0.31353188  0.20057102  0.14710533  1
  In  In12  1  0.15932226  0.14728002  0.33045324  1
  In  In13  1  0.00601259  0.83562095  0.18115447  1
  In  In14  1  0.50637708  0.82131460  0.35224905  1
  In  In15  1  0.16969478  0.67206017  0.81999265  1
  In  In16  1  0.67060801  0.50630508  0.48197980  1
  In  In17  1  0.65997129  -0.00818353  0.65121722  1
  In  In18  1  0.17119344  0.50408719  0.32680349  1
  In  In19  1  0.15442836  0.51448418  0.65452234  1
  In  In20  1  0.17384374  0.85414110  0.68069988  1
  In  In21  1  0.35611381  0.16752573  0.84472335  1
  In  In22  1  -0.02984420  0.32695505  0.31863913  1
  In  In23  1  0.50709416  0.33417568  0.18010106  1
  In  In24  1  -0.02768263  0.48949937  0.83383940  1
  In  In25  1  0.65545244  -0.00160742  0.32977100  1
  In  In26  1  0.52535521  0.65657973  0.16518060  1
  In  In27  1  0.66105541  0.48909637  0.82999780  1
  In  In28  1  0.31853291  0.85005808  0.83934058  1
  In  In29  1  0.16295144  0.00417671  0.83679596  1
  In  In30  1  0.82112022  0.01994185  0.17432197  1
  In  In31  1  0.81835704  0.66031165  0.82224574  1
  In  In32  1  0.02378222  0.64907546  0.67188636  1
  In  In33  1  0.51761563  0.19678185  0.01112090  1
  In  In34  1  0.15551642  0.86324589  0.01064234  1
  In  In35  1  0.17793799  0.16388795  0.65131761  1
  In  In36  1  0.66515415  0.16051224  0.50525781  1
  In  In37  1  -0.00810920  0.02512761  0.00001887  1
  In  In38  1  0.36188636  0.51272629  0.17445372  1
  In  In39  1  0.81591552  0.82060454  0.67376141  1
  In  In40  1  0.01447971  0.17703917  0.14781646  1
  In  In41  1  0.50863060  0.49131049  0.00316066  1
  In  In42  1  0.50672604  0.32717916  0.49210325  1
  In  In43  1  0.34646535  0.34377858  0.68468795  1
  In  In44  1  0.82273955  0.83123986  -0.00631130  1
  In  In45  1  0.65809830  0.17181525  0.83013850  1
  In  In46  1  -0.02209419  0.67084327  0.01284012  1
  In  In47  1  0.34166691  0.84049418  0.48882254  1
  In  In48  1  -0.01216966  0.64878733  0.34578665  1
  In  In49  1  0.33816665  -0.00134394  0.34036397  1
  In  In50  1  0.81856271  0.65420913  0.48789700  1
  In  In51  1  0.34407663  0.14693317  0.49172230  1
  In  In52  1  0.81049567  0.63292116  0.20718373  1
  In  In53  1  0.83220603  0.33468965  0.84478960  1
  In  In54  1  0.15535377  0.48992876  -0.00282765  1
  In  In55  1  0.81900449  0.16543562  0.01614474  1
  In  In56  1  -0.01550511  0.48013302  0.16616456  1
  In  In57  1  0.67221863  0.82559307  0.49305718  1
  In  In58  1  0.15901250  0.66604105  0.48474411  1
  In  In59  1  0.67262224  0.65850897  -0.00859129  1
  In  In60  1  0.82082627  0.18407994  0.33094141  1
  In  In61  1  0.66267117  0.84857402  0.16486292  1
  In  In62  1  0.20612279  0.69712646  0.20257114  1
  In  In63  1  0.68024153  0.34368315  0.33917309  1
  In  In64  1  0.14761777  0.32881989  0.49606923  1
  In  In65  1  0.82956973  -0.00014869  0.85907363  1
  In  In66  1  0.52001462  0.67073479  0.83717422  1
  In  In67  1  0.50572550  0.83109154  0.64121232  1
  In  In68  1  0.32824372  -0.00585199  0.00633189  1
  In  In69  1  0.49439517  0.00478213  0.82209738  1
  In  In70  1  0.36191545  0.66414120  0.64151545  1
  In  In71  1  0.01516982  -0.01322074  0.34209634  1
  Te  Te72  1  0.10187265  0.07262938  0.08640451  1
  Te  Te73  1  0.08204796  0.08140510  0.43627254  1
  Te  Te74  1  0.07956908  0.09810755  0.75150131  1
  Te  Te75  1  0.07682616  0.39660427  0.08243958  1
  Te  Te76  1  0.07075780  0.41733291  0.40027500  1
  Te  Te77  1  0.09264374  0.42034539  0.75699646  1
  Te  Te78  1  0.09043355  0.74116629  0.08689783  1
  Te  Te79  1  0.08404850  0.75917325  0.39178331  1
  Te  Te80  1  0.07189796  0.76985590  0.75633711  1
  Te  Te81  1  0.41439173  0.09875044  0.07988654  1
  Te  Te82  1  0.44183465  0.08282797  0.40252669  1
  Te  Te83  1  0.41297808  0.09013109  0.73273304  1
  Te  Te84  1  0.41092983  0.40296042  0.08144446  1
  Te  Te85  1  0.42696269  0.42056524  0.40015318  1
  Te  Te86  1  0.44946486  0.43207095  0.74214204  1
  Te  Te87  1  0.44172914  0.76187336  0.09920810  1
  Te  Te88  1  0.43057223  0.73166216  0.44327874  1
  Te  Te89  1  0.40844893  0.75580152  0.75664201  1
  Te  Te90  1  0.72517817  0.06461638  0.07167376  1
  Te  Te91  1  0.75591740  0.07523577  0.41680543  1
  Te  Te92  1  0.75374925  0.08409895  0.74448486  1
  Te  Te93  1  0.82682984  0.39949801  0.09365984  1
  Te  Te94  1  0.77597382  0.40130628  0.44401272  1
  Te  Te95  1  0.76153856  0.41637244  0.73788643  1
  Te  Te96  1  0.76087403  0.73897309  0.09856890  1
  Te  Te97  1  0.74985596  0.74616304  0.39499570  1
  Te  Te98  1  0.71971659  0.75095314  0.76072303  1
  Te  Te99  1  0.09228903  0.25872078  0.25198920  1
  Te  Te100  1  0.06286304  0.25163289  0.59273159  1
  Te  Te101  1  0.08301434  0.22880097  0.97850402  1
  Te  Te102  1  0.07995256  0.58791525  0.23674647  1
  Te  Te103  1  0.06164148  0.56542821  0.54679558  1
  Te  Te104  1  0.07223961  0.58962372  0.90751550  1
  Te  Te105  1  0.10063746  0.93548066  0.23153064  1
  Te  Te106  1  0.08790247  0.92368660  0.57653621  1
  Te  Te107  1  0.05923698  0.91873757  0.90841409  1
  Te  Te108  1  0.42226408  0.22839052  0.25189421  1
  Te  Te109  1  0.41305092  0.24952979  0.58392511  1
  Te  Te110  1  0.43064018  0.27188351  0.91720917  1
  Te  Te111  1  0.42568940  0.60759610  0.26552744  1
  Te  Te112  1  0.45492370  0.57085001  0.57596165  1
  Te  Te113  1  0.40963107  0.58054832  0.91811806  1
  Te  Te114  1  0.42098789  0.90245689  0.25287616  1
  Te  Te115  1  0.41027697  0.92768745  0.58506684  1
  Te  Te116  1  0.42704572  0.91065452  0.92558783  1
  Te  Te117  1  0.72958185  0.24878089  0.23187786  1
  Te  Te118  1  0.76057536  0.25715735  0.57503430  1
  Te  Te119  1  0.73251023  0.25975610  0.93056866  1
  Te  Te120  1  0.71579805  0.54896497  0.28935683  1
  Te  Te121  1  0.71622695  0.60585183  0.58550483  1
  Te  Te122  1  0.76387976  0.55850215  0.92120819  1
  Te  Te123  1  0.76313931  0.91053123  0.26207316  1
  Te  Te124  1  0.76687011  0.91996002  0.56960429  1
  Te  Te125  1  0.72712681  0.91201364  0.91680223  1
  Te  Te126  1  0.20708126  0.26426621  0.06541808  1
  Te  Te127  1  0.25290459  0.25475104  0.41305270  1
  Te  Te128  1  0.24209777  0.25659310  0.75704649  1
  Te  Te129  1  0.24453860  0.58148039  0.08619738  1
  Te  Te130  1  0.26626201  0.59844688  0.39944780  1
  Te  Te131  1  0.26429404  0.57868976  0.74426812  1
  Te  Te132  1  0.25975932  0.90620616  0.10364699  1
  Te  Te133  1  0.23737170  0.89869051  0.39679201  1
  Te  Te134  1  0.27108742  0.95528901  0.73992053  1
  Te  Te135  1  0.61444631  0.27150657  0.09754768  1
  Te  Te136  1  0.58628873  0.23786853  0.39915611  1
  Te  Te137  1  0.55819792  0.24295932  0.74846930  1
  Te  Te138  1  0.61635985  0.55546103  0.08948529  1
  Te  Te139  1  0.58916553  0.56953937  0.37522378  1
  Te  Te140  1  0.59677861  0.59025239  0.74203290  1
  Te  Te141  1  0.58344472  0.93462945  0.07597013  1
  Te  Te142  1  0.57315907  0.92911279  0.43730659  1
  Te  Te143  1  0.58547789  0.90340726  0.75024005  1
  Te  Te144  1  0.88868394  0.26131315  0.11208281  1
  Te  Te145  1  0.92202695  0.23714444  0.42484410  1
  Te  Te146  1  0.93066789  0.26536328  0.75030181  1
  Te  Te147  1  0.88968481  0.57399382  0.08610172  1
  Te  Te148  1  0.89493545  0.55053337  0.40912006  1
  Te  Te149  1  0.90261117  0.57291620  0.72785044  1
  Te  Te150  1  0.91401523  0.91941361  0.08400008  1
  Te  Te151  1  0.90783989  0.90474325  0.40151401  1
  Te  Te152  1  0.90546791  0.91695736  0.75428835  1
  Te  Te153  1  0.26249916  0.08745066  0.23726899  1
  Te  Te154  1  0.23543658  0.06835738  0.55455606  1
  Te  Te155  1  0.24770898  0.09500605  0.92499914  1
  Te  Te156  1  0.24441671  0.41910467  0.22426662  1
  Te  Te157  1  0.25017414  0.41679337  0.57472674  1
  Te  Te158  1  0.25079359  0.39035693  0.92848291  1
  Te  Te159  1  0.27655740  0.79039082  0.28981500  1
  Te  Te160  1  0.23521606  0.74099155  0.59503843  1
  Te  Te161  1  0.24488939  0.74910581  0.92877404  1
  Te  Te162  1  0.60627943  0.10050203  0.23477952  1
  Te  Te163  1  0.56845319  0.08942605  0.59102783  1
  Te  Te164  1  0.57783105  0.08299526  0.92301922  1
  Te  Te165  1  0.58791771  0.43594334  0.26170036  1
  Te  Te166  1  0.59134691  0.41412638  0.58156512  1
  Te  Te167  1  0.58814225  0.39798627  0.92086596  1
  Te  Te168  1  0.60612351  0.74726642  0.26258891  1
  Te  Te169  1  0.58905127  0.72948299  0.57214065  1
  Te  Te170  1  0.57434105  0.75668672  0.94308739  1
  Te  Te171  1  0.92912687  0.09403171  0.25045919  1
  Te  Te172  1  0.91205245  0.07729153  0.56242571  1
  Te  Te173  1  0.91557188  0.11782103  0.90616370  1
  Te  Te174  1  0.87002259  0.41399626  0.24155487  1
  Te  Te175  1  0.89132668  0.44035295  0.54514819  1
  Te  Te176  1  0.92632816  0.39959738  0.94199646  1
  Te  Te177  1  0.90930706  0.74186353  0.25327332  1
  Te  Te178  1  0.92107116  0.73703004  0.58834424  1
  Te  Te179  1  0.91465687  0.75090404  0.90092776  1
