# generated using pymatgen
data_In2Te3
_symmetry_space_group_name_H-M   'P 1'
_cell_length_a   18.97753882
_cell_length_b   18.98682074
_cell_length_c   18.96442432
_cell_angle_alpha   89.87026020
_cell_angle_beta   90.09021190
_cell_angle_gamma   89.97455332
_symmetry_Int_Tables_number   1
_chemical_formula_structural   In2Te3
_chemical_formula_sum   'In72 Te108'
_cell_volume   6833.29401414
_cell_formula_units_Z   36
loop_
 _symmetry_equiv_pos_site_id
 _symmetry_equiv_pos_as_xyz
  1  'x, y, z'
loop_
 _atom_site_type_symbol
 _atom_site_label
 _atom_site_symmetry_multiplicity
 _atom_site_fract_x
 _atom_site_fract_y
 _atom_site_fract_z
 _atom_site_occupancy
  In  In0  1  0.67455413  0.79303504  0.19408880  1
  In  In1  1  0.36172769  0.35850310  -0.00429754  1
  In  In2  1  -0.03515330  0.37061164  0.37799086  1
  In  In3  1  0.50466637  0.82213387  0.66532089  1
  In  In4  1  0.64319950  0.62862757  0.00350379  1
  In  In5  1  0.10078208  0.19607383  0.35706512  1
  In  In6  1  0.85763032  0.66472321  0.50142755  1
  In  In7  1  0.33475853  0.20149233  0.48583305  1
  In  In8  1  0.20734879  0.35009693  0.15915978  1
  In  In9  1  0.84017286  0.20663469  0.67891663  1
  In  In10  1  0.82328254  0.17758759  -0.02519185  1
  In  In11  1  0.80589888  -0.00170785  0.18404925  1
  In  In12  1  0.31526368  0.14332350  0.19590946  1
  In  In13  1  0.85706576  0.65141411  0.80278451  1
  In  In14  1  0.17624583  0.65134041  0.81470043  1
  In  In15  1  0.14680280  -0.00072817  0.81664532  1
  In  In16  1  0.81601095  0.50905319  0.35374375  1
  In  In17  1  0.50394823  0.17476238  0.34180505  1
  In  In18  1  0.34611082  0.80372973  0.84031508  1
  In  In19  1  0.65167581  0.17764224  0.85199686  1
  In  In20  1  0.13633353  0.36902021  0.79188624  1
  In  In21  1  0.00157077  0.35483242  -0.03171885  1
  In  In22  1  0.50743881  0.15054496  0.01685656  1
  In  In23  1  0.51047541  0.48981436  0.32502928  1
  In  In24  1  -0.02030947  0.17291577  0.18497069  1
  In  In25  1  0.81805151  0.01193478  0.49100460  1
  In  In26  1  0.49072368  -0.02002042  0.81512056  1
  In  In27  1  0.51227126  0.64079206  0.51518533  1
  In  In28  1  0.14345626  -0.00658256  0.18262751  1
  In  In29  1  0.33638386  0.34944600  0.32077052  1
  In  In30  1  0.03164499  0.50963419  0.16806731  1
  In  In31  1  0.83507897  0.64963901  0.19643325  1
  In  In32  1  0.85086580  0.80896618  -0.00202364  1
  In  In33  1  0.31633226  -0.00031696  0.66579223  1
  In  In34  1  0.86411866  0.81300480  0.34863861  1
  In  In35  1  0.31670934  0.34888191  0.65535961  1
  In  In36  1  0.67095639  -0.01395970  0.65215544  1
  In  In37  1  0.14821724  0.18760426  0.00242346  1
  In  In38  1  0.03691935  0.66646790  -0.00081767  1
  In  In39  1  0.56861593  -0.05378921  0.24825520  1
  In  In40  1  0.50287882  0.14986512  0.68104173  1
  In  In41  1  0.65042163  0.22529173  0.18431677  1
  In  In42  1  0.29934794  0.21790766  0.82361891  1
  In  In43  1  0.56182075  0.41438252  0.51305385  1
  In  In44  1  0.16342611  0.80017351  0.37209731  1
  In  In45  1  -0.04979250  0.00537124  0.00464855  1
  In  In46  1  0.82893826  -0.00091158  0.81338781  1
  In  In47  1  0.23376105  0.52276833  -0.03027445  1
  In  In48  1  0.67430264  0.33701026  0.35021921  1
  In  In49  1  0.09793628  0.75250455  0.61716473  1
  In  In50  1  0.33515913  0.01015967  -0.00791542  1
  In  In51  1  0.68624570  0.68257052  0.66410440  1
  In  In52  1  0.72181581  -0.03560711  0.04929557  1
  In  In53  1  0.08343609  0.39326458  0.55843605  1
  In  In54  1  0.31944704  0.79921427  0.53508072  1
  In  In55  1  -0.00841206  -0.01386849  0.66014196  1
  In  In56  1  0.32905161  0.52422249  0.48459020  1
  In  In57  1  0.34899931  0.79233208  0.12259627  1
  In  In58  1  0.65545218  0.38349248  -0.02398294  1
  In  In59  1  0.18000313  -0.00671167  0.50078415  1
  In  In60  1  0.53264690  0.78543359  0.02922267  1
  In  In61  1  0.33382097  0.66609444  0.33958245  1
  In  In62  1  0.16756952  0.86065873  -0.01382741  1
  In  In63  1  0.17396015  0.66967919  0.14957381  1
  In  In64  1  0.67322522  0.16671095  0.52394077  1
  In  In65  1  0.00776046  -0.00722232  0.37589323  1
  In  In66  1  0.40618888  -0.05407293  0.34447842  1
  In  In67  1  0.82280477  0.34019941  0.16102588  1
  In  In68  1  0.65272900  0.51287616  0.78326996  1
  In  In69  1  0.47578950  0.34438426  0.81424708  1
  In  In70  1  0.84719869  0.49899999  -0.01978897  1
  In  In71  1  0.84877123  0.50718673  0.66859732  1
  Te  Te72  1  0.06733130  0.08034629  0.08007125  1
  Te  Te73  1  0.06982729  0.09364038  0.47150739  1
  Te  Te74  1  0.07930654  0.08658847  0.72231332  1
  Te  Te75  1  0.09666273  0.41316451  0.07064793  1
  Te  Te76  1  0.09575022  0.42387836  0.41070730  1
  Te  Te77  1  0.07946165  0.46511602  0.69376984  1
  Te  Te78  1  0.08601683  0.77985249  0.08580564  1
  Te  Te79  1  0.05541131  0.74442556  0.45992442  1
  Te  Te80  1  0.10454318  0.76825469  0.76523903  1
  Te  Te81  1  0.41805941  0.06736097  0.10611706  1
  Te  Te82  1  0.39783013  0.08886042  0.40678128  1
  Te  Te83  1  0.39209773  0.08793644  0.76632324  1
  Te  Te84  1  0.42184306  0.44935499  0.08947955  1
  Te  Te85  1  0.42385487  0.40946765  0.43192780  1
  Te  Te86  1  0.40308388  0.44582254  0.73025914  1
  Te  Te87  1  0.41947899  0.69007390  0.04215346  1
  Te  Te88  1  0.42034275  0.73836630  0.44009253  1
  Te  Te89  1  0.42526473  0.72518730  0.74490431  1
  Te  Te90  1  0.74770288  0.11007275  0.08705785  1
  Te  Te91  1  0.73024344  0.09681228  0.40952034  1
  Te  Te92  1  0.72859794  0.09566739  0.74877591  1
  Te  Te93  1  0.74646387  0.44422508  0.08201457  1
  Te  Te94  1  0.77787479  0.39461885  0.43968946  1
  Te  Te95  1  0.74894561  0.41293920  0.72890925  1
  Te  Te96  1  0.75029850  0.72703349  0.08141612  1
  Te  Te97  1  0.76206507  0.72460083  0.40551625  1
  Te  Te98  1  0.78139321  0.76336330  0.74328195  1
  Te  Te99  1  0.09172619  0.26514087  0.22018985  1
  Te  Te100  1  -0.00943014  0.28427249  0.62593409  1
  Te  Te101  1  0.07822676  0.25350249  0.88687543  1
  Te  Te102  1  0.08072465  0.61841193  0.25331831  1
  Te  Te103  1  0.07193074  0.59693794  0.49019968  1
  Te  Te104  1  0.09664086  0.56152910  0.91106249  1
  Te  Te105  1  0.08218601  0.89878743  0.28378876  1
  Te  Te106  1  0.10774386  0.90806408  0.59855664  1
  Te  Te107  1  0.05309297  0.93170540  0.91694994  1
  Te  Te108  1  0.41600415  0.24891726  0.24070630  1
  Te  Te109  1  0.42045540  0.25153480  0.60013298  1
  Te  Te110  1  0.42677126  0.23422673  0.91499684  1
  Te  Te111  1  0.44377784  0.60524662  0.25725679  1
  Te  Te112  1  0.41296752  0.57022310  0.59703467  1
  Te  Te113  1  0.35140714  0.55146510  0.88563670  1
  Te  Te114  1  0.44393597  0.84504365  0.23045342  1
  Te  Te115  1  0.40910827  0.91209886  0.58672959  1
  Te  Te116  1  0.42351870  0.90357542  0.92959919  1
  Te  Te117  1  0.77364912  0.24662225  0.26770757  1
  Te  Te118  1  0.76587263  0.27234704  0.56886433  1
  Te  Te119  1  0.74711917  0.28538432  0.90172428  1
  Te  Te120  1  0.72840812  0.56901329  0.25351004  1
  Te  Te121  1  0.75455887  0.58109291  0.57577420  1
  Te  Te122  1  0.75419889  0.58601190  0.89787783  1
  Te  Te123  1  0.74694847  0.89396772  0.27940664  1
  Te  Te124  1  0.74077440  0.90405173  0.55464506  1
  Te  Te125  1  0.76338874  0.90483686  0.91817530  1
  Te  Te126  1  0.27158038  0.23628453  0.07686165  1
  Te  Te127  1  0.23434869  0.26704979  0.39574156  1
  Te  Te128  1  0.20697368  0.26041086  0.71120443  1
  Te  Te129  1  0.26642604  0.55973309  0.11077089  1
  Te  Te130  1  0.22289996  0.61415542  0.42711374  1
  Te  Te131  1  0.27180936  0.55057781  0.76163461  1
  Te  Te132  1  0.25458413  0.92890624  0.09884617  1
  Te  Te133  1  0.26828952  0.90326527  0.41579139  1
  Te  Te134  1  0.25599154  0.90590124  0.76655061  1
  Te  Te135  1  0.58218319  0.27530120  0.05996947  1
  Te  Te136  1  0.57276983  0.26459434  0.44366139  1
  Te  Te137  1  0.58327447  0.26087922  0.74478857  1
  Te  Te138  1  0.53045950  0.55954394  0.06794883  1
  Te  Te139  1  0.59931011  0.54110665  0.43883358  1
  Te  Te140  1  0.57373468  0.63559853  0.75071576  1
  Te  Te141  1  0.58879994  0.91256961  0.09544962  1
  Te  Te142  1  0.54382079  0.92538477  0.39206602  1
  Te  Te143  1  0.60102806  0.89775206  0.75587031  1
  Te  Te144  1  0.91891402  0.25957173  0.06553823  1
  Te  Te145  1  0.96060172  0.22747555  0.40162298  1
  Te  Te146  1  0.92589315  0.29536052  0.76020046  1
  Te  Te147  1  0.92664805  0.58667643  0.07603341  1
  Te  Te148  1  0.93884368  0.57104255  0.41290596  1
  Te  Te149  1  0.96514543  0.59332063  0.71462146  1
  Te  Te150  1  0.90364626  0.90381921  0.10578929  1
  Te  Te151  1  0.92275986  0.90124367  0.45793963  1
  Te  Te152  1  0.90190818  0.89756366  0.73808321  1
  Te  Te153  1  0.20282034  0.09126015  0.27884702  1
  Te  Te154  1  0.25556515  0.10338625  0.57538079  1
  Te  Te155  1  0.23358875  0.09104432  0.91400869  1
  Te  Te156  1  0.25920000  0.45457079  0.24998955  1
  Te  Te157  1  0.23648855  0.42784108  0.55620591  1
  Te  Te158  1  0.24795593  0.38200796  0.90157018  1
  Te  Te159  1  0.25416086  0.76327552  0.24712028  1
  Te  Te160  1  0.24002967  0.70619718  0.61381220  1
  Te  Te161  1  0.23943341  0.74307885  0.92753397  1
  Te  Te162  1  0.59143625  0.10048748  0.24301012  1
  Te  Te163  1  0.56585629  0.06563941  0.57539886  1
  Te  Te164  1  0.57716092  0.06225788  0.91563007  1
  Te  Te165  1  0.58826127  0.39269109  0.24467969  1
  Te  Te166  1  0.61079645  0.44576249  0.64768905  1
  Te  Te167  1  0.55501647  0.45059779  0.88811312  1
  Te  Te168  1  0.55206397  0.72549774  0.23700160  1
  Te  Te169  1  0.59545899  0.75788349  0.56316361  1
  Te  Te170  1  0.59918488  0.73434127  0.91009901  1
  Te  Te171  1  0.92234771  0.06016168  0.26464862  1
  Te  Te172  1  0.89092311  0.08640735  0.60117186  1
  Te  Te173  1  0.91732655  0.09917608  0.88796317  1
  Te  Te174  1  0.92376562  0.42391458  0.23658951  1
  Te  Te175  1  0.93123640  0.42191407  0.57589040  1
  Te  Te176  1  0.91757574  0.42731661  0.87029801  1
  Te  Te177  1  0.94272869  0.73006107  0.25346272  1
  Te  Te178  1  0.94539961  0.72038122  0.60885992  1
  Te  Te179  1  0.94156478  0.73517673  0.90359215  1
