# generated using pymatgen
data_In2Te3
_symmetry_space_group_name_H-M   'P 1'
_cell_length_a   18.96019270
_cell_length_b   18.93507259
_cell_length_c   18.93747856
_cell_angle_alpha   90.06953637
_cell_angle_beta   89.89003519
_cell_angle_gamma   89.96448035
_symmetry_Int_Tables_number   1
_chemical_formula_structural   In2Te3
_chemical_formula_sum   'In72 Te108'
_cell_volume   6798.77504677
_cell_formula_units_Z   36
loop_
 _symmetry_equiv_pos_site_id
 _symmetry_equiv_pos_as_xyz
  1  'x, y, z'
loop_
 _atom_site_type_symbol
 _atom_site_label
 _atom_site_symmetry_multiplicity
 _atom_site_fract_x
 _atom_site_fract_y
 _atom_site_fract_z
 _atom_site_occupancy
  In  In0  1  0.83620571  0.66421095  0.48337483  1
  In  In1  1  0.83815363  0.67011720  0.16285053  1
  In  In2  1  0.15400860  0.33965223  0.84080674  1
  In  In3  1  0.20080383  0.66819701  0.51526361  1
  In  In4  1  0.67432564  0.50317171  0.85034296  1
  In  In5  1  0.68817584  0.63783517  0.31694642  1
  In  In6  1  0.15558741  0.31154646  0.14711164  1
  In  In7  1  -0.00451043  0.48278670  0.15360401  1
  In  In8  1  0.49018353  0.16316667  -0.00622434  1
  In  In9  1  0.48526023  0.67149433  0.15983513  1
  In  In10  1  0.32639402  0.50999881  0.84683127  1
  In  In11  1  0.00414156  0.18138448  0.51867381  1
  In  In12  1  0.50418186  0.00473512  0.83561336  1
  In  In13  1  0.83043846  0.83334325  0.66639620  1
  In  In14  1  0.30414487  0.33289953  0.35708160  1
  In  In15  1  0.17118084  0.04001520  0.85569191  1
  In  In16  1  0.49826617  0.84311605  0.35065974  1
  In  In17  1  0.67638460  0.15799390  0.14156807  1
  In  In18  1  0.69465983  0.47774679  0.13781087  1
  In  In19  1  0.19102747  0.66574418  0.15677589  1
  In  In20  1  0.17779317  0.00954855  0.51098091  1
  In  In21  1  0.01413855  0.47842364  0.50764288  1
  In  In22  1  0.00013439  0.84882037  0.47875708  1
  In  In23  1  0.15466559  0.66386336  0.81883781  1
  In  In24  1  0.64510243  0.68722544  -0.03090279  1
  In  In25  1  0.68612006  -0.00756184  0.33322638  1
  In  In26  1  0.52271086  0.69356087  0.50717410  1
  In  In27  1  0.33694671  -0.01149718  0.66417067  1
  In  In28  1  0.01909945  0.02294230  0.66342321  1
  In  In29  1  0.81445948  -0.01858851  0.83644050  1
  In  In30  1  0.49982652  0.15945238  0.35699626  1
  In  In31  1  0.48114506  0.50028510  0.68032190  1
  In  In32  1  0.11624542  0.02383269  0.12466125  1
  In  In33  1  0.33502610  0.35129395  0.68862632  1
  In  In34  1  0.34148449  0.85050956  0.82316088  1
  In  In35  1  0.85353060  0.32588206  0.16224626  1
  In  In36  1  -0.01477223  0.67006473  0.32432026  1
  In  In37  1  0.66709107  0.83117595  0.49127057  1
  In  In38  1  0.17386069  0.48606622  0.67878235  1
  In  In39  1  0.64885277  0.32610832  0.70449215  1
  In  In40  1  0.67168139  -0.00911576  0.68515690  1
  In  In41  1  0.50087566  0.51737391  0.33419520  1
  In  In42  1  0.30962245  0.02010359  0.01080997  1
  In  In43  1  0.84614424  0.33291073  0.50977655  1
  In  In44  1  0.36238447  0.72021100  0.66208058  1
  In  In45  1  0.50697099  0.49306360  0.01154859  1
  In  In46  1  0.51971775  -0.01959999  0.16024732  1
  In  In47  1  0.30784241  0.17295825  0.18240205  1
  In  In48  1  -0.00774729  0.65803667  0.69924584  1
  In  In49  1  0.14009399  0.46935206  0.33147599  1
  In  In50  1  0.84123389  0.32295057  0.82896785  1
  In  In51  1  0.48832734  0.32441952  0.14923045  1
  In  In52  1  0.83904352  0.17158853  -0.00113885  1
  In  In53  1  0.47614104  0.17714925  0.67987020  1
  In  In54  1  0.82963249  0.14979690  0.66469125  1
  In  In55  1  0.66587120  0.32758524  0.32194100  1
  In  In56  1  0.33728272  0.01225474  0.33119079  1
  In  In57  1  0.14825087  0.83179288  -0.00649401  1
  In  In58  1  -0.00851061  0.67781377  -0.02481384  1
  In  In59  1  -0.01574717  0.49558656  0.85764910  1
  In  In60  1  -0.00939452  0.17273690  0.82927570  1
  In  In61  1  -0.01081952  -0.00335981  0.31671928  1
  In  In62  1  0.15893130  0.84300590  0.32128911  1
  In  In63  1  0.67071635  0.68606214  0.67052690  1
  In  In64  1  0.35033965  0.66525889  0.33252405  1
  In  In65  1  0.65797301  0.14436001  0.50953336  1
  In  In66  1  0.15838459  0.18171002  0.33238342  1
  In  In67  1  0.64163376  0.83288693  0.15909940  1
  In  In68  1  0.68021550  0.47725908  0.53161137  1
  In  In69  1  0.32948475  0.48843058  0.50437819  1
  In  In70  1  0.34819676  0.66616803  -0.00303291  1
  In  In71  1  0.86616820  -0.02545883  0.12950733  1
  Te  Te72  1  0.07014889  0.14083158  0.04494090  1
  Te  Te73  1  0.07610301  0.07532140  0.41707893  1
  Te  Te74  1  0.10305942  0.12025212  0.73996185  1
  Te  Te75  1  0.08320166  0.40882262  0.06378674  1
  Te  Te76  1  0.07575431  0.36941757  0.42254636  1
  Te  Te77  1  0.06015620  0.41863015  0.74810306  1
  Te  Te78  1  0.07716873  0.73770261  0.08894498  1
  Te  Te79  1  0.09709370  0.73813494  0.41625183  1
  Te  Te80  1  0.06836166  0.76603867  0.76079182  1
  Te  Te81  1  0.41646996  0.08523508  0.11115075  1
  Te  Te82  1  0.41325806  0.07515418  0.43971361  1
  Te  Te83  1  0.39504434  0.08448671  0.76902252  1
  Te  Te84  1  0.40095045  0.40660463  0.06690229  1
  Te  Te85  1  0.42552246  0.41328769  0.41390218  1
  Te  Te86  1  0.43116585  0.41030856  0.79133765  1
  Te  Te87  1  0.42041058  0.76818433  0.07311534  1
  Te  Te88  1  0.40436856  0.76078269  0.43636358  1
  Te  Te89  1  0.44346513  0.74657986  0.78390159  1
  Te  Te90  1  0.75538919  0.05883268  0.06102504  1
  Te  Te91  1  0.75478127  0.09581027  0.41055667  1
  Te  Te92  1  0.73431736  0.09974487  0.77177917  1
  Te  Te93  1  0.78098678  0.39433010  0.05117519  1
  Te  Te94  1  0.75030934  0.41461223  0.41396627  1
  Te  Te95  1  0.75658597  0.42173567  0.74905169  1
  Te  Te96  1  0.73986013  0.74826947  0.07882720  1
  Te  Te97  1  0.75352217  0.75346747  0.39322511  1
  Te  Te98  1  0.76077392  0.75203698  0.76988746  1
  Te  Te99  1  0.06369655  0.24247664  0.24023896  1
  Te  Te100  1  0.09189555  0.29177201  0.55738575  1
  Te  Te101  1  0.06863003  0.25028697  0.93048567  1
  Te  Te102  1  0.08800323  0.58556915  0.24687067  1
  Te  Te103  1  0.09382108  0.58837345  0.58867260  1
  Te  Te104  1  0.09403034  0.57696019  0.92536885  1
  Te  Te105  1  0.06933610  0.90955421  0.22121261  1
  Te  Te106  1  0.08727975  0.91132501  0.58486938  1
  Te  Te107  1  0.07766468  0.94197984  0.92125141  1
  Te  Te108  1  0.41568764  0.25189309  0.26278086  1
  Te  Te109  1  0.41676462  0.27716129  0.59066531  1
  Te  Te110  1  0.44013786  0.25093904  0.88839451  1
  Te  Te111  1  0.40152625  0.56529033  0.22995356  1
  Te  Te112  1  0.42022645  0.59110066  0.56974298  1
  Te  Te113  1  0.44264910  0.58600057  0.91000712  1
  Te  Te114  1  0.41421471  0.91050749  0.24539103  1
  Te  Te115  1  0.39000240  0.86220928  0.60652791  1
  Te  Te116  1  0.40490558  0.93299471  0.93239153  1
  Te  Te117  1  0.75699327  0.23678065  0.24279425  1
  Te  Te118  1  0.73288701  0.25004134  0.59876644  1
  Te  Te119  1  0.74990844  0.22801757  0.89557232  1
  Te  Te120  1  0.78145675  0.54891980  0.24110284  1
  Te  Te121  1  0.76116105  0.59031818  0.59255601  1
  Te  Te122  1  0.75471383  0.59842851  0.92912594  1
  Te  Te123  1  0.75189278  0.91448113  0.22317384  1
  Te  Te124  1  0.75334178  0.92546383  0.57372933  1
  Te  Te125  1  0.77396853  0.85402472  0.89835052  1
  Te  Te126  1  0.26555701  0.24998153  0.06460308  1
  Te  Te127  1  0.26708413  0.20996001  0.42625172  1
  Te  Te128  1  0.24252581  0.25952274  0.75429839  1
  Te  Te129  1  0.26170112  0.57256398  0.06993044  1
  Te  Te130  1  0.24717889  0.56845801  0.40101961  1
  Te  Te131  1  0.26729487  0.59317956  0.73258471  1
  Te  Te132  1  0.22899834  0.91936622  0.08871540  1
  Te  Te133  1  0.25246704  0.91622670  0.41546304  1
  Te  Te134  1  0.23114703  0.93400088  0.76187195  1
  Te  Te135  1  0.59512049  0.25932743  0.06449140  1
  Te  Te136  1  0.58709847  0.25810455  0.43092664  1
  Te  Te137  1  0.55817302  0.23912910  0.79112694  1
  Te  Te138  1  0.59898773  0.59317492  0.09654222  1
  Te  Te139  1  0.60153330  0.58147226  0.43725644  1
  Te  Te140  1  0.58997206  0.58128128  0.74501082  1
  Te  Te141  1  0.58999589  0.91581288  0.04741864  1
  Te  Te142  1  0.57937069  0.94111966  0.43022575  1
  Te  Te143  1  0.60195532  0.90209901  0.78368668  1
  Te  Te144  1  0.94356919  0.22101609  0.09680250  1
  Te  Te145  1  0.90520784  0.23171067  0.42300337  1
  Te  Te146  1  0.92390230  0.25383515  0.71999109  1
  Te  Te147  1  0.91684375  0.58278387  0.06779204  1
  Te  Te148  1  0.92485863  0.56417228  0.41308021  1
  Te  Te149  1  0.89733263  0.59372931  0.78890965  1
  Te  Te150  1  0.95207732  0.90904207  0.02725540  1
  Te  Te151  1  0.89903386  0.90952314  0.39515933  1
  Te  Te152  1  0.92099026  0.93179704  0.73807679  1
  Te  Te153  1  0.21881936  0.06424064  0.23975602  1
  Te  Te154  1  0.26093334  0.09436940  0.59546070  1
  Te  Te155  1  0.25231202  0.13448716  0.93781705  1
  Te  Te156  1  0.24275707  0.40467117  0.24209669  1
  Te  Te157  1  0.22851243  0.39726566  0.56830435  1
  Te  Te158  1  0.24116427  0.42246823  0.92704970  1
  Te  Te159  1  0.26617358  0.75961378  0.24878555  1
  Te  Te160  1  0.23807872  0.77845198  0.60555713  1
  Te  Te161  1  0.24906370  0.75257341  0.90415009  1
  Te  Te162  1  0.58632871  0.08959463  0.25103273  1
  Te  Te163  1  0.56871806  0.07336182  0.61034331  1
  Te  Te164  1  0.58638319  0.06074149  0.94605691  1
  Te  Te165  1  0.58184287  0.42595622  0.23940588  1
  Te  Te166  1  0.56706450  0.40342069  0.59924762  1
  Te  Te167  1  0.60203828  0.40958651  0.93719555  1
  Te  Te168  1  0.57502338  0.73709678  0.27378776  1
  Te  Te169  1  0.57929478  0.79017989  0.60911827  1
  Te  Te170  1  0.56650685  0.77331412  0.87894357  1
  Te  Te171  1  0.91424681  0.07981406  0.22055740  1
  Te  Te172  1  0.91130934  0.06790757  0.56764515  1
  Te  Te173  1  0.91388256  0.07132610  0.90976941  1
  Te  Te174  1  0.92477612  0.41047848  0.25935936  1
  Te  Te175  1  0.90644450  0.43467028  0.59587684  1
  Te  Te176  1  0.90755124  0.39784430  0.93948754  1
  Te  Te177  1  0.91202369  0.76722590  0.24487497  1
  Te  Te178  1  0.92544074  0.74596305  0.57603256  1
  Te  Te179  1  0.91822574  0.79764607  0.92194370  1
