# generated using pymatgen
data_In2Te3
_symmetry_space_group_name_H-M   'P 1'
_cell_length_a   18.98447634
_cell_length_b   18.94195900
_cell_length_c   18.98115451
_cell_angle_alpha   90.22064084
_cell_angle_beta   89.69640625
_cell_angle_gamma   89.94432583
_symmetry_Int_Tables_number   1
_chemical_formula_structural   In2Te3
_chemical_formula_sum   'In72 Te108'
_cell_volume   6825.53358757
_cell_formula_units_Z   36
loop_
 _symmetry_equiv_pos_site_id
 _symmetry_equiv_pos_as_xyz
  1  'x, y, z'
loop_
 _atom_site_type_symbol
 _atom_site_label
 _atom_site_symmetry_multiplicity
 _atom_site_fract_x
 _atom_site_fract_y
 _atom_site_fract_z
 _atom_site_occupancy
  In  In0  1  0.51093403  0.01013756  0.83058328  1
  In  In1  1  0.52843739  0.52423791  0.50865161  1
  In  In2  1  0.33093731  0.81718623  0.82654715  1
  In  In3  1  0.01662061  0.47793531  0.17566117  1
  In  In4  1  0.80991191  0.51499150  0.34155524  1
  In  In5  1  0.18189459  -0.03174575  0.15619679  1
  In  In6  1  0.15891918  0.51401328  -0.00466304  1
  In  In7  1  0.62659771  0.35978301  0.32383700  1
  In  In8  1  -0.00082325  0.34724570  0.34772597  1
  In  In9  1  0.52293936  0.51595584  0.01165165  1
  In  In10  1  0.51395018  0.66187717  0.83709971  1
  In  In11  1  0.18806579  0.31910805  0.50716555  1
  In  In12  1  0.33117963  0.16939737  0.85187487  1
  In  In13  1  0.51032312  0.82594026  0.68436825  1
  In  In14  1  0.00308356  0.15446528  0.82051086  1
  In  In15  1  0.00917446  0.19100797  0.50499359  1
  In  In16  1  0.17875483  0.17537880  0.68168064  1
  In  In17  1  0.49208217  0.16412452  0.33096747  1
  In  In18  1  -0.03130690  0.35811333  -0.03364021  1
  In  In19  1  0.36072158  0.83220122  0.47029691  1
  In  In20  1  -0.01434491  0.02092830  0.34755226  1
  In  In21  1  0.75172634  0.33632224  0.15314843  1
  In  In22  1  0.34964076  0.49753666  0.14474542  1
  In  In23  1  -0.01486741  0.66907489  -0.02559301  1
  In  In24  1  -0.01249581  0.00605256  0.01290967  1
  In  In25  1  0.64388791  0.80004068  0.20154021  1
  In  In26  1  0.66218160  0.17882538  0.49565940  1
  In  In27  1  0.14505392  0.32736187  0.84555650  1
  In  In28  1  0.17813467  0.83599962  0.66253197  1
  In  In29  1  0.65950435  0.81914196  0.84416455  1
  In  In30  1  0.83593745  -0.02524212  0.81746727  1
  In  In31  1  0.84135131  0.82215236  -0.01322814  1
  In  In32  1  0.67106034  0.83808109  0.47551349  1
  In  In33  1  0.84989042  0.81455879  0.33454699  1
  In  In34  1  0.49969037  0.01953281  0.49477315  1
  In  In35  1  0.66513848  0.16301763  0.83049515  1
  In  In36  1  0.82745317  0.00008062  0.52553209  1
  In  In37  1  0.83229817  0.18105846  0.65202484  1
  In  In38  1  0.66280441  0.00506645  0.34351193  1
  In  In39  1  0.18352620  0.82634161  0.35630262  1
  In  In40  1  0.16012774  0.83892223  -0.01551603  1
  In  In41  1  0.17325911  0.47910402  0.31163985  1
  In  In42  1  0.65309986  0.34519113  -0.00821365  1
  In  In43  1  0.83046916  0.55948788  0.72217836  1
  In  In44  1  0.34680088  0.66350737  0.29999876  1
  In  In45  1  0.17983327  0.68375313  0.49583938  1
  In  In46  1  0.29736407  0.53529984  0.81305535  1
  In  In47  1  0.66329555  0.67066754  0.65667420  1
  In  In48  1  0.47981893  -0.03376540  0.18936002  1
  In  In49  1  -0.00358363  0.81481043  0.81766707  1
  In  In50  1  0.01671018  0.81167167  0.53068409  1
  In  In51  1  0.81275903  0.32515623  0.47398191  1
  In  In52  1  0.81754242  0.63777743  0.13126668  1
  In  In53  1  0.34882377  0.00371114  -0.02190348  1
  In  In54  1  0.41123335  0.36346463  0.61943141  1
  In  In55  1  0.32986551  0.31720163  0.00225546  1
  In  In56  1  0.50402695  0.17420140  0.65221877  1
  In  In57  1  0.34767153  0.35695111  0.31994961  1
  In  In58  1  0.01771169  0.80656411  0.19354112  1
  In  In59  1  -0.01231079  0.17454485  0.15778872  1
  In  In60  1  0.81809710  0.18166908  0.01315925  1
  In  In61  1  0.33115383  0.51666469  0.51065963  1
  In  In62  1  0.17042380  0.15853339  0.30564517  1
  In  In63  1  0.84404779  0.66497609  0.51803685  1
  In  In64  1  -0.05951068  0.39845113  0.71514501  1
  In  In65  1  0.00163679  0.51957744  0.53724578  1
  In  In66  1  0.51140920  0.81034655  0.01761650  1
  In  In67  1  0.47967029  0.35101817  0.83693907  1
  In  In68  1  0.34234005  0.16342755  0.16424357  1
  In  In69  1  0.34355373  0.67957440  0.02452418  1
  In  In70  1  0.31021312  0.00322951  0.65061814  1
  In  In71  1  0.81352382  -0.00282086  0.14477492  1
  Te  Te72  1  0.08971213  0.07605902  0.09788146  1
  Te  Te73  1  0.09457474  0.09528860  0.42176198  1
  Te  Te74  1  0.09400255  0.07254589  0.74255710  1
  Te  Te75  1  0.08190703  0.40130807  0.06138126  1
  Te  Te76  1  0.09509638  0.42349441  0.43690775  1
  Te  Te77  1  0.08436159  0.42891021  0.75750235  1
  Te  Te78  1  0.08107764  0.74275241  0.07175841  1
  Te  Te79  1  0.07002494  0.74010434  0.40739083  1
  Te  Te80  1  0.11184322  0.74072926  0.75643017  1
  Te  Te81  1  0.43268574  0.06913082  0.08440078  1
  Te  Te82  1  0.40300043  0.06758621  0.39735489  1
  Te  Te83  1  0.41015612  0.08537145  0.74632564  1
  Te  Te84  1  0.43857229  0.40189604  0.06804762  1
  Te  Te85  1  0.42418853  0.43742627  0.41861775  1
  Te  Te86  1  0.40649094  0.45105288  0.74967192  1
  Te  Te87  1  0.43954515  0.73520860  0.12633280  1
  Te  Te88  1  0.43624352  0.71950653  0.40597883  1
  Te  Te89  1  0.41404128  0.72346363  0.74116957  1
  Te  Te90  1  0.72423723  0.09460695  0.08533086  1
  Te  Te91  1  0.76091451  0.08833208  0.42241519  1
  Te  Te92  1  0.75797447  0.08223045  0.74047888  1
  Te  Te93  1  0.75146831  0.44652470  0.04953213  1
  Te  Te94  1  0.71649247  0.43056383  0.42498609  1
  Te  Te95  1  0.79713700  0.42135946  0.76253768  1
  Te  Te96  1  0.74609260  0.76341540  0.08930870  1
  Te  Te97  1  0.75446500  0.72614559  0.41170645  1
  Te  Te98  1  0.74878506  0.74682045  0.75135732  1
  Te  Te99  1  0.07615307  0.26129131  0.24622554  1
  Te  Te100  1  0.08451222  0.27062038  0.60787555  1
  Te  Te101  1  0.06137167  0.23714756  0.93309487  1
  Te  Te102  1  0.08969785  0.58051045  0.24924616  1
  Te  Te103  1  0.11942136  0.58925564  0.59579015  1
  Te  Te104  1  0.07584647  0.58157189  0.89403701  1
  Te  Te105  1  0.07772812  0.92744259  0.26643010  1
  Te  Te106  1  0.10809926  0.91923836  0.56510462  1
  Te  Te107  1  0.06036463  0.92262167  0.90949854  1
  Te  Te108  1  0.43233924  0.26431998  0.23381613  1
  Te  Te109  1  0.39484829  0.22405199  0.56780193  1
  Te  Te110  1  0.44016846  0.23811200  0.93107703  1
  Te  Te111  1  0.43782995  0.55331614  0.25018019  1
  Te  Te112  1  0.42561257  0.59969117  0.58416835  1
  Te  Te113  1  0.40995543  0.58420531  0.92537915  1
  Te  Te114  1  0.39773948  0.84963031  0.22666275  1
  Te  Te115  1  0.42755345  0.92222698  0.59674893  1
  Te  Te116  1  0.44192944  0.88821170  0.90666059  1
  Te  Te117  1  0.71647892  0.25399497  0.27058488  1
  Te  Te118  1  0.72991781  0.27458218  0.59217236  1
  Te  Te119  1  0.75026712  0.26372152  0.90651974  1
  Te  Te120  1  0.72590213  0.57367281  0.23299796  1
  Te  Te121  1  0.75759262  0.56405402  0.59090613  1
  Te  Te122  1  0.79350551  0.56747333  0.96314370  1
  Te  Te123  1  0.75211563  0.90687016  0.26160089  1
  Te  Te124  1  0.75305317  0.89020679  0.58462018  1
  Te  Te125  1  0.74415809  0.91976722  0.92545928  1
  Te  Te126  1  0.24418609  0.22439497  0.07487414  1
  Te  Te127  1  0.25705353  0.25506839  0.38822147  1
  Te  Te128  1  0.26182279  0.27132608  0.76571869  1
  Te  Te129  1  0.24114136  0.59205664  0.09617738  1
  Te  Te130  1  0.24895294  0.58429847  0.39518077  1
  Te  Te131  1  0.21759254  0.61713067  0.72316623  1
  Te  Te132  1  0.27685480  0.89790478  0.06118675  1
  Te  Te133  1  0.26381700  0.92964288  0.42118474  1
  Te  Te134  1  0.24857175  0.92784808  0.76797717  1
  Te  Te135  1  0.62422880  0.26843419  0.11512198  1
  Te  Te136  1  0.55976334  0.26104744  0.42514654  1
  Te  Te137  1  0.57385009  0.25928151  0.75556317  1
  Te  Te138  1  0.60394207  0.57165032  0.12202607  1
  Te  Te139  1  0.59403571  0.61452390  0.41344985  1
  Te  Te140  1  0.60171942  0.57868492  0.75414121  1
  Te  Te141  1  0.59159222  0.90554879  0.10366875  1
  Te  Te142  1  0.55992428  0.91233415  0.40235947  1
  Te  Te143  1  0.60515701  0.92460622  0.74784784  1
  Te  Te144  1  0.89927188  0.28072565  0.09414186  1
  Te  Te145  1  0.91053249  0.23554299  0.39938248  1
  Te  Te146  1  0.90753330  0.25304425  0.76151497  1
  Te  Te147  1  0.93846881  0.56479201  0.07647688  1
  Te  Te148  1  0.92548492  0.57809042  0.42135537  1
  Te  Te149  1  0.97553365  0.55173921  0.75768437  1
  Te  Te150  1  0.92681898  0.89659589  0.10020729  1
  Te  Te151  1  0.91839703  0.91068356  0.42997991  1
  Te  Te152  1  0.92942750  0.90869984  0.72734165  1
  Te  Te153  1  0.26679478  0.05698150  0.24496783  1
  Te  Te154  1  0.26001390  0.11600872  0.57089324  1
  Te  Te155  1  0.23896512  0.08407757  0.92656397  1
  Te  Te156  1  0.25171238  0.39946003  0.21055181  1
  Te  Te157  1  0.26267971  0.41270755  0.59680055  1
  Te  Te158  1  0.25676809  0.42258555  0.91744179  1
  Te  Te159  1  0.25423361  0.76552366  0.24022902  1
  Te  Te160  1  0.28085257  0.76014471  0.57682362  1
  Te  Te161  1  0.24695225  0.73221246  0.91843295  1
  Te  Te162  1  0.57829791  0.07538345  0.24259911  1
  Te  Te163  1  0.60258936  0.07614256  0.58992210  1
  Te  Te164  1  0.58811060  0.08495889  0.92853068  1
  Te  Te165  1  0.57434493  0.46163738  0.22800735  1
  Te  Te166  1  0.54823664  0.40563275  0.59368208  1
  Te  Te167  1  0.58800058  0.44226860  0.89379767  1
  Te  Te168  1  0.57124865  0.72455604  0.30667282  1
  Te  Te169  1  0.57738124  0.75648388  0.56854281  1
  Te  Te170  1  0.60637030  0.71659977  0.94424572  1
  Te  Te171  1  0.89869057  0.08251808  0.23929911  1
  Te  Te172  1  0.93453349  0.08793000  0.58892014  1
  Te  Te173  1  0.89624275  0.08330231  0.92143308  1
  Te  Te174  1  0.90097917  0.42213229  0.26058524  1
  Te  Te175  1  0.91107281  0.40201813  0.56337530  1
  Te  Te176  1  0.88472554  0.46700845  0.89744446  1
  Te  Te177  1  0.90742289  0.71415992  0.23759733  1
  Te  Te178  1  0.93301813  0.72803903  0.61548139  1
  Te  Te179  1  0.88378844  0.72736600  0.87640982  1
