# generated using pymatgen
data_In2Te3
_symmetry_space_group_name_H-M   'P 1'
_cell_length_a   18.78860442
_cell_length_b   18.79703277
_cell_length_c   18.80718847
_cell_angle_alpha   90.06032431
_cell_angle_beta   90.00173958
_cell_angle_gamma   90.01308014
_symmetry_Int_Tables_number   1
_chemical_formula_structural   In2Te3
_chemical_formula_sum   'In72 Te108'
_cell_volume   6642.13113841
_cell_formula_units_Z   36
loop_
 _symmetry_equiv_pos_site_id
 _symmetry_equiv_pos_as_xyz
  1  'x, y, z'
loop_
 _atom_site_type_symbol
 _atom_site_label
 _atom_site_symmetry_multiplicity
 _atom_site_fract_x
 _atom_site_fract_y
 _atom_site_fract_z
 _atom_site_occupancy
  In  In0  1  0.17246440  0.17597725  0.32174057  1
  In  In1  1  0.32924330  0.83903607  0.13532103  1
  In  In2  1  0.85291338  -0.02502570  0.16876325  1
  In  In3  1  0.16958440  0.49901153  0.00143506  1
  In  In4  1  0.17015929  0.66967129  0.50612837  1
  In  In5  1  0.66330423  0.34729547  0.65103241  1
  In  In6  1  0.66108423  -0.00618443  -0.03394982  1
  In  In7  1  0.65301798  0.34217732  -0.00925787  1
  In  In8  1  0.49189426  0.16984466  0.66284704  1
  In  In9  1  0.86615667  0.13011594  0.66357052  1
  In  In10  1  -0.00788448  0.68541862  0.00056067  1
  In  In11  1  0.67850749  0.17860638  0.15658353  1
  In  In12  1  0.83101412  0.84008836  0.01316240  1
  In  In13  1  0.15282576  -0.01419820  0.82985766  1
  In  In14  1  0.82300260  0.32535467  0.80310023  1
  In  In15  1  0.16248218  -0.00513248  0.51782835  1
  In  In16  1  0.54045159  0.52655911  0.00378635  1
  In  In17  1  0.35054028  0.50860928  0.17540496  1
  In  In18  1  0.50571291  0.50675873  0.32558821  1
  In  In19  1  0.64753600  -0.02666711  0.69857577  1
  In  In20  1  0.14494399  0.47912382  0.40837054  1
  In  In21  1  -0.01185732  -0.00530738  0.35166673  1
  In  In22  1  0.87562430  0.84979126  0.34599332  1
  In  In23  1  0.33165279  0.17403280  0.14052163  1
  In  In24  1  0.49021548  0.00142446  0.51503723  1
  In  In25  1  0.15406103  0.81735780  0.32484748  1
  In  In26  1  -0.02256366  0.50288569  0.17663867  1
  In  In27  1  0.15903027  0.30003737  0.84353632  1
  In  In28  1  0.36767769  0.48591967  0.80315784  1
  In  In29  1  0.85013771  0.13047427  -0.02209086  1
  In  In30  1  0.84965982  0.18492421  0.34696729  1
  In  In31  1  0.83812585  0.83958578  0.67806258  1
  In  In32  1  0.32104931  0.16336814  0.49691522  1
  In  In33  1  -0.00866633  0.84897599  0.15361483  1
  In  In34  1  0.17728086  0.32133961  0.17334958  1
  In  In35  1  0.16536191  0.50785024  0.66180309  1
  In  In36  1  0.16120585  0.68371936  0.17117871  1
  In  In37  1  0.84149412  0.32261360  0.15039282  1
  In  In38  1  0.82993927  0.66699765  0.52455610  1
  In  In39  1  0.34917808  0.84152814  0.52833149  1
  In  In40  1  0.34372390  0.15955784  0.82008372  1
  In  In41  1  0.50142807  0.66615391  0.52464954  1
  In  In42  1  0.81230653  0.50719453  0.66907653  1
  In  In43  1  0.35742508  0.81000648  0.81418666  1
  In  In44  1  0.67970575  0.83147266  0.14234360  1
  In  In45  1  0.52725869  0.33628608  0.51695936  1
  In  In46  1  0.51864303  -0.00899582  0.14848389  1
  In  In47  1  0.83648960  0.33963796  0.50070045  1
  In  In48  1  0.50368757  0.83215202  0.33971002  1
  In  In49  1  0.80332845  0.70221048  0.16396626  1
  In  In50  1  0.79895428  0.67657145  0.82685067  1
  In  In51  1  0.67638754  0.02831995  0.33537934  1
  In  In52  1  0.32849372  0.33440440  0.33520397  1
  In  In53  1  0.18029187  0.16225066  0.67322536  1
  In  In54  1  -0.00622658  0.31294817  0.66402464  1
  In  In55  1  0.00492076  0.30704477  -0.01406243  1
  In  In56  1  0.33156260  -0.01852359  -0.01813250  1
  In  In57  1  0.16249206  0.83063050  0.66420635  1
  In  In58  1  0.67387123  0.18367544  0.49209406  1
  In  In59  1  0.32667210  0.51290200  0.51053152  1
  In  In60  1  0.66625146  0.16353100  0.82662186  1
  In  In61  1  0.33904634  0.01626134  0.35014890  1
  In  In62  1  0.34145280  0.69317493  -0.03012524  1
  In  In63  1  0.65902298  0.66455952  0.32695333  1
  In  In64  1  0.32340948  0.30785871  -0.00703255  1
  In  In65  1  0.17205629  0.68967646  0.82756770  1
  In  In66  1  0.50305597  0.34088034  0.15881064  1
  In  In67  1  0.01765175  0.66817101  0.36269717  1
  In  In68  1  0.67805835  0.81387715  0.51390861  1
  In  In69  1  -0.03083802  0.49909230  0.82722380  1
  In  In70  1  0.81831220  0.49054585  0.34978073  1
  In  In71  1  0.79552286  0.50976741  -0.01233418  1
  Te  Te72  1  0.09109884  0.01881475  0.09969700  1
  Te  Te73  1  0.09268158  0.08593868  0.41858041  1
  Te  Te74  1  0.07583738  0.06943872  0.72854419  1
  Te  Te75  1  0.06932499  0.41732069  0.08369563  1
  Te  Te76  1  0.04455622  0.37764031  0.42962783  1
  Te  Te77  1  0.07574909  0.40861604  0.76505529  1
  Te  Te78  1  0.09597868  0.77382736  0.06720225  1
  Te  Te79  1  0.07676425  0.77944811  0.44965244  1
  Te  Te80  1  0.06805256  0.75237241  0.74624974  1
  Te  Te81  1  0.42081201  0.07527454  0.06582209  1
  Te  Te82  1  0.44024347  0.10848617  0.41683681  1
  Te  Te83  1  0.42765321  0.06370940  0.74253456  1
  Te  Te84  1  0.40615606  0.41737495  0.06745045  1
  Te  Te85  1  0.42260114  0.41795917  0.42128736  1
  Te  Te86  1  0.45976494  0.40755955  0.72002694  1
  Te  Te87  1  0.42983893  0.75442878  0.07058909  1
  Te  Te88  1  0.41339591  0.74682052  0.42607593  1
  Te  Te89  1  0.44952805  0.71128097  0.74217957  1
  Te  Te90  1  0.74959261  0.06331629  0.08532270  1
  Te  Te91  1  0.77575757  0.08383069  0.43530169  1
  Te  Te92  1  0.75730984  0.06727100  0.75420067  1
  Te  Te93  1  0.73562724  0.41872756  0.09445425  1
  Te  Te94  1  0.72706211  0.41739982  0.43977874  1
  Te  Te95  1  0.72306160  0.43198977  0.76950162  1
  Te  Te96  1  0.72044090  0.72526116  0.03223990  1
  Te  Te97  1  0.76373029  0.75271252  0.39876051  1
  Te  Te98  1  0.72437419  0.75280951  0.72453732  1
  Te  Te99  1  0.07124384  0.24461068  0.23955670  1
  Te  Te100  1  0.09293349  0.24150731  0.58205556  1
  Te  Te101  1  0.07494918  0.19979427  0.91239886  1
  Te  Te102  1  0.08505825  0.57898619  0.25533120  1
  Te  Te103  1  0.07251391  0.58355404  0.57649803  1
  Te  Te104  1  0.07255569  0.58289980  0.91570545  1
  Te  Te105  1  0.08724444  0.93036226  0.24881963  1
  Te  Te106  1  0.06553824  0.94525314  0.62460777  1
  Te  Te107  1  0.04175636  0.92346352  0.90596953  1
  Te  Te108  1  0.41533651  0.24831225  0.24526003  1
  Te  Te109  1  0.40697361  0.26215152  0.57717956  1
  Te  Te110  1  0.42607532  0.24599457  0.90915847  1
  Te  Te111  1  0.42810246  0.60761450  0.24979339  1
  Te  Te112  1  0.41751016  0.57643818  0.61010688  1
  Te  Te113  1  0.42057888  0.57533323  0.91618037  1
  Te  Te114  1  0.41818242  0.92552834  0.25072632  1
  Te  Te115  1  0.43805281  0.91459462  0.62275905  1
  Te  Te116  1  0.43353669  0.91090282  0.89718801  1
  Te  Te117  1  0.75006661  0.26318611  0.26141127  1
  Te  Te118  1  0.76769266  0.24261686  0.60775005  1
  Te  Te119  1  0.76047208  0.24440134  0.92807708  1
  Te  Te120  1  0.75266592  0.57851501  0.24312488  1
  Te  Te121  1  0.72106414  0.59239708  0.59026159  1
  Te  Te122  1  0.70615857  0.57146447  0.88395675  1
  Te  Te123  1  0.74673566  0.91252927  0.26071505  1
  Te  Te124  1  0.74303594  0.92894036  0.58700055  1
  Te  Te125  1  0.76632475  0.91160038  0.89981068  1
  Te  Te126  1  0.21237233  0.22623566  0.05952990  1
  Te  Te127  1  0.23093499  0.26688209  0.43031832  1
  Te  Te128  1  0.26736528  0.26825767  0.74209993  1
  Te  Te129  1  0.25402512  0.59820331  0.08016401  1
  Te  Te130  1  0.24920266  0.58969179  0.40258922  1
  Te  Te131  1  0.25623283  0.58573823  0.75676612  1
  Te  Te132  1  0.22775319  0.93784226  0.08523594  1
  Te  Te133  1  0.25331637  0.90975565  0.41862318  1
  Te  Te134  1  0.25974734  0.91115333  0.74909422  1
  Te  Te135  1  0.57058754  0.23750967  0.06712010  1
  Te  Te136  1  0.58550373  0.26117102  0.40429972  1
  Te  Te137  1  0.58024383  0.26128431  0.74888884  1
  Te  Te138  1  0.61333299  0.62264328  0.08553103  1
  Te  Te139  1  0.59014656  0.58033301  0.43146767  1
  Te  Te140  1  0.56638793  0.61822493  0.78493037  1
  Te  Te141  1  0.57670284  0.89366516  0.04790303  1
  Te  Te142  1  0.59370424  0.92380131  0.42220611  1
  Te  Te143  1  0.57648713  0.89898194  0.80875583  1
  Te  Te144  1  0.92733328  0.21442891  0.08190254  1
  Te  Te145  1  0.94605269  0.25314904  0.44191335  1
  Te  Te146  1  0.92935379  0.22394444  0.77076460  1
  Te  Te147  1  0.89886143  0.59034414  0.07675109  1
  Te  Te148  1  0.91575692  0.57904522  0.43012353  1
  Te  Te149  1  0.90845540  0.60460187  0.74010992  1
  Te  Te150  1  0.95848088  0.96577095  0.05222641  1
  Te  Te151  1  0.91742154  0.92818499  0.46650538  1
  Te  Te152  1  0.90013394  0.93509037  0.77442029  1
  Te  Te153  1  0.25792295  0.08086477  0.23873984  1
  Te  Te154  1  0.27282851  0.06253866  0.59867197  1
  Te  Te155  1  0.24385809  0.08194849  0.90710575  1
  Te  Te156  1  0.24166427  0.43281278  0.25575009  1
  Te  Te157  1  0.24416727  0.41257690  0.58142852  1
  Te  Te158  1  0.25140151  0.41809864  0.90255660  1
  Te  Te159  1  0.27115180  0.75435170  0.25076755  1
  Te  Te160  1  0.26734522  0.73639296  0.60239826  1
  Te  Te161  1  0.23807300  0.79097554  0.91798429  1
  Te  Te162  1  0.57797062  0.09678508  0.24270520  1
  Te  Te163  1  0.60197855  0.08708054  0.58862646  1
  Te  Te164  1  0.56693812  0.09109908  0.90784335  1
  Te  Te165  1  0.59294369  0.42652281  0.23699310  1
  Te  Te166  1  0.56144137  0.45279696  0.60973552  1
  Te  Te167  1  0.56086237  0.41797758  0.90506885  1
  Te  Te168  1  0.57930316  0.75437224  0.23313839  1
  Te  Te169  1  0.57146951  0.77043248  0.60679543  1
  Te  Te170  1  0.56084111  0.74893588  0.85748056  1
  Te  Te171  1  0.91815584  0.08633866  0.25012366  1
  Te  Te172  1  0.95088739  0.05466191  0.57019659  1
  Te  Te173  1  0.93157340  0.03712003  0.88922552  1
  Te  Te174  1  0.91191639  0.39979771  0.26561623  1
  Te  Te175  1  0.91955521  0.42748639  0.59468274  1
  Te  Te176  1  0.90037042  0.40642666  0.92822833  1
  Te  Te177  1  0.93385487  0.73754859  0.24682566  1
  Te  Te178  1  0.92430110  0.76360566  0.58228612  1
  Te  Te179  1  0.90666161  0.76134667  0.90354601  1
