# generated using pymatgen
data_In2Te3
_symmetry_space_group_name_H-M   'P 1'
_cell_length_a   18.76651766
_cell_length_b   18.77054214
_cell_length_c   18.77211006
_cell_angle_alpha   89.99250163
_cell_angle_beta   89.98759174
_cell_angle_gamma   90.01181109
_symmetry_Int_Tables_number   1
_chemical_formula_structural   In2Te3
_chemical_formula_sum   'In72 Te108'
_cell_volume   6612.62016173
_cell_formula_units_Z   36
loop_
 _symmetry_equiv_pos_site_id
 _symmetry_equiv_pos_as_xyz
  1  'x, y, z'
loop_
 _atom_site_type_symbol
 _atom_site_label
 _atom_site_symmetry_multiplicity
 _atom_site_fract_x
 _atom_site_fract_y
 _atom_site_fract_z
 _atom_site_occupancy
  In  In0  1  0.17217028  0.34001876  0.85759552  1
  In  In1  1  0.82724826  0.82545135  0.63778643  1
  In  In2  1  0.64815889  0.84224590  0.82991896  1
  In  In3  1  0.02366134  0.01213740  0.66223208  1
  In  In4  1  0.82556775  0.49370258  0.33750845  1
  In  In5  1  0.33215430  0.83922077  0.83500282  1
  In  In6  1  0.19451332  0.32089253  0.49365000  1
  In  In7  1  0.82242437  0.31822814  0.19266197  1
  In  In8  1  0.34414964  0.64915280  0.32125215  1
  In  In9  1  0.48449208  0.17275248  0.65913895  1
  In  In10  1  0.17501462  0.68063490  0.49465839  1
  In  In11  1  0.50165780  0.84055091  0.32477538  1
  In  In12  1  0.33866844  0.50436538  0.49141815  1
  In  In13  1  0.34831390  0.35690567  0.67607098  1
  In  In14  1  0.16904457  0.32938382  0.16914339  1
  In  In15  1  0.49295814  0.32439075  0.17046538  1
  In  In16  1  -0.00518344  0.33617339  0.68900744  1
  In  In17  1  0.02628587  0.51574421  0.48294207  1
  In  In18  1  0.49784334  0.67199406  0.18477216  1
  In  In19  1  0.63605278  0.64806038  0.67261337  1
  In  In20  1  0.65313954  0.33848310  0.65853961  1
  In  In21  1  0.84887165  0.84306592  0.02145195  1
  In  In22  1  0.65332116  0.49386984  0.17262507  1
  In  In23  1  0.83802156  0.53664220  0.00730075  1
  In  In24  1  0.31462694  0.85973164  0.15432149  1
  In  In25  1  0.35534516  0.13740162  0.45743434  1
  In  In26  1  0.32342803  0.86276923  0.49599442  1
  In  In27  1  0.67537366  0.82991855  0.47573256  1
  In  In28  1  0.33075985  0.67966047  0.67910409  1
  In  In29  1  0.31716585  0.16444053  0.85454287  1
  In  In30  1  0.84400305  0.34397352  0.48929337  1
  In  In31  1  0.83433333  0.17657977  0.00447118  1
  In  In32  1  0.50640900  0.85647336  -0.00034748  1
  In  In33  1  0.63862812  0.00762026  0.02051919  1
  In  In34  1  0.01861880  0.14567530  0.47766144  1
  In  In35  1  0.03828060  0.33758423  -0.01380183  1
  In  In36  1  0.16730738  0.14701309  0.01504108  1
  In  In37  1  -0.00599314  0.84288715  0.85193622  1
  In  In38  1  0.13930827  0.67645136  0.15009424  1
  In  In39  1  0.18936413  0.49887310  0.00338927  1
  In  In40  1  0.29894958  0.33553296  0.00113083  1
  In  In41  1  0.83133903  0.32033944  0.80997428  1
  In  In42  1  0.67844744  0.13892130  0.46675753  1
  In  In43  1  0.83976364  0.14786204  0.65149939  1
  In  In44  1  -0.01342767  0.68675217  0.65352437  1
  In  In45  1  0.00536166  0.49835009  0.84864530  1
  In  In46  1  0.68374292  0.68596226  -0.00492213  1
  In  In47  1  -0.00704630  0.13555571  0.15513076  1
  In  In48  1  0.80829354  0.51845363  0.65108180  1
  In  In49  1  0.66564865  0.32803771  0.00094865  1
  In  In50  1  0.33152221  0.31005157  0.32799047  1
  In  In51  1  0.47725559  0.50191858  -0.00708421  1
  In  In52  1  0.66671073  0.51714803  0.49553001  1
  In  In53  1  0.83340557  -0.02771347  0.20116796  1
  In  In54  1  0.83638627  0.68325480  0.17098419  1
  In  In55  1  0.52410285  0.67843140  0.49300879  1
  In  In56  1  0.33526908  -0.01462984  0.66978705  1
  In  In57  1  0.16196285  0.85210032  0.32189437  1
  In  In58  1  0.16073215  -0.00398943  0.49534094  1
  In  In59  1  0.52148763  0.31988246  0.49305788  1
  In  In60  1  0.00614912  0.66491455  0.33231778  1
  In  In61  1  0.84236520  0.68584521  0.84785144  1
  In  In62  1  0.65619861  0.13168795  0.19788447  1
  In  In63  1  0.82457661  0.00533778  0.82807844  1
  In  In64  1  0.64772794  -0.01773342  0.66496329  1
  In  In65  1  0.18060303  0.67857128  0.83536851  1
  In  In66  1  0.47972547  0.34079652  0.82616492  1
  In  In67  1  -0.00617283  0.32287480  0.32777552  1
  In  In68  1  0.33145739  0.65933029  -0.00743205  1
  In  In69  1  0.14969639  0.15401784  0.66981398  1
  In  In70  1  0.48245335  0.12333588  0.01946019  1
  In  In71  1  0.00358095  -0.00560874  0.01810494  1
  Te  Te72  1  0.12406390  0.04631998  0.13620922  1
  Te  Te73  1  0.08005193  0.05171259  0.37820146  1
  Te  Te74  1  0.11168006  0.05548567  0.77384616  1
  Te  Te75  1  0.08306095  0.43329016  0.09382465  1
  Te  Te76  1  0.09689406  0.40470010  0.40696405  1
  Te  Te77  1  0.09885202  0.42725548  0.75087923  1
  Te  Te78  1  0.06449310  0.78269165  0.08523844  1
  Te  Te79  1  0.07738704  0.77175725  0.42010566  1
  Te  Te80  1  0.07709587  0.75911389  0.75315198  1
  Te  Te81  1  0.40051398  0.04475805  0.11808194  1
  Te  Te82  1  0.46108701  0.05413500  0.39505000  1
  Te  Te83  1  0.40993688  0.08664516  0.76007031  1
  Te  Te84  1  0.39879937  0.41495526  0.09087460  1
  Te  Te85  1  0.42241163  0.40617477  0.41089485  1
  Te  Te86  1  0.44163159  0.45777778  0.73780704  1
  Te  Te87  1  0.41474814  0.75541920  0.08693883  1
  Te  Te88  1  0.40388564  0.75305686  0.41816260  1
  Te  Te89  1  0.42905295  0.76596415  0.74930265  1
  Te  Te90  1  0.76531626  0.07276737  0.09246860  1
  Te  Te91  1  0.76930976  0.05037079  0.38218681  1
  Te  Te92  1  0.73148374  0.08860847  0.74234417  1
  Te  Te93  1  0.76178251  0.41723936  0.08166197  1
  Te  Te94  1  0.72774424  0.40274328  0.41164080  1
  Te  Te95  1  0.73733446  0.42705337  0.75130595  1
  Te  Te96  1  0.73596331  0.77884362  0.10312741  1
  Te  Te97  1  0.77928322  0.77701097  0.38052920  1
  Te  Te98  1  0.74619778  0.75261324  0.74941479  1
  Te  Te99  1  0.08180155  0.23034657  0.24477103  1
  Te  Te100  1  0.07172391  0.25848652  0.57643028  1
  Te  Te101  1  0.08771299  0.22030526  0.90422693  1
  Te  Te102  1  0.09455966  0.57935045  0.25141083  1
  Te  Te103  1  0.09434470  0.59421450  0.59403084  1
  Te  Te104  1  0.09167334  0.59163735  0.93050101  1
  Te  Te105  1  0.07249731  0.94931620  0.25330372  1
  Te  Te106  1  0.07684774  0.90509561  0.57595999  1
  Te  Te107  1  0.09541957  0.91749019  0.93052007  1
  Te  Te108  1  0.42621475  0.21593156  0.25483594  1
  Te  Te109  1  0.39566914  0.25719991  0.56527405  1
  Te  Te110  1  0.41817948  0.25036399  0.93776897  1
  Te  Te111  1  0.43529208  0.55625344  0.25233847  1
  Te  Te112  1  0.41788097  0.60297632  0.57523207  1
  Te  Te113  1  0.42609226  0.60075923  0.89353436  1
  Te  Te114  1  0.40754662  0.93213958  0.24825295  1
  Te  Te115  1  0.43088465  0.92550526  0.57507562  1
  Te  Te116  1  0.40640323  0.93481982  0.92422520  1
  Te  Te117  1  0.73342836  0.23501765  0.27525703  1
  Te  Te118  1  0.75141193  0.25096734  0.57674017  1
  Te  Te119  1  0.73913863  0.23687877  0.90198788  1
  Te  Te120  1  0.74305138  0.58884390  0.25186861  1
  Te  Te121  1  0.74896242  0.62581049  0.56406886  1
  Te  Te122  1  0.74155334  0.58107478  0.89848399  1
  Te  Te123  1  0.73436387  0.90174094  0.29143557  1
  Te  Te124  1  0.75078850  0.93346052  0.56333602  1
  Te  Te125  1  0.74924835  0.91279086  0.92419108  1
  Te  Te126  1  0.26895840  0.22353687  0.10424412  1
  Te  Te127  1  0.23418435  0.20988491  0.39714625  1
  Te  Te128  1  0.25142197  0.25571530  0.74480988  1
  Te  Te129  1  0.26145644  0.58544696  0.10504659  1
  Te  Te130  1  0.23624268  0.57569633  0.40207129  1
  Te  Te131  1  0.24905411  0.57857098  0.75202754  1
  Te  Te132  1  0.22602400  0.94638994  0.07270619  1
  Te  Te133  1  0.26155302  0.94892946  0.38673607  1
  Te  Te134  1  0.23370708  0.91800417  0.75231867  1
  Te  Te135  1  0.58956631  0.22840653  0.08820123  1
  Te  Te136  1  0.58291777  0.22743737  0.39506962  1
  Te  Te137  1  0.57841012  0.24678144  0.75491228  1
  Te  Te138  1  0.58651023  0.58785023  0.07114581  1
  Te  Te139  1  0.58467770  0.58776023  0.39412562  1
  Te  Te140  1  0.55470990  0.56757219  0.76200549  1
  Te  Te141  1  0.58213659  0.91141916  0.11481130  1
  Te  Te142  1  0.57626962  0.93323844  0.42045642  1
  Te  Te143  1  0.54777924  0.92009196  0.75526868  1
  Te  Te144  1  0.93028631  0.26214400  0.08774487  1
  Te  Te145  1  0.90613941  0.22997629  0.41111535  1
  Te  Te146  1  0.93007850  0.21512981  0.75593089  1
  Te  Te147  1  0.93318392  0.59273108  0.10292274  1
  Te  Te148  1  0.90605310  0.58770598  0.42686822  1
  Te  Te149  1  0.91468693  0.58068964  0.75326851  1
  Te  Te150  1  0.95538572  0.89125670  0.12457701  1
  Te  Te151  1  0.86840464  0.93474861  0.36691567  1
  Te  Te152  1  0.90878472  0.91180724  0.74107331  1
  Te  Te153  1  0.31025745  0.11589240  0.21922738  1
  Te  Te154  1  0.25444450  0.09288202  0.57649280  1
  Te  Te155  1  0.26493867  0.05542361  0.94376214  1
  Te  Te156  1  0.25678737  0.41263523  0.25248882  1
  Te  Te157  1  0.24487701  0.43007562  0.58832841  1
  Te  Te158  1  0.28059924  0.44182120  0.89350526  1
  Te  Te159  1  0.25073220  0.75129232  0.24823761  1
  Te  Te160  1  0.24355092  0.77419145  0.59266197  1
  Te  Te161  1  0.23932032  0.76815885  0.94315058  1
  Te  Te162  1  0.57253040  0.04435584  0.28393542  1
  Te  Te163  1  0.58033865  0.08958700  0.57543145  1
  Te  Te164  1  0.57457597  0.08129005  0.91146402  1
  Te  Te165  1  0.58624751  0.39662408  0.25983258  1
  Te  Te166  1  0.56738667  0.43700694  0.58121552  1
  Te  Te167  1  0.58157594  0.41902608  0.91429216  1
  Te  Te168  1  0.59828166  0.74668917  0.26256666  1
  Te  Te169  1  0.58902938  0.77081977  0.59312702  1
  Te  Te170  1  0.56808093  0.74322102  0.91387244  1
  Te  Te171  1  0.90077190  0.09136715  0.26463751  1
  Te  Te172  1  0.91959463  0.05938840  0.55729731  1
  Te  Te173  1  0.92027399  0.08015676  0.92130285  1
  Te  Te174  1  0.92171983  0.42576674  0.24060322  1
  Te  Te175  1  0.92401409  0.42999626  0.58698086  1
  Te  Te176  1  0.90877384  0.40145625  0.91792339  1
  Te  Te177  1  0.90906208  0.76505015  0.27563130  1
  Te  Te178  1  0.92205522  0.76226381  0.54410131  1
  Te  Te179  1  0.93840020  0.73735412  0.95201458  1
