# generated using pymatgen
data_In2Te3
_symmetry_space_group_name_H-M   'P 1'
_cell_length_a   18.91895017
_cell_length_b   18.93456661
_cell_length_c   18.94468563
_cell_angle_alpha   89.79643610
_cell_angle_beta   89.92372696
_cell_angle_gamma   90.06257136
_symmetry_Int_Tables_number   1
_chemical_formula_structural   In2Te3
_chemical_formula_sum   'In72 Te108'
_cell_volume   6786.35256592
_cell_formula_units_Z   36
loop_
 _symmetry_equiv_pos_site_id
 _symmetry_equiv_pos_as_xyz
  1  'x, y, z'
loop_
 _atom_site_type_symbol
 _atom_site_label
 _atom_site_symmetry_multiplicity
 _atom_site_fract_x
 _atom_site_fract_y
 _atom_site_fract_z
 _atom_site_occupancy
  In  In0  1  0.55753397  0.17721724  0.69559227  1
  In  In1  1  0.51079011  0.49524243  0.02014723  1
  In  In2  1  0.81565178  -0.00145589  0.84071078  1
  In  In3  1  -0.00253505  0.80845629  0.17481034  1
  In  In4  1  0.83267158  0.54052551  0.03163455  1
  In  In5  1  0.67298658  0.35095066  0.33378046  1
  In  In6  1  0.02177015  0.85337433  0.85774343  1
  In  In7  1  0.15170645  0.32493571  0.52610625  1
  In  In8  1  0.03957272  0.16071404  0.17063085  1
  In  In9  1  -0.00051383  0.67036104  0.68450317  1
  In  In10  1  0.66649848  -0.02201000  0.33621859  1
  In  In11  1  0.32625220  0.52468314  0.47745805  1
  In  In12  1  0.35213890  0.15078491  0.13283998  1
  In  In13  1  0.82322042  0.66025481  0.85217176  1
  In  In14  1  -0.00804052  0.16756758  0.80933277  1
  In  In15  1  0.68701879  0.48073354  0.51633009  1
  In  In16  1  0.52417439  0.35012537  0.17958342  1
  In  In17  1  0.47238182  0.17726667  0.35216873  1
  In  In18  1  0.18540857  0.35212120  0.17532757  1
  In  In19  1  0.84592874  0.78465613  0.02846420  1
  In  In20  1  -0.05060834  0.43471806  0.78729246  1
  In  In21  1  0.51939910  -0.02379044  0.17289872  1
  In  In22  1  0.34369612  0.01051440  0.30635544  1
  In  In23  1  0.28240035  0.15096871  0.50218233  1
  In  In24  1  0.66858683  0.15458857  0.15686850  1
  In  In25  1  0.67614079  0.01926035  0.67015740  1
  In  In26  1  0.14930897  0.81083478  0.32194544  1
  In  In27  1  0.51585703  0.64714583  0.47754760  1
  In  In28  1  0.85852350  0.20367305  0.35798260  1
  In  In29  1  0.84878419  -0.00982918  0.17505593  1
  In  In30  1  0.33802227  -0.02957787  -0.00458090  1
  In  In31  1  0.18377657  0.32493091  0.82661299  1
  In  In32  1  0.20075300  0.01004051  0.15296330  1
  In  In33  1  0.52074640  0.82927413  0.00856880  1
  In  In34  1  0.31375492  0.54087095  0.17092818  1
  In  In35  1  0.64443634  0.65447574  0.66395032  1
  In  In36  1  0.66258415  0.84613873  0.84520798  1
  In  In37  1  0.15371772  -0.02203658  0.50266174  1
  In  In38  1  0.81402790  0.68137105  0.48538742  1
  In  In39  1  0.67081552  0.34275311  0.00672552  1
  In  In40  1  -0.02213017  0.35195171  0.38039845  1
  In  In41  1  -0.00997893  -0.02327897  0.33615767  1
  In  In42  1  0.31113495  0.84624261  0.51114151  1
  In  In43  1  0.33184477  0.37668139  0.31761943  1
  In  In44  1  0.30837798  0.69901552  0.66997044  1
  In  In45  1  0.34559297  0.48641176  0.84503862  1
  In  In46  1  0.81783963  0.51903600  0.32069294  1
  In  In47  1  0.48785740  0.81246239  0.64088092  1
  In  In48  1  0.30559313  0.85323021  0.81535690  1
  In  In49  1  0.50785466  0.01075786  0.82012744  1
  In  In50  1  0.53294926  0.18999144  -0.07812609  1
  In  In51  1  0.70744109  0.18815185  0.51505216  1
  In  In52  1  0.13680702  0.66829493  0.84638981  1
  In  In53  1  0.14616389  0.18170783  0.36684789  1
  In  In54  1  0.14332427  0.52010379  -0.00032322  1
  In  In55  1  -0.00079111  0.35033447  -0.01602557  1
  In  In56  1  0.49398949  0.49869431  0.66338321  1
  In  In57  1  0.51695682  0.63024760  0.84189081  1
  In  In58  1  0.81754563  0.84498102  0.65263078  1
  In  In59  1  0.36311523  0.31698801  0.00356596  1
  In  In60  1  -0.01945818  0.67325851  0.32651867  1
  In  In61  1  0.85476186  0.34980581  0.16923016  1
  In  In62  1  0.00150265  0.00588151  0.66495809  1
  In  In63  1  0.50148973  0.82917444  0.32016296  1
  In  In64  1  0.32155559  0.68332732  0.33126283  1
  In  In65  1  0.18645067  0.13491798  -0.02298986  1
  In  In66  1  0.84330689  0.17913317  -0.02177742  1
  In  In67  1  0.84674176  0.00960918  0.50402799  1
  In  In68  1  0.16708995  0.51688559  0.66194898  1
  In  In69  1  0.51313357  0.68098166  0.16860902  1
  In  In70  1  0.31284973  0.30952147  0.67394284  1
  In  In71  1  0.47949731  0.33064078  0.50437497  1
  Te  Te72  1  0.08474148  0.06318790  0.06426244  1
  Te  Te73  1  0.05899228  0.07509553  0.43016424  1
  Te  Te74  1  0.08106094  0.05511726  0.77810669  1
  Te  Te75  1  0.07583405  0.42170155  0.09491392  1
  Te  Te76  1  0.08611269  0.42654490  0.44416192  1
  Te  Te77  1  0.09415985  0.40435760  0.73424690  1
  Te  Te78  1  0.05701730  0.71677798  0.07213715  1
  Te  Te79  1  0.04546424  0.77144263  0.41625505  1
  Te  Te80  1  0.09255241  0.77335187  0.74650197  1
  Te  Te81  1  0.44495780  0.05442307  0.06447879  1
  Te  Te82  1  0.39872658  0.07277334  0.43322622  1
  Te  Te83  1  0.43674715  0.09842170  0.72692198  1
  Te  Te84  1  0.39881491  0.42321500  0.10690447  1
  Te  Te85  1  0.43572938  0.43963136  0.40879768  1
  Te  Te86  1  0.41703675  0.39673520  0.74744270  1
  Te  Te87  1  0.41921997  0.75768741  0.08516973  1
  Te  Te88  1  0.41091463  0.75837064  0.43336869  1
  Te  Te89  1  0.43423422  0.72674575  0.75494891  1
  Te  Te90  1  0.77190203  0.08209710  0.07617510  1
  Te  Te91  1  0.75501228  0.09188079  0.40012723  1
  Te  Te92  1  0.77210553  0.10339135  0.74352664  1
  Te  Te93  1  0.74517359  0.43002372  0.10487431  1
  Te  Te94  1  0.78113592  0.40483505  0.42289199  1
  Te  Te95  1  0.78578858  0.39987527  0.71763264  1
  Te  Te96  1  0.74778841  0.68908856  0.08679729  1
  Te  Te97  1  0.77312471  0.78542384  0.38964560  1
  Te  Te98  1  0.73814939  0.74800034  0.74780383  1
  Te  Te99  1  0.07752189  0.27495906  0.26540404  1
  Te  Te100  1  0.06553546  0.21745643  0.56996119  1
  Te  Te101  1  0.08454316  0.24263943  0.91988290  1
  Te  Te102  1  0.06105180  0.63186897  0.20530907  1
  Te  Te103  1  0.05934091  0.57847040  0.58556552  1
  Te  Te104  1  0.06056646  0.54607716  0.87968871  1
  Te  Te105  1  0.08892798  0.93100110  0.23171464  1
  Te  Te106  1  0.04342975  0.90484778  0.56716594  1
  Te  Te107  1  0.14954486  0.88034165  0.92714497  1
  Te  Te108  1  0.40767750  0.26075307  0.24201261  1
  Te  Te109  1  0.39693043  0.22812422  0.57649350  1
  Te  Te110  1  0.39040382  0.22100417  0.89696029  1
  Te  Te111  1  0.42099746  0.59296055  0.26256092  1
  Te  Te112  1  0.41070509  0.60029686  0.58791360  1
  Te  Te113  1  0.41230168  0.58246296  0.94106833  1
  Te  Te114  1  0.40129987  0.89678785  0.22541007  1
  Te  Te115  1  0.39434424  0.92352428  0.60832241  1
  Te  Te116  1  0.43178364  0.89207827  0.89264621  1
  Te  Te117  1  0.75237106  0.25225627  0.23973097  1
  Te  Te118  1  0.75734050  0.28646331  0.61167356  1
  Te  Te119  1  0.74288345  0.25908065  0.90724337  1
  Te  Te120  1  0.79455361  0.63116017  0.22462990  1
  Te  Te121  1  0.76104829  0.58596289  0.59605132  1
  Te  Te122  1  0.74029616  0.55840742  0.91721651  1
  Te  Te123  1  0.72967943  0.91143308  0.22013532  1
  Te  Te124  1  0.73048434  0.92758208  0.56133670  1
  Te  Te125  1  0.77040823  0.89017518  0.93931506  1
  Te  Te126  1  0.23715080  0.24455785  0.08028791  1
  Te  Te127  1  0.26244109  0.27782456  0.41023859  1
  Te  Te128  1  0.21956955  0.21535853  0.73632249  1
  Te  Te129  1  0.24043619  0.60901117  0.06362428  1
  Te  Te130  1  0.22689486  0.62214246  0.42999513  1
  Te  Te131  1  0.25721916  0.58503576  0.76829218  1
  Te  Te132  1  0.23600471  0.89111693  0.07120738  1
  Te  Te133  1  0.24560147  0.92233546  0.38834256  1
  Te  Te134  1  0.25697378  0.92602020  0.69930466  1
  Te  Te135  1  0.56876434  0.24280515  0.08081386  1
  Te  Te136  1  0.58867135  0.25462798  0.41797182  1
  Te  Te137  1  0.59323113  0.26662557  0.80615457  1
  Te  Te138  1  0.59991549  0.58954430  0.08912138  1
  Te  Te139  1  0.62744963  0.57531838  0.41550430  1
  Te  Te140  1  0.60611655  0.54036537  0.75838716  1
  Te  Te141  1  0.61892232  0.90157950  0.09299253  1
  Te  Te142  1  0.55397547  0.92910363  0.41474694  1
  Te  Te143  1  0.58575568  0.90354358  0.72584887  1
  Te  Te144  1  0.93375287  0.24496236  0.08913166  1
  Te  Te145  1  0.94293384  0.24052910  0.47703734  1
  Te  Te146  1  0.91497220  0.28684218  0.76248690  1
  Te  Te147  1  0.95744363  0.59857994  0.09353955  1
  Te  Te148  1  0.90964286  0.57976525  0.42536298  1
  Te  Te149  1  0.89971341  0.57795701  0.75069281  1
  Te  Te150  1  0.92958980  0.90585288  0.07861297  1
  Te  Te151  1  0.87656791  0.90358687  0.40017792  1
  Te  Te152  1  0.90619931  0.90327363  0.76102920  1
  Te  Te153  1  0.24103690  0.11419630  0.25826983  1
  Te  Te154  1  0.22720760  0.05852659  0.60521054  1
  Te  Te155  1  0.29070422  0.07096396  0.89666749  1
  Te  Te156  1  0.21944680  0.46691342  0.26906623  1
  Te  Te157  1  0.26957527  0.42700231  0.58032720  1
  Te  Te158  1  0.25075161  0.40966463  0.93818800  1
  Te  Te159  1  0.23490704  0.74100401  0.22671344  1
  Te  Te160  1  0.21939445  0.74049867  0.56098654  1
  Te  Te161  1  0.24566824  0.75422541  0.90951131  1
  Te  Te162  1  0.56691128  0.09772020  0.25908503  1
  Te  Te163  1  0.59408813  0.10190436  0.56904286  1
  Te  Te164  1  0.60941195  0.06556273  0.90977339  1
  Te  Te165  1  0.59900216  0.45039635  0.25481575  1
  Te  Te166  1  0.58191872  0.39638456  0.59339413  1
  Te  Te167  1  0.56169714  0.39846407  0.92078715  1
  Te  Te168  1  0.59932950  0.72970394  0.27812682  1
  Te  Te169  1  0.59751200  0.75009490  0.55494103  1
  Te  Te170  1  0.59923620  0.73095454  0.92130015  1
  Te  Te171  1  0.92629194  0.10082238  0.25549731  1
  Te  Te172  1  0.88873802  0.09269748  0.61883028  1
  Te  Te173  1  0.92727927  0.07175392  0.91370282  1
  Te  Te174  1  0.93347328  0.44024853  0.25893034  1
  Te  Te175  1  0.89248602  0.38427385  0.62106399  1
  Te  Te176  1  0.88652664  0.43110367  0.93222907  1
  Te  Te177  1  0.87590267  0.76361495  0.25708792  1
  Te  Te178  1  0.90977837  0.74903350  0.58406438  1
  Te  Te179  1  0.93759785  0.73766048  0.91591178  1
