# generated using pymatgen
data_In2Te3
_symmetry_space_group_name_H-M   'P 1'
_cell_length_a   18.77657929
_cell_length_b   18.76929522
_cell_length_c   18.77549369
_cell_angle_alpha   90.00511006
_cell_angle_beta   90.11315632
_cell_angle_gamma   90.01135666
_symmetry_Int_Tables_number   1
_chemical_formula_structural   In2Te3
_chemical_formula_sum   'In72 Te108'
_cell_volume   6616.90575498
_cell_formula_units_Z   36
loop_
 _symmetry_equiv_pos_site_id
 _symmetry_equiv_pos_as_xyz
  1  'x, y, z'
loop_
 _atom_site_type_symbol
 _atom_site_label
 _atom_site_symmetry_multiplicity
 _atom_site_fract_x
 _atom_site_fract_y
 _atom_site_fract_z
 _atom_site_occupancy
  In  In0  1  -0.00965111  0.00292783  0.31046729  1
  In  In1  1  0.82018600  0.63138510  0.49883015  1
  In  In2  1  0.83725190  0.49371257  0.00788696  1
  In  In3  1  -0.00068424  0.64217000  0.70045815  1
  In  In4  1  0.18630675  0.80832807  0.67052420  1
  In  In5  1  0.31570022  0.32777582  0.31371155  1
  In  In6  1  0.48297449  0.66162314  0.16964615  1
  In  In7  1  0.83872418  0.35498961  0.81493688  1
  In  In8  1  0.67147737  0.01891825  0.34671258  1
  In  In9  1  0.32020042  0.34733046  0.65347510  1
  In  In10  1  -0.03149792  0.82108596  0.87682301  1
  In  In11  1  0.82536893  0.17423692  0.67835724  1
  In  In12  1  0.34665471  0.18449485  0.85352906  1
  In  In13  1  0.18549671  0.17708493  0.30766789  1
  In  In14  1  0.82284952  0.48210620  0.32348705  1
  In  In15  1  0.13963607  0.18133756  0.64526711  1
  In  In16  1  0.50129965  0.83886112  0.00590731  1
  In  In17  1  0.15146638  0.00695089  0.81666604  1
  In  In18  1  0.65952164  0.32542195  0.01228920  1
  In  In19  1  0.01654491  0.35999839  0.34301678  1
  In  In20  1  0.67747042  0.00836259  0.68241429  1
  In  In21  1  0.16557293  0.19344052  0.03559647  1
  In  In22  1  0.66502646  0.33816123  0.32041274  1
  In  In23  1  0.17023549  0.84274892  0.00867231  1
  In  In24  1  0.49890068  0.66193644  0.81635088  1
  In  In25  1  0.83721548  0.17239007  -0.00527543  1
  In  In26  1  0.34095909  0.82573610  0.83839567  1
  In  In27  1  0.64830214  0.65486231  0.34037805  1
  In  In28  1  0.37055235  -0.00689149  0.63753973  1
  In  In29  1  0.64413645  0.83185516  0.50929693  1
  In  In30  1  0.82675283  0.02382844  0.14255265  1
  In  In31  1  0.31926260  0.48155843  0.85144051  1
  In  In32  1  0.01399850  -0.01047405  0.69263493  1
  In  In33  1  0.50106098  -0.00170939  0.15690845  1
  In  In34  1  0.52003726  0.31976183  0.83994007  1
  In  In35  1  0.68341247  0.66652513  0.66651554  1
  In  In36  1  0.51217254  0.50694159  0.65178237  1
  In  In37  1  0.49087478  0.46420476  0.02575250  1
  In  In38  1  0.82898098  0.65906078  0.14741223  1
  In  In39  1  0.55146505  0.02194655  0.84874465  1
  In  In40  1  -0.00271502  0.15099586  0.16111631  1
  In  In41  1  0.66498735  0.80541609  0.14717280  1
  In  In42  1  -0.01125979  0.50514120  0.84223861  1
  In  In43  1  0.50939974  -0.00877153  0.51611240  1
  In  In44  1  0.84114864  0.35562895  0.52242108  1
  In  In45  1  0.35234360  0.66979326  0.35648412  1
  In  In46  1  0.67960353  0.87138088  0.84939348  1
  In  In47  1  0.15396016  0.33082634  0.85405332  1
  In  In48  1  0.50546464  0.34958145  0.49967793  1
  In  In49  1  0.82926275  0.85293051  0.33302319  1
  In  In50  1  0.50620538  0.49581359  0.32506953  1
  In  In51  1  0.33170468  0.18634927  0.47285192  1
  In  In52  1  0.00015317  0.64047594  0.31747654  1
  In  In53  1  0.52201436  0.16514196  0.67753762  1
  In  In54  1  0.16859874  0.49422675  0.67566782  1
  In  In55  1  0.17264306  0.62342733  0.50918467  1
  In  In56  1  0.32476484  0.65747079  0.01131150  1
  In  In57  1  0.49426022  0.17832516  0.32141570  1
  In  In58  1  0.34689484  0.64909489  0.64518958  1
  In  In59  1  0.00232718  0.84853213  0.15379560  1
  In  In60  1  0.16111600  0.65139145  0.16698616  1
  In  In61  1  0.01986683  0.81757600  0.52112820  1
  In  In62  1  0.11921231  0.64224624  0.84121300  1
  In  In63  1  0.17012493  0.83488137  0.32756818  1
  In  In64  1  0.82795794  0.32149572  0.17051356  1
  In  In65  1  0.32636082  0.00994541  0.01552839  1
  In  In66  1  -0.01950918  0.19502594  0.50001627  1
  In  In67  1  0.17990843  0.01799601  0.47067768  1
  In  In68  1  0.81850893  0.01607386  0.50080279  1
  In  In69  1  0.67721824  0.64833320  -0.00133170  1
  In  In70  1  0.85299452  0.82760436  0.69239660  1
  In  In71  1  0.33093070  0.00655793  0.29602712  1
  Te  Te72  1  0.08786818  0.07309837  0.07496458  1
  Te  Te73  1  0.07049624  0.10202737  0.40530701  1
  Te  Te74  1  0.06139878  0.11956422  0.76266298  1
  Te  Te75  1  0.11867065  0.44415289  0.11557362  1
  Te  Te76  1  0.12762696  0.40482312  0.43102531  1
  Te  Te77  1  0.07084635  0.40939036  0.75333185  1
  Te  Te78  1  0.07646665  0.74142277  0.07438287  1
  Te  Te79  1  0.08590020  0.73385325  0.40937200  1
  Te  Te80  1  0.06530928  0.77423881  0.75698158  1
  Te  Te81  1  0.42588871  0.10123290  0.07782998  1
  Te  Te82  1  0.41999080  0.07543056  0.41555265  1
  Te  Te83  1  0.42167210  0.08521750  0.76126680  1
  Te  Te84  1  0.39021725  0.38802577  0.10292230  1
  Te  Te85  1  0.40291812  0.41236057  0.40739262  1
  Te  Te86  1  0.41698150  0.41509145  0.75427174  1
  Te  Te87  1  0.40020132  0.76429569  0.09089106  1
  Te  Te88  1  0.42327806  0.75844141  0.44976508  1
  Te  Te89  1  0.42133118  0.75814918  0.72757114  1
  Te  Te90  1  0.72360284  0.10399262  0.06709120  1
  Te  Te91  1  0.75878753  0.11743807  0.41351634  1
  Te  Te92  1  0.74112367  0.10047674  0.77861616  1
  Te  Te93  1  0.73726369  0.42297179  0.09922800  1
  Te  Te94  1  0.73099750  0.42373102  0.42755778  1
  Te  Te95  1  0.76863590  0.44005405  0.71663544  1
  Te  Te96  1  0.77823322  0.76523460  0.04480321  1
  Te  Te97  1  0.75369876  0.74889467  0.41601865  1
  Te  Te98  1  0.74957986  0.75549981  0.77553407  1
  Te  Te99  1  0.07557878  0.25778822  0.24052066  1
  Te  Te100  1  0.06072540  0.29358877  0.58183276  1
  Te  Te101  1  0.06917525  0.23804836  0.93154985  1
  Te  Te102  1  0.09325867  0.54419025  0.25180485  1
  Te  Te103  1  0.05190586  0.55928353  0.58079269  1
  Te  Te104  1  0.07962222  0.55414514  0.95174052  1
  Te  Te105  1  0.10230064  0.93481274  0.23344955  1
  Te  Te106  1  0.10708753  0.93061055  0.58140984  1
  Te  Te107  1  0.07520204  0.92368336  0.92103817  1
  Te  Te108  1  0.41779640  0.26311885  0.22567735  1
  Te  Te109  1  0.41540304  0.24331835  0.58916360  1
  Te  Te110  1  0.42604305  0.26999162  0.94688586  1
  Te  Te111  1  0.39537806  0.56489669  0.24384505  1
  Te  Te112  1  0.41770497  0.56065082  0.55075063  1
  Te  Te113  1  0.42391475  0.57864550  0.92241604  1
  Te  Te114  1  0.42597064  0.90619469  0.24514697  1
  Te  Te115  1  0.42087965  0.87403767  0.55778777  1
  Te  Te116  1  0.42332573  0.93182554  0.91140386  1
  Te  Te117  1  0.72504765  0.23508702  0.23112251  1
  Te  Te118  1  0.74958952  0.25557265  0.58097250  1
  Te  Te119  1  0.75264866  0.26626613  0.90812143  1
  Te  Te120  1  0.73774388  0.58006943  0.24180444  1
  Te  Te121  1  0.75037215  0.54520305  0.60088867  1
  Te  Te122  1  0.76553976  0.57578410  0.90422003  1
  Te  Te123  1  0.73854863  0.91995687  0.23335556  1
  Te  Te124  1  0.75892736  0.90281481  0.58732232  1
  Te  Te125  1  0.77786356  0.96030896  0.91599554  1
  Te  Te126  1  0.26547041  0.29145560  0.08881982  1
  Te  Te127  1  0.21174688  0.27022049  0.43130965  1
  Te  Te128  1  0.24673069  0.25166692  0.74831907  1
  Te  Te129  1  0.24034380  0.55543950  0.07900112  1
  Te  Te130  1  0.24157169  0.57483005  0.38836751  1
  Te  Te131  1  0.25354282  0.59432839  0.75701270  1
  Te  Te132  1  0.26287981  0.90860616  0.10224197  1
  Te  Te133  1  0.27082089  0.91413881  0.41075266  1
  Te  Te134  1  0.26211876  0.92421637  0.74551315  1
  Te  Te135  1  0.55084807  0.22988153  0.05233670  1
  Te  Te136  1  0.58455704  0.24642877  0.42206424  1
  Te  Te137  1  0.61741328  0.24914644  0.75344402  1
  Te  Te138  1  0.57838623  0.57484490  0.08959876  1
  Te  Te139  1  0.57655479  0.56886327  0.43560780  1
  Te  Te140  1  0.60254136  0.56954749  0.75900709  1
  Te  Te141  1  0.60881705  0.92434368  0.06788510  1
  Te  Te142  1  0.57591514  0.91316234  0.39988710  1
  Te  Te143  1  0.57630575  0.90978431  0.74210990  1
  Te  Te144  1  0.93207293  0.26120829  0.07714063  1
  Te  Te145  1  0.90165068  0.27567393  0.39861742  1
  Te  Te146  1  0.92731055  0.25925498  0.74284926  1
  Te  Te147  1  0.93457012  0.57938957  0.08378072  1
  Te  Te148  1  0.92343000  0.55344077  0.41671846  1
  Te  Te149  1  0.88092460  0.57385850  0.76161201  1
  Te  Te150  1  0.91205620  0.92819601  0.06701122  1
  Te  Te151  1  0.93151616  0.91812677  0.42683413  1
  Te  Te152  1  0.89729817  0.94295784  0.78124708  1
  Te  Te153  1  0.25780688  0.09805289  0.20634517  1
  Te  Te154  1  0.25299973  0.09155414  0.58796544  1
  Te  Te155  1  0.24112666  0.09026024  0.91510402  1
  Te  Te156  1  0.20886632  0.39121541  0.21797018  1
  Te  Te157  1  0.24662825  0.43802502  0.56103877  1
  Te  Te158  1  0.24793004  0.39673294  0.95077755  1
  Te  Te159  1  0.25595968  0.73865409  0.24893405  1
  Te  Te160  1  0.25601922  0.74360058  0.55438116  1
  Te  Te161  1  0.23690232  0.73958091  0.90886281  1
  Te  Te162  1  0.59148447  0.09393273  0.23999319  1
  Te  Te163  1  0.60815101  0.09238501  0.57419124  1
  Te  Te164  1  0.59653112  0.11662071  0.95337393  1
  Te  Te165  1  0.56863247  0.40306776  0.22852462  1
  Te  Te166  1  0.59243852  0.38873298  0.61231623  1
  Te  Te167  1  0.59384196  0.42935920  0.91733786  1
  Te  Te168  1  0.56925241  0.75466410  0.25580929  1
  Te  Te169  1  0.57855746  0.71664372  0.57338668  1
  Te  Te170  1  0.58318681  0.74672514  0.91557655  1
  Te  Te171  1  0.88854510  0.10245965  0.25936208  1
  Te  Te172  1  0.92940146  0.07286291  0.58895877  1
  Te  Te173  1  0.89728930  0.06057989  0.91611683  1
  Te  Te174  1  0.92601442  0.42306628  0.23013663  1
  Te  Te175  1  0.95762578  0.42678857  0.57829431  1
  Te  Te176  1  0.92804864  0.39653837  0.93323960  1
  Te  Te177  1  0.91679828  0.75476715  0.25145936  1
  Te  Te178  1  0.90877781  0.73188165  0.58406240  1
  Te  Te179  1  0.89124896  0.71667251  0.94312840  1
