# generated using pymatgen
data_In2Te3
_symmetry_space_group_name_H-M   'P 1'
_cell_length_a   18.99276386
_cell_length_b   18.99535248
_cell_length_c   18.99938492
_cell_angle_alpha   90.07741141
_cell_angle_beta   90.14525584
_cell_angle_gamma   89.93531210
_symmetry_Int_Tables_number   1
_chemical_formula_structural   In2Te3
_chemical_formula_sum   'In72 Te108'
_cell_volume   6854.45610360
_cell_formula_units_Z   36
loop_
 _symmetry_equiv_pos_site_id
 _symmetry_equiv_pos_as_xyz
  1  'x, y, z'
loop_
 _atom_site_type_symbol
 _atom_site_label
 _atom_site_symmetry_multiplicity
 _atom_site_fract_x
 _atom_site_fract_y
 _atom_site_fract_z
 _atom_site_occupancy
  In  In0  1  0.32757575  0.48986647  0.13458344  1
  In  In1  1  0.31998761  0.47959050  0.86400100  1
  In  In2  1  0.17481548  0.02756825  0.47615181  1
  In  In3  1  0.35597286  0.81050994  0.51553372  1
  In  In4  1  0.16793109  0.31637561  0.50055688  1
  In  In5  1  0.65022719  0.01292778  0.69540721  1
  In  In6  1  0.16394277  0.18877535  0.69216483  1
  In  In7  1  0.32615718  0.16123313  0.83379738  1
  In  In8  1  0.81655213  0.47927923  0.31879472  1
  In  In9  1  0.84313475  0.66399351  0.85856558  1
  In  In10  1  0.17373480  0.62325181  0.92238602  1
  In  In11  1  0.16478853  0.85212519  0.31349475  1
  In  In12  1  0.47031681  0.17001086  0.03001625  1
  In  In13  1  0.18597132  0.85929979  0.68161699  1
  In  In14  1  0.02372117  0.33896936  0.68658625  1
  In  In15  1  0.02737026  0.85857765  0.47506435  1
  In  In16  1  0.81686217  0.82537909  0.32803808  1
  In  In17  1  0.84418505  0.16666429  0.32742831  1
  In  In18  1  0.47035284  0.85829664  -0.01046533  1
  In  In19  1  0.21963308  0.50860164  0.30495977  1
  In  In20  1  0.85628399  0.64741275  0.16119679  1
  In  In21  1  0.84524389  -0.01583961  0.85484171  1
  In  In22  1  0.82296310  0.34306541  0.49508285  1
  In  In23  1  0.82376390  -0.02176839  0.52408554  1
  In  In24  1  0.66170819  0.15181484  0.15761446  1
  In  In25  1  0.32667964  0.65204368  0.66690077  1
  In  In26  1  0.81173790  0.31837393  0.84951057  1
  In  In27  1  0.50329402  0.67486772  0.82630730  1
  In  In28  1  0.66710585  -0.00214789  0.00801176  1
  In  In29  1  0.01846428  0.16507063  0.86685748  1
  In  In30  1  0.33773915  0.48931559  0.49334775  1
  In  In31  1  0.67163771  0.65105294  0.66743707  1
  In  In32  1  0.02339692  0.33186220  0.31729549  1
  In  In33  1  0.47393296  0.67278211  0.15808169  1
  In  In34  1  0.15110663  0.67649571  0.14870325  1
  In  In35  1  0.83592240  0.33208069  0.17305678  1
  In  In36  1  0.84429427  0.78361220  0.68554934  1
  In  In37  1  0.81959895  0.68920020  0.50031324  1
  In  In38  1  0.33775488  -0.00394354  0.68704277  1
  In  In39  1  -0.00231936  0.64873203  0.32576147  1
  In  In40  1  0.01947030  0.82275160  0.84783958  1
  In  In41  1  0.84404243  0.48293361  0.01669570  1
  In  In42  1  0.01240499  0.01995237  0.02105035  1
  In  In43  1  0.52039350  0.50973071  -0.02210794  1
  In  In44  1  0.02337222  0.61993191  0.77337423  1
  In  In45  1  0.65532689  0.50031155  0.47439650  1
  In  In46  1  0.65211624  0.16037507  0.85572271  1
  In  In47  1  0.67887393  0.49066560  0.81770421  1
  In  In48  1  -0.00262515  0.47903460  0.48603955  1
  In  In49  1  0.83806293  0.17805993  0.65619357  1
  In  In50  1  0.64687464  -0.00001766  0.32122876  1
  In  In51  1  0.65486690  0.17440727  0.47154682  1
  In  In52  1  0.49704713  0.33959135  0.18014497  1
  In  In53  1  -0.00370922  0.02729679  0.68530906  1
  In  In54  1  0.15258077  0.51110292  0.67123852  1
  In  In55  1  0.02387406  0.34804508  0.02308444  1
  In  In56  1  0.50817791  0.65043070  0.47315694  1
  In  In57  1  0.67801261  0.84141032  0.48799145  1
  In  In58  1  0.34869945  0.16231970  0.50594767  1
  In  In59  1  0.18819120  0.16931317  0.29524641  1
  In  In60  1  0.01264046  0.00561137  0.29142355  1
  In  In61  1  0.49487917  0.33569384  0.82608495  1
  In  In62  1  0.50448764  0.34321783  0.47513747  1
  In  In63  1  0.64749766  0.82823733  0.15510172  1
  In  In64  1  0.15703951  0.62769085  0.50171025  1
  In  In65  1  0.65999910  0.67327987  0.02262512  1
  In  In66  1  0.20168172  0.18702221  0.02044061  1
  In  In67  1  0.50930940  0.18270985  0.63969679  1
  In  In68  1  0.16971904  0.83500492  -0.00046956  1
  In  In69  1  0.51501128  0.84990019  0.66009755  1
  In  In70  1  0.32225259  0.85580702  0.15333550  1
  In  In71  1  0.34557094  -0.00744916  0.33091839  1
  Te  Te72  1  0.08895925  0.12388655  0.09694424  1
  Te  Te73  1  0.07983122  0.10110390  0.38830070  1
  Te  Te74  1  0.10550838  0.07729636  0.77659610  1
  Te  Te75  1  0.12995798  0.45290647  0.03224438  1
  Te  Te76  1  0.11491385  0.42662689  0.40555249  1
  Te  Te77  1  0.08155640  0.43801388  0.77743164  1
  Te  Te78  1  0.06280816  0.77538345  0.08351365  1
  Te  Te79  1  0.09518597  0.73835902  0.40769399  1
  Te  Te80  1  0.07999517  0.75737342  0.72834852  1
  Te  Te81  1  0.40117157  0.10627300  0.14588463  1
  Te  Te82  1  0.43051391  0.08567177  0.41068725  1
  Te  Te83  1  0.43188875  0.09909649  0.74190991  1
  Te  Te84  1  0.43613116  0.41457877  0.06102120  1
  Te  Te85  1  0.40489606  0.41125612  0.38801423  1
  Te  Te86  1  0.40290224  0.42673474  0.75638296  1
  Te  Te87  1  0.38889939  0.75394794  0.06134780  1
  Te  Te88  1  0.43291672  0.75709191  0.40424657  1
  Te  Te89  1  0.41618581  0.75522808  0.73191360  1
  Te  Te90  1  0.76425210  0.06828028  0.09372795  1
  Te  Te91  1  0.75752995  0.07256725  0.42101915  1
  Te  Te92  1  0.76940690  0.08432403  0.75525576  1
  Te  Te93  1  0.74525067  0.43091648  0.11127478  1
  Te  Te94  1  0.72205396  0.38798400  0.39250208  1
  Te  Te95  1  0.76199028  0.40027253  0.73952985  1
  Te  Te96  1  0.76570956  0.75390035  0.09240319  1
  Te  Te97  1  0.72031057  0.72894001  0.39365542  1
  Te  Te98  1  0.73306042  0.73894408  0.77372464  1
  Te  Te99  1  0.07657188  0.23487231  0.21843353  1
  Te  Te100  1  0.07125234  0.23606885  0.58152135  1
  Te  Te101  1  0.11133530  0.26691311  0.92163828  1
  Te  Te102  1  0.09483432  0.56899264  0.24150828  1
  Te  Te103  1  0.04268758  0.58561088  0.58767309  1
  Te  Te104  1  0.02660381  0.60503932  0.92179442  1
  Te  Te105  1  0.09718818  0.92300351  0.19911462  1
  Te  Te106  1  0.08866410  0.94258201  0.58660466  1
  Te  Te107  1  0.08511036  0.93827389  0.91464303  1
  Te  Te108  1  0.39186516  0.23842180  0.21857578  1
  Te  Te109  1  0.40778906  0.27646936  0.58301047  1
  Te  Te110  1  0.40762566  0.25682972  0.92127696  1
  Te  Te111  1  0.38333285  0.58256778  0.23364122  1
  Te  Te112  1  0.42448800  0.57887907  0.57933022  1
  Te  Te113  1  0.41263973  0.59304781  0.91457844  1
  Te  Te114  1  0.41791994  0.88532181  0.26163400  1
  Te  Te115  1  0.42006054  0.93408828  0.57593835  1
  Te  Te116  1  0.39083539  0.93810467  0.89639641  1
  Te  Te117  1  0.73882522  0.24427437  0.25315769  1
  Te  Te118  1  0.73337764  0.25236970  0.57679381  1
  Te  Te119  1  0.74283207  0.23247936  0.94391477  1
  Te  Te120  1  0.75024720  0.58002689  0.23669618  1
  Te  Te121  1  0.75480397  0.57185186  0.56991561  1
  Te  Te122  1  0.73945361  0.57638062  0.93515801  1
  Te  Te123  1  0.74290002  0.91907141  0.23677193  1
  Te  Te124  1  0.74238071  0.89226475  0.61661349  1
  Te  Te125  1  0.75644686  0.90364470  0.93624509  1
  Te  Te126  1  0.27816357  0.27477139  0.11549578  1
  Te  Te127  1  0.26071106  0.24162439  0.40873985  1
  Te  Te128  1  0.25791329  0.27206079  0.76403252  1
  Te  Te129  1  0.23752659  0.59233546  0.05686032  1
  Te  Te130  1  0.27339098  0.60258380  0.41115944  1
  Te  Te131  1  0.23636889  0.59144384  0.77042810  1
  Te  Te132  1  0.25737171  0.94347706  0.05225705  1
  Te  Te133  1  0.25113333  0.90522178  0.43319375  1
  Te  Te134  1  0.27711233  0.91059981  0.79363137  1
  Te  Te135  1  0.58315333  0.25755686  0.08164479  1
  Te  Te136  1  0.53660328  0.21941530  0.39687559  1
  Te  Te137  1  0.59385989  0.24893727  0.74827442  1
  Te  Te138  1  0.57823612  0.57461573  0.10144640  1
  Te  Te139  1  0.55838489  0.55247927  0.37053954  1
  Te  Te140  1  0.57078893  0.56753034  0.74295111  1
  Te  Te141  1  0.55683607  0.93116478  0.08976617  1
  Te  Te142  1  0.57617958  0.91948294  0.42066980  1
  Te  Te143  1  0.57472831  0.91830488  0.77449560  1
  Te  Te144  1  0.92906498  0.25709164  0.08807807  1
  Te  Te145  1  0.92376450  0.26562215  0.41044412  1
  Te  Te146  1  0.93337971  0.23733675  0.76025471  1
  Te  Te147  1  0.94590904  0.57848110  0.06589729  1
  Te  Te148  1  0.89867910  0.57993287  0.41760873  1
  Te  Te149  1  0.88678612  0.58025955  0.74608008  1
  Te  Te150  1  0.96266833  0.92333073  0.12062829  1
  Te  Te151  1  0.91167439  0.92389519  0.40252506  1
  Te  Te152  1  0.91963084  0.90928418  0.74054443  1
  Te  Te153  1  0.25665065  0.05634890  0.22985982  1
  Te  Te154  1  0.24700832  0.09073618  0.59654904  1
  Te  Te155  1  0.26825461  0.07748307  0.94293009  1
  Te  Te156  1  0.24567987  0.39134123  0.21694848  1
  Te  Te157  1  0.23833312  0.41965122  0.58644706  1
  Te  Te158  1  0.25001192  0.39862142  0.96573606  1
  Te  Te159  1  0.24689615  0.75085357  0.24034954  1
  Te  Te160  1  0.23267497  0.74059211  0.58315821  1
  Te  Te161  1  0.23438803  0.75291016  0.89535292  1
  Te  Te162  1  0.55802533  0.07501928  0.23018808  1
  Te  Te163  1  0.59226701  0.07443467  0.57297251  1
  Te  Te164  1  0.55626140  0.08158372  0.93691081  1
  Te  Te165  1  0.55550964  0.41960997  0.28932048  1
  Te  Te166  1  0.58349189  0.41927406  0.57161737  1
  Te  Te167  1  0.60249913  0.40124747  0.91265476  1
  Te  Te168  1  0.56796397  0.74595428  0.24502662  1
  Te  Te169  1  0.58731794  0.73868274  0.57635736  1
  Te  Te170  1  0.57462720  0.75759990  0.93068241  1
  Te  Te171  1  0.90107508  0.07528919  0.22704416  1
  Te  Te172  1  0.92124392  0.08721976  0.56679418  1
  Te  Te173  1  0.90615820  0.09427058  0.93802097  1
  Te  Te174  1  0.93612563  0.42891506  0.24153759  1
  Te  Te175  1  0.92058435  0.40621769  0.59255473  1
  Te  Te176  1  0.91965061  0.39864285  0.91737628  1
  Te  Te177  1  0.92724091  0.75661103  0.24963216  1
  Te  Te178  1  0.92908480  0.77352353  0.56028035  1
  Te  Te179  1  0.91208057  0.77103297  0.93188329  1
