# generated using pymatgen
data_In2Te3
_symmetry_space_group_name_H-M   'P 1'
_cell_length_a   18.98245526
_cell_length_b   18.97658514
_cell_length_c   18.99232696
_cell_angle_alpha   89.97609841
_cell_angle_beta   90.13503716
_cell_angle_gamma   90.00003175
_symmetry_Int_Tables_number   1
_chemical_formula_structural   In2Te3
_chemical_formula_sum   'In72 Te108'
_cell_volume   6841.43779395
_cell_formula_units_Z   36
loop_
 _symmetry_equiv_pos_site_id
 _symmetry_equiv_pos_as_xyz
  1  'x, y, z'
loop_
 _atom_site_type_symbol
 _atom_site_label
 _atom_site_symmetry_multiplicity
 _atom_site_fract_x
 _atom_site_fract_y
 _atom_site_fract_z
 _atom_site_occupancy
  In  In0  1  0.81458194  0.84628010  0.01956377  1
  In  In1  1  0.64059000  0.51313881  0.17390835  1
  In  In2  1  0.18807804  0.33159810  0.52855330  1
  In  In3  1  0.14930630  0.82913699  0.67447789  1
  In  In4  1  0.53152565  0.32755723  0.18865929  1
  In  In5  1  0.48765654  0.52525015  0.67431162  1
  In  In6  1  0.67399719  0.81620064  0.49988692  1
  In  In7  1  0.16848546  0.31433986  0.84910290  1
  In  In8  1  0.16321964  0.49024871  0.32898433  1
  In  In9  1  0.85378540  0.00120545  0.84158207  1
  In  In10  1  -0.02026910  0.16955215  0.17017288  1
  In  In11  1  0.18110309  0.66962004  0.14943355  1
  In  In12  1  0.30698104  -0.00170275  0.66904804  1
  In  In13  1  0.00041226  0.48182703  0.14538386  1
  In  In14  1  0.66733916  0.84240784  0.16942991  1
  In  In15  1  0.34005558  0.84757900  0.51546156  1
  In  In16  1  0.31658279  -0.00571617  -0.01125274  1
  In  In17  1  0.81496195  0.01756478  0.48257238  1
  In  In18  1  0.48265821  0.34471784  0.85068633  1
  In  In19  1  0.33584945  0.50070406  0.17132599  1
  In  In20  1  0.47334421  0.67323309  0.13952559  1
  In  In21  1  0.49162871  0.14619711  0.66848741  1
  In  In22  1  0.83718932  0.16149272  -0.00371086  1
  In  In23  1  0.00095598  0.66389715  -0.00154523  1
  In  In24  1  0.85529518  0.19079175  0.65078777  1
  In  In25  1  0.64998277  0.82649943  0.82404315  1
  In  In26  1  0.33411897  0.79330221  0.85989038  1
  In  In27  1  0.66673911  0.01735931  0.63747429  1
  In  In28  1  0.65171470  0.00964399  0.01910070  1
  In  In29  1  0.83774945  0.65861935  0.50249858  1
  In  In30  1  0.83180169  0.51206306  0.30846946  1
  In  In31  1  0.50078812  -0.02307826  0.17647799  1
  In  In32  1  0.67112820  0.67784423  0.65741437  1
  In  In33  1  0.01494639  -0.01564748  -0.00751932  1
  In  In34  1  0.15625786  -0.00258701  0.47627716  1
  In  In35  1  0.31948505  0.33547084  0.01271458  1
  In  In36  1  0.48392154  0.00656730  0.82746761  1
  In  In37  1  0.01190194  0.33969087  0.67062573  1
  In  In38  1  0.51794212  0.16090842  0.32375716  1
  In  In39  1  -0.00257768  0.68493488  0.31920318  1
  In  In40  1  0.00609229  0.66270429  0.64879487  1
  In  In41  1  0.52314359  -0.00682523  0.48218196  1
  In  In42  1  0.17602282  -0.01670757  0.14847256  1
  In  In43  1  0.84538559  0.30666512  0.45968146  1
  In  In44  1  0.68271010  0.18086351  0.82740828  1
  In  In45  1  0.34092371  0.53735929  0.84140805  1
  In  In46  1  0.16688823  0.81172193  0.32332984  1
  In  In47  1  0.82339124  0.50581959  0.03008960  1
  In  In48  1  0.84010874  0.32294145  0.83577263  1
  In  In49  1  0.66354283  0.50931631  0.49784812  1
  In  In50  1  0.15189524  0.16568160  0.30307221  1
  In  In51  1  0.65588849  0.49187663  0.85742007  1
  In  In52  1  -0.03322097  0.00483073  0.31979567  1
  In  In53  1  0.50642966  0.19772840  0.01819999  1
  In  In54  1  0.31824963  0.15722967  0.14311771  1
  In  In55  1  0.16127810  0.16919931  0.68160899  1
  In  In56  1  0.01451703  0.01928743  0.68516348  1
  In  In57  1  0.33160437  0.34630121  0.32466676  1
  In  In58  1  0.15823422  0.64787126  0.47623359  1
  In  In59  1  0.50146909  0.65243675  0.51862674  1
  In  In60  1  0.01477413  0.84777783  0.84421863  1
  In  In61  1  0.34583862  0.67550466  0.66532301  1
  In  In62  1  0.81586210  0.32090244  0.20656187  1
  In  In63  1  0.50925837  0.83182673  0.34254650  1
  In  In64  1  -0.01935256  0.82313902  0.17251905  1
  In  In65  1  0.49161629  0.67531052  0.87502518  1
  In  In66  1  0.00599292  0.48328174  0.51385221  1
  In  In67  1  0.84555385  0.65226890  0.82776275  1
  In  In68  1  0.67360928  0.33898522  0.66096405  1
  In  In69  1  0.00992969  0.48203031  0.83495380  1
  In  In70  1  0.47555855  0.33508101  0.47632445  1
  In  In71  1  0.35793546  0.16917385  0.48684052  1
  Te  Te72  1  0.07831068  0.08223391  0.08965992  1
  Te  Te73  1  0.06321738  0.09367280  0.40594337  1
  Te  Te74  1  0.12378402  0.06142904  0.77970764  1
  Te  Te75  1  0.08493725  0.44050878  0.03109313  1
  Te  Te76  1  0.09171693  0.39800277  0.42435579  1
  Te  Te77  1  0.11439953  0.41889676  0.74504107  1
  Te  Te78  1  0.08270771  0.76441986  0.07843950  1
  Te  Te79  1  0.06995126  0.76143026  0.42852466  1
  Te  Te80  1  0.07739297  0.73361553  0.76738418  1
  Te  Te81  1  0.42760030  0.07745402  0.07139761  1
  Te  Te82  1  0.42100348  0.06593426  0.39716751  1
  Te  Te83  1  0.38136500  0.09538951  0.76015863  1
  Te  Te84  1  0.42422000  0.39701596  0.10305200  1
  Te  Te85  1  0.42916251  0.43928057  0.38415724  1
  Te  Te86  1  0.40441606  0.42599198  0.75054331  1
  Te  Te87  1  0.36989839  0.75203658  0.05928813  1
  Te  Te88  1  0.41798417  0.74815771  0.43326066  1
  Te  Te89  1  0.43884403  0.75313431  0.75478226  1
  Te  Te90  1  0.76523637  0.07202836  0.09177626  1
  Te  Te91  1  0.75475323  0.12336708  0.39855079  1
  Te  Te92  1  0.76547554  0.09053701  0.73926422  1
  Te  Te93  1  0.73881935  0.41135942  0.11034628  1
  Te  Te94  1  0.76359819  0.43071122  0.41660779  1
  Te  Te95  1  0.75233353  0.42073073  0.75953569  1
  Te  Te96  1  0.75869740  0.74352202  0.10658751  1
  Te  Te97  1  0.73207494  0.71153491  0.41241623  1
  Te  Te98  1  0.76326982  0.75511322  0.75040490  1
  Te  Te99  1  0.07856326  0.26406871  0.22470734  1
  Te  Te100  1  0.07690339  0.23953398  0.57841339  1
  Te  Te101  1  0.09074803  0.29885414  0.97344034  1
  Te  Te102  1  0.07687954  0.58680541  0.23470863  1
  Te  Te103  1  0.10779518  0.56390864  0.59098409  1
  Te  Te104  1  0.08961081  0.57049128  0.92636138  1
  Te  Te105  1  0.08019310  0.92014032  0.25626367  1
  Te  Te106  1  0.07603052  0.92454506  0.58145114  1
  Te  Te107  1  0.12307216  0.90697130  0.92602147  1
  Te  Te108  1  0.40515086  0.23491339  0.24403420  1
  Te  Te109  1  0.41618092  0.25693885  0.59452140  1
  Te  Te110  1  0.39915852  0.23955693  0.92066833  1
  Te  Te111  1  0.41370547  0.59659035  0.25015861  1
  Te  Te112  1  0.38126309  0.55890942  0.56491322  1
  Te  Te113  1  0.44972871  0.55175903  0.94291892  1
  Te  Te114  1  0.40931498  0.89922564  0.25836333  1
  Te  Te115  1  0.42679749  0.94441760  0.59226035  1
  Te  Te116  1  0.42200202  0.90515243  0.91718927  1
  Te  Te117  1  0.73299926  0.24674026  0.30679668  1
  Te  Te118  1  0.74509569  0.24863896  0.56538793  1
  Te  Te119  1  0.74162914  0.26559898  0.93631365  1
  Te  Te120  1  0.74896154  0.59992050  0.22718865  1
  Te  Te121  1  0.75899172  0.57032929  0.59863520  1
  Te  Te122  1  0.74921166  0.59116402  0.92733093  1
  Te  Te123  1  0.72511985  0.96838096  0.22000642  1
  Te  Te124  1  0.75698860  0.91092886  0.58407237  1
  Te  Te125  1  0.73816696  0.93265066  0.91038267  1
  Te  Te126  1  0.22129364  0.23313969  0.06011721  1
  Te  Te127  1  0.25038396  0.24197261  0.40722092  1
  Te  Te128  1  0.25630875  0.25931293  0.74394657  1
  Te  Te129  1  0.24799018  0.56487804  0.06918766  1
  Te  Te130  1  0.25403904  0.59541126  0.37882851  1
  Te  Te131  1  0.24973142  0.61214491  0.75394497  1
  Te  Te132  1  0.27447923  0.89038633  0.08649681  1
  Te  Te133  1  0.25481733  0.90920050  0.40619865  1
  Te  Te134  1  0.26136597  0.88568702  0.75826670  1
  Te  Te135  1  0.60802540  0.22435815  0.11857904  1
  Te  Te136  1  0.58434655  0.26502737  0.40560174  1
  Te  Te137  1  0.57451082  0.25498183  0.74751258  1
  Te  Te138  1  0.56352156  0.58050754  0.06546449  1
  Te  Te139  1  0.59812237  0.61253060  0.41399836  1
  Te  Te140  1  0.58988796  0.59674264  0.76023601  1
  Te  Te141  1  0.56578489  0.89553174  0.06584346  1
  Te  Te142  1  0.62378714  0.91818482  0.39971520  1
  Te  Te143  1  0.58626857  0.93698128  0.74005634  1
  Te  Te144  1  0.89928946  0.26688721  0.08585414  1
  Te  Te145  1  0.93854879  0.21744871  0.39092738  1
  Te  Te146  1  0.94480919  0.24062848  0.76383256  1
  Te  Te147  1  0.91431057  0.60147053  0.10504538  1
  Te  Te148  1  0.93836649  0.57479339  0.41317762  1
  Te  Te149  1  0.92700695  0.56461300  0.73654545  1
  Te  Te150  1  0.91356577  0.93401735  0.09362849  1
  Te  Te151  1  0.88495106  0.91422427  0.40266285  1
  Te  Te152  1  0.92247889  0.91149946  0.74238248  1
  Te  Te153  1  0.25402749  0.06839964  0.24805210  1
  Te  Te154  1  0.24393525  0.08905263  0.56275393  1
  Te  Te155  1  0.20878242  0.05737193  0.91260812  1
  Te  Te156  1  0.22814318  0.39920937  0.22775415  1
  Te  Te157  1  0.28066377  0.43941490  0.54687636  1
  Te  Te158  1  0.25997029  0.42409159  0.90741090  1
  Te  Te159  1  0.26650320  0.72563634  0.25746538  1
  Te  Te160  1  0.23643836  0.75107786  0.57371507  1
  Te  Te161  1  0.27959795  0.69220657  0.95592446  1
  Te  Te162  1  0.60351860  0.06068156  0.24690595  1
  Te  Te163  1  0.58485796  0.11248818  0.55383438  1
  Te  Te164  1  0.58388970  0.09683012  0.90694001  1
  Te  Te165  1  0.58211707  0.42909391  0.28083135  1
  Te  Te166  1  0.57093277  0.42582777  0.58818520  1
  Te  Te167  1  0.58680634  0.39353198  0.94061857  1
  Te  Te168  1  0.57306266  0.74505315  0.23749333  1
  Te  Te169  1  0.56659816  0.76708545  0.59382341  1
  Te  Te170  1  0.59875862  0.75270502  0.93793275  1
  Te  Te171  1  0.87944646  0.12468542  0.28337319  1
  Te  Te172  1  0.92051078  0.07760350  0.57849063  1
  Te  Te173  1  0.94627843  0.09604876  0.91168402  1
  Te  Te174  1  0.93051554  0.40886867  0.25819338  1
  Te  Te175  1  0.90494190  0.39262613  0.57833905  1
  Te  Te176  1  0.90434722  0.42497743  0.92757004  1
  Te  Te177  1  0.89084546  0.78007394  0.28095291  1
  Te  Te178  1  0.91600799  0.75399108  0.57996264  1
  Te  Te179  1  0.90606635  0.76386513  0.92158084  1
