# generated using pymatgen
data_In2Te3
_symmetry_space_group_name_H-M   'P 1'
_cell_length_a   18.93512577
_cell_length_b   18.95919812
_cell_length_c   18.94030117
_cell_angle_alpha   90.13325527
_cell_angle_beta   90.12092098
_cell_angle_gamma   89.79457846
_symmetry_Int_Tables_number   1
_chemical_formula_structural   In2Te3
_chemical_formula_sum   'In72 Te108'
_cell_volume   6799.39253423
_cell_formula_units_Z   36
loop_
 _symmetry_equiv_pos_site_id
 _symmetry_equiv_pos_as_xyz
  1  'x, y, z'
loop_
 _atom_site_type_symbol
 _atom_site_label
 _atom_site_symmetry_multiplicity
 _atom_site_fract_x
 _atom_site_fract_y
 _atom_site_fract_z
 _atom_site_occupancy
  In  In0  1  0.30869373  0.48968469  0.84213881  1
  In  In1  1  0.36248181  0.82453819  0.15854067  1
  In  In2  1  0.33228944  0.65263343  0.64340983  1
  In  In3  1  0.32342481  0.01211064  0.30057081  1
  In  In4  1  -0.00368520  0.66190014  0.63604390  1
  In  In5  1  0.16951904  0.62885330  0.17200127  1
  In  In6  1  0.83109274  0.16368979  0.67866478  1
  In  In7  1  0.16371415  0.67316177  0.79283042  1
  In  In8  1  0.35509538  0.67810601  0.00263487  1
  In  In9  1  0.16705760  0.81501346  0.34552532  1
  In  In10  1  0.35371110  -0.00315955  -0.02484489  1
  In  In11  1  0.34784898  0.18727330  0.48127020  1
  In  In12  1  0.50111233  0.14809839  0.00542545  1
  In  In13  1  0.49598969  -0.03124339  0.80766541  1
  In  In14  1  -0.01689651  0.79037536  0.15997691  1
  In  In15  1  0.16729142  0.16447389  0.67469666  1
  In  In16  1  0.71496287  0.53667153  0.84601134  1
  In  In17  1  0.85926483  0.16856201  -0.00312890  1
  In  In18  1  0.65935441  0.18211298  0.50211892  1
  In  In19  1  0.31011552  0.35448173  0.61419117  1
  In  In20  1  0.34393115  0.46939654  0.17208376  1
  In  In21  1  0.00889354  -0.00269034  -0.01783416  1
  In  In22  1  0.67201910  0.34370740  0.67662363  1
  In  In23  1  -0.02296753  0.50295537  0.80991655  1
  In  In24  1  0.35387834  0.65640272  0.32313178  1
  In  In25  1  0.50144079  0.18377657  0.32297068  1
  In  In26  1  0.84860512  0.00645378  0.51041660  1
  In  In27  1  0.16861795  0.66840508  0.50009915  1
  In  In28  1  0.65765002  0.36889936  0.02780011  1
  In  In29  1  0.67130411  0.52557660  0.19455945  1
  In  In30  1  0.14670325  0.49313999  -0.00439425  1
  In  In31  1  0.31596067  0.14031415  0.82851074  1
  In  In32  1  0.50001796  -0.00039011  0.16775441  1
  In  In33  1  0.67445319  0.81338261  0.80987339  1
  In  In34  1  0.15627363  0.17922440  0.35701558  1
  In  In35  1  0.68118910  0.15949913  0.83293514  1
  In  In36  1  0.66492383  0.79659609  0.53695382  1
  In  In37  1  0.81181025  0.81544644  -0.00253440  1
  In  In38  1  0.69063354  -0.01650012  0.36374951  1
  In  In39  1  -0.00032297  0.49456487  0.20118989  1
  In  In40  1  0.49131245  0.51361780  0.67188393  1
  In  In41  1  0.15695973  0.83591536  -0.00091915  1
  In  In42  1  0.81225697  0.34253737  0.83736968  1
  In  In43  1  0.67617584  -0.02440039  -0.00206400  1
  In  In44  1  0.49649283  0.33020124  0.85805166  1
  In  In45  1  0.33556402  0.84270836  0.82545103  1
  In  In46  1  -0.02957040  0.34713536  0.63023779  1
  In  In47  1  0.33896297  0.34309547  0.33307983  1
  In  In48  1  -0.01827366  0.19094710  0.48382484  1
  In  In49  1  0.52005892  0.67384301  0.83830969  1
  In  In50  1  0.84497076  0.02050593  0.14939793  1
  In  In51  1  0.00866336  0.32490239  -0.00741573  1
  In  In52  1  0.32787731  0.82746615  0.48367386  1
  In  In53  1  0.01465571  0.15535383  0.82362347  1
  In  In54  1  0.14538236  -0.02361238  0.54090951  1
  In  In55  1  -0.00147970  0.01034761  0.30802863  1
  In  In56  1  0.14968482  0.33275204  0.83507538  1
  In  In57  1  0.52881054  0.51471244  0.01366496  1
  In  In58  1  0.13115206  0.48645003  0.36352886  1
  In  In59  1  0.82493280  0.63985643  0.48646045  1
  In  In60  1  0.17545642  0.00260587  0.18490577  1
  In  In61  1  0.65579071  0.80196532  0.20925825  1
  In  In62  1  0.84348478  0.82008241  0.33187621  1
  In  In63  1  0.66008514  0.19102939  0.18681298  1
  In  In64  1  0.49181042  0.50419648  0.33137370  1
  In  In65  1  0.67840010  0.37206710  0.34682218  1
  In  In66  1  0.00140555  0.18476818  0.17673014  1
  In  In67  1  0.65462218  0.51630758  0.50253831  1
  In  In68  1  0.52279528  -0.00212615  0.50742434  1
  In  In69  1  0.84629688  0.83467252  0.66500804  1
  In  In70  1  0.32667428  -0.00533166  0.66336058  1
  In  In71  1  -0.05580246  0.65202059  -0.00874679  1
  Te  Te72  1  0.07370235  0.07651145  0.09626016  1
  Te  Te73  1  0.07561740  0.07071157  0.42506859  1
  Te  Te74  1  0.09826842  0.05914760  0.74968003  1
  Te  Te75  1  0.08060404  0.40728927  0.09799944  1
  Te  Te76  1  0.03870593  0.44096415  0.47355540  1
  Te  Te77  1  0.06886742  0.40955273  0.73393862  1
  Te  Te78  1  0.09151748  0.72090211  0.07656132  1
  Te  Te79  1  0.06651501  0.74447815  0.42303221  1
  Te  Te80  1  0.07100065  0.76177434  0.72018642  1
  Te  Te81  1  0.39646133  0.08249042  0.09360743  1
  Te  Te82  1  0.42175147  0.07499677  0.40748210  1
  Te  Te83  1  0.42460754  0.08356730  0.73840358  1
  Te  Te84  1  0.43583460  0.40884833  0.06291249  1
  Te  Te85  1  0.40565574  0.43481111  0.42777182  1
  Te  Te86  1  0.41338878  0.41332453  0.76045584  1
  Te  Te87  1  0.45801411  0.75125038  0.07560855  1
  Te  Te88  1  0.42538202  0.73860126  0.42104651  1
  Te  Te89  1  0.40870508  0.73278440  0.75172025  1
  Te  Te90  1  0.73445413  0.09423059  0.07533932  1
  Te  Te91  1  0.76362730  0.10096767  0.42415625  1
  Te  Te92  1  0.73744764  0.06698427  0.73489592  1
  Te  Te93  1  0.75625894  0.43253557  0.11322919  1
  Te  Te94  1  0.75861030  0.41374215  0.46676257  1
  Te  Te95  1  0.77116986  0.44326485  0.73290852  1
  Te  Te96  1  0.74121088  0.74010094  0.10355326  1
  Te  Te97  1  0.74102700  0.74649316  0.41387275  1
  Te  Te98  1  0.78283050  0.73038922  0.75021331  1
  Te  Te99  1  0.06660564  0.27109822  0.27966749  1
  Te  Te100  1  0.08009463  0.25136354  0.58341077  1
  Te  Te101  1  0.10155146  0.22303190  0.92952506  1
  Te  Te102  1  0.07187410  0.60318892  0.28184983  1
  Te  Te103  1  0.09609077  0.55989492  0.57949693  1
  Te  Te104  1  0.08493178  0.57960610  0.88923739  1
  Te  Te105  1  0.07570575  0.89474600  0.23524914  1
  Te  Te106  1  0.04659766  0.88795461  0.60499790  1
  Te  Te107  1  0.06961738  0.89373203  0.89602394  1
  Te  Te108  1  0.40467613  0.25071578  0.23710606  1
  Te  Te109  1  0.41557748  0.25684789  0.59057171  1
  Te  Te110  1  0.40368710  0.22831454  0.92081451  1
  Te  Te111  1  0.43324484  0.58874147  0.21464625  1
  Te  Te112  1  0.41997563  0.57280439  0.55656732  1
  Te  Te113  1  0.41995080  0.57036694  0.90936631  1
  Te  Te114  1  0.42997728  0.90666815  0.26665951  1
  Te  Te115  1  0.41682191  0.91113888  0.57581295  1
  Te  Te116  1  0.44332743  0.88733662  0.92444124  1
  Te  Te117  1  0.75147819  0.27116971  0.26576619  1
  Te  Te118  1  0.76236302  0.26040918  0.58522232  1
  Te  Te119  1  0.73813382  0.25563389  0.93896585  1
  Te  Te120  1  0.77249769  0.59373953  0.28739120  1
  Te  Te121  1  0.71774926  0.62084133  0.58683328  1
  Te  Te122  1  0.80985898  0.59054277  0.94165736  1
  Te  Te123  1  0.76795039  0.92555415  0.24379209  1
  Te  Te124  1  0.74969054  0.91904599  0.58087998  1
  Te  Te125  1  0.76167662  0.91493018  0.89190580  1
  Te  Te126  1  0.29835050  0.34594823  0.09797658  1
  Te  Te127  1  0.23801380  0.28001807  0.43398305  1
  Te  Te128  1  0.25616177  0.26450656  0.74713422  1
  Te  Te129  1  0.26322522  0.57169023  0.06688153  1
  Te  Te130  1  0.24686418  0.58424307  0.40019538  1
  Te  Te131  1  0.24159942  0.56025399  0.72705840  1
  Te  Te132  1  0.25813507  0.91208949  0.08576642  1
  Te  Te133  1  0.24025281  0.93379637  0.40523093  1
  Te  Te134  1  0.23628694  0.92132863  0.75199659  1
  Te  Te135  1  0.56791972  0.25677456  0.08651369  1
  Te  Te136  1  0.57518808  0.27394854  0.41584213  1
  Te  Te137  1  0.58442325  0.25127220  0.75986927  1
  Te  Te138  1  0.63203167  0.60188692  0.07091974  1
  Te  Te139  1  0.58711632  0.60095707  0.39658857  1
  Te  Te140  1  0.60161225  0.58213804  0.74970558  1
  Te  Te141  1  0.59704807  0.90292879  0.10300945  1
  Te  Te142  1  0.59222285  0.89103983  0.42662915  1
  Te  Te143  1  0.58069311  0.88606584  0.71503078  1
  Te  Te144  1  0.90500750  0.27163380  0.09461404  1
  Te  Te145  1  0.93888754  0.28923486  0.38405858  1
  Te  Te146  1  0.92033629  0.26171668  0.76457634  1
  Te  Te147  1  0.91139494  0.55788025  0.09952252  1
  Te  Te148  1  0.88540301  0.55450120  0.37737890  1
  Te  Te149  1  0.90311016  0.61126555  0.74114119  1
  Te  Te150  1  0.92001639  0.90931563  0.07976677  1
  Te  Te151  1  0.92624285  0.92215639  0.40897844  1
  Te  Te152  1  0.94056785  0.94443906  0.69791739  1
  Te  Te153  1  0.24137024  0.12802174  0.24215010  1
  Te  Te154  1  0.25455451  0.09303576  0.56721660  1
  Te  Te155  1  0.23458762  0.05726658  0.91668540  1
  Te  Te156  1  0.22803070  0.42360571  0.26409035  1
  Te  Te157  1  0.20748607  0.44823191  0.57507543  1
  Te  Te158  1  0.24976066  0.38807587  0.93667234  1
  Te  Te159  1  0.25060914  0.74876939  0.23550736  1
  Te  Te160  1  0.24319411  0.76472636  0.59200610  1
  Te  Te161  1  0.24871714  0.73817143  0.90987085  1
  Te  Te162  1  0.59713125  0.06943494  0.26543316  1
  Te  Te163  1  0.59063311  0.09227395  0.59494233  1
  Te  Te164  1  0.57790660  0.06136332  0.90701835  1
  Te  Te165  1  0.57576860  0.41618417  0.24314584  1
  Te  Te166  1  0.57360077  0.41550268  0.58776974  1
  Te  Te167  1  0.60560455  0.43227559  0.89615649  1
  Te  Te168  1  0.58062972  0.69297235  0.27006875  1
  Te  Te169  1  0.56096079  0.75833810  0.63079888  1
  Te  Te170  1  0.61686088  0.74137700  0.92425167  1
  Te  Te171  1  0.89585576  0.11101733  0.25928339  1
  Te  Te172  1  0.93874720  0.09377092  0.59732398  1
  Te  Te173  1  0.90577984  0.07046923  0.89485917  1
  Te  Te174  1  0.91383726  0.41742026  0.29647869  1
  Te  Te175  1  0.90296747  0.45015943  0.54871740  1
  Te  Te176  1  0.91388316  0.41846295  0.92089928  1
  Te  Te177  1  0.88466551  0.71049413  0.23801901  1
  Te  Te178  1  0.90708935  0.75050210  0.55109521  1
  Te  Te179  1  0.92898542  0.77615738  0.91533093  1
