# generated using pymatgen
data_In2Te3
_symmetry_space_group_name_H-M   'P 1'
_cell_length_a   18.76191591
_cell_length_b   18.76220583
_cell_length_c   18.76092772
_cell_angle_alpha   90.05035433
_cell_angle_beta   89.97492401
_cell_angle_gamma   90.01177146
_symmetry_Int_Tables_number   1
_chemical_formula_structural   In2Te3
_chemical_formula_sum   'In72 Te108'
_cell_volume   6604.12329982
_cell_formula_units_Z   36
loop_
 _symmetry_equiv_pos_site_id
 _symmetry_equiv_pos_as_xyz
  1  'x, y, z'
loop_
 _atom_site_type_symbol
 _atom_site_label
 _atom_site_symmetry_multiplicity
 _atom_site_fract_x
 _atom_site_fract_y
 _atom_site_fract_z
 _atom_site_occupancy
  In  In0  1  -0.01021694  0.82780415  0.16622831  1
  In  In1  1  0.02045185  0.66054755  0.33272925  1
  In  In2  1  0.32271099  -0.01547230  -0.00804100  1
  In  In3  1  0.01882961  0.49123663  0.49732953  1
  In  In4  1  0.84079895  0.00769676  0.82741822  1
  In  In5  1  0.16667090  0.01222321  0.51558436  1
  In  In6  1  -0.00587632  0.67097405  0.67654475  1
  In  In7  1  0.84206577  0.48544264  0.00153212  1
  In  In8  1  0.32835484  0.67221783  0.01483097  1
  In  In9  1  0.33399211  0.32600144  0.64305306  1
  In  In10  1  0.83167865  0.48878506  0.32764120  1
  In  In11  1  0.83831021  0.17714469  0.34016122  1
  In  In12  1  0.15921481  0.84587496  -0.02393098  1
  In  In13  1  0.33631095  0.81560318  0.14696841  1
  In  In14  1  0.49173929  0.00049873  0.16933096  1
  In  In15  1  0.82725140  0.33585155  0.16392710  1
  In  In16  1  0.16996149  0.64727196  0.17285147  1
  In  In17  1  0.79883483  0.82959050  0.34419708  1
  In  In18  1  0.16096581  0.64656657  0.50451829  1
  In  In19  1  0.66944370  -0.00025367  0.00743834  1
  In  In20  1  0.65018030  0.16442013  0.18561326  1
  In  In21  1  0.33023589  0.82588040  0.82156564  1
  In  In22  1  0.32353475  -0.01064225  0.65198702  1
  In  In23  1  0.15246380  0.83145714  0.67286321  1
  In  In24  1  0.50986409  0.65060303  0.49746076  1
  In  In25  1  -0.00306066  0.17135893  0.82988058  1
  In  In26  1  0.49424392  0.17602188  0.64264723  1
  In  In27  1  0.85338339  -0.03457229  0.15402453  1
  In  In28  1  0.49286192  0.17410820  0.35878572  1
  In  In29  1  0.28606426  0.52199949  0.81059398  1
  In  In30  1  0.16496936  0.17491707  0.01230538  1
  In  In31  1  0.34017708  0.83498882  0.49789917  1
  In  In32  1  0.15603808  0.16609900  0.65295714  1
  In  In33  1  0.65896708  0.81240616  0.17309850  1
  In  In34  1  0.17316800  0.49385872  0.34406281  1
  In  In35  1  0.66705385  0.65360164  0.01913508  1
  In  In36  1  0.33677113  0.49230331  0.50092515  1
  In  In37  1  -0.00731762  0.67066928  -0.02193592  1
  In  In38  1  0.82680087  -0.00690922  0.50812990  1
  In  In39  1  0.02731886  0.20231804  0.18664654  1
  In  In40  1  0.52195145  0.84954701  0.35861255  1
  In  In41  1  0.65867574  0.49748547  0.47170287  1
  In  In42  1  0.82049595  0.63976181  0.16418000  1
  In  In43  1  0.81546154  0.68161617  0.50330177  1
  In  In44  1  0.83788473  0.17520627  -0.00504907  1
  In  In45  1  0.32815601  0.16431859  0.85229624  1
  In  In46  1  0.00461982  0.19405390  0.50218704  1
  In  In47  1  0.67414994  0.83082316  0.81961747  1
  In  In48  1  0.33364394  0.03530945  0.32537478  1
  In  In49  1  0.82976841  0.85407234  0.67707292  1
  In  In50  1  0.53204993  0.35615143  0.20145971  1
  In  In51  1  0.34242635  0.33092704  0.01995448  1
  In  In52  1  0.51849857  0.35026124  0.81453301  1
  In  In53  1  0.66074297  0.68522458  0.65886120  1
  In  In54  1  0.68177143  0.50672998  0.84931431  1
  In  In55  1  0.29591226  0.18922378  0.17613100  1
  In  In56  1  0.50849781  0.49920856  0.64739788  1
  In  In57  1  0.86955755  0.50926585  0.66066547  1
  In  In58  1  -0.01684130  0.01034725  0.34587747  1
  In  In59  1  0.16517803  0.82211778  0.32220470  1
  In  In60  1  0.65980952  0.16710220  0.49454092  1
  In  In61  1  0.14515237  0.36356365  0.81522569  1
  In  In62  1  0.48488184  0.68538767  0.83332463  1
  In  In63  1  0.49881411  -0.01806559  0.83647583  1
  In  In64  1  0.32278331  0.33190630  0.33871291  1
  In  In65  1  0.49747069  0.50436712  0.01477578  1
  In  In66  1  0.81989809  0.17174017  0.69458401  1
  In  In67  1  0.13921355  0.49091418  0.01160466  1
  In  In68  1  0.52099432  0.15254351  0.01487952  1
  In  In69  1  0.67181876  0.33222213  0.65137046  1
  In  In70  1  0.84978934  0.33170079  0.84666139  1
  In  In71  1  -0.02146602  -0.01327338  0.68555892  1
  Te  Te72  1  0.07899021  0.09237219  0.10057238  1
  Te  Te73  1  0.08787365  0.09690729  0.41525077  1
  Te  Te74  1  0.08607881  0.07428165  0.75224061  1
  Te  Te75  1  0.08504886  0.38835061  0.10197061  1
  Te  Te76  1  0.07608859  0.39198882  0.39834399  1
  Te  Te77  1  0.06087306  0.43920365  0.72222864  1
  Te  Te78  1  0.09378581  0.74503001  0.08474437  1
  Te  Te79  1  0.08140555  0.75771590  0.43358825  1
  Te  Te80  1  0.09273513  0.73535312  0.76961996  1
  Te  Te81  1  0.39603833  0.08983427  0.07849045  1
  Te  Te82  1  0.42602880  0.06579720  0.43541970  1
  Te  Te83  1  0.41044969  0.08144343  0.75324813  1
  Te  Te84  1  0.41967530  0.42164413  0.11811743  1
  Te  Te85  1  0.42402670  0.42634490  0.39719449  1
  Te  Te86  1  0.40578526  0.42485431  0.74391553  1
  Te  Te87  1  0.44956138  0.74090717  0.07518538  1
  Te  Te88  1  0.42184326  0.74257703  0.40908836  1
  Te  Te89  1  0.41854146  0.75783609  0.72425094  1
  Te  Te90  1  0.75406515  0.09000756  0.09773413  1
  Te  Te91  1  0.74839274  0.07306819  0.40510296  1
  Te  Te92  1  0.73916373  0.05419925  0.73016168  1
  Te  Te93  1  0.73763851  0.42425017  0.08564642  1
  Te  Te94  1  0.76665879  0.40541066  0.43143285  1
  Te  Te95  1  0.75555615  0.41874689  0.74756167  1
  Te  Te96  1  0.76664990  0.75641130  0.08079814  1
  Te  Te97  1  0.71252201  0.72633474  0.40629038  1
  Te  Te98  1  0.77055407  0.73232649  0.75205859  1
  Te  Te99  1  0.11764394  0.26830316  0.29281964  1
  Te  Te100  1  0.09679495  0.28135106  0.58242520  1
  Te  Te101  1  0.08395383  0.26320391  0.91484086  1
  Te  Te102  1  0.07009630  0.55341293  0.23905633  1
  Te  Te103  1  0.10476309  0.55580255  0.62532023  1
  Te  Te104  1  0.08940438  0.58240023  0.90753613  1
  Te  Te105  1  0.07253818  0.92285957  0.25326741  1
  Te  Te106  1  0.06688971  0.91643193  0.57868699  1
  Te  Te107  1  0.04979248  0.92400047  0.91751263  1
  Te  Te108  1  0.42527040  0.24218321  0.23566020  1
  Te  Te109  1  0.41941250  0.25718110  0.54430032  1
  Te  Te110  1  0.43551311  0.25401283  0.91531801  1
  Te  Te111  1  0.45274676  0.63908369  0.18724044  1
  Te  Te112  1  0.40305166  0.59426938  0.59465402  1
  Te  Te113  1  0.40904273  0.57584485  0.91078742  1
  Te  Te114  1  0.40671998  0.90650658  0.25528161  1
  Te  Te115  1  0.43080463  0.92074075  0.57815480  1
  Te  Te116  1  0.42168101  0.88791658  0.92995233  1
  Te  Te117  1  0.73597658  0.26252630  0.26460610  1
  Te  Te118  1  0.76913705  0.24608015  0.57153355  1
  Te  Te119  1  0.74569236  0.24323211  0.90312743  1
  Te  Te120  1  0.72883379  0.58283302  0.26785388  1
  Te  Te121  1  0.73719255  0.57043344  0.58890102  1
  Te  Te122  1  0.77444449  0.60093694  0.92252423  1
  Te  Te123  1  0.73675122  0.92663174  0.24385782  1
  Te  Te124  1  0.73108363  0.89146607  0.56788663  1
  Te  Te125  1  0.75790607  0.91475048  0.91855981  1
  Te  Te126  1  0.21096901  0.30092411  0.10376173  1
  Te  Te127  1  0.23059273  0.22804991  0.38657290  1
  Te  Te128  1  0.24680593  0.25121137  0.75606730  1
  Te  Te129  1  0.25762833  0.55794700  0.08684030  1
  Te  Te130  1  0.26723180  0.59605558  0.40845843  1
  Te  Te131  1  0.22194601  0.61338353  0.71610155  1
  Te  Te132  1  0.23138158  0.91516789  0.09307675  1
  Te  Te133  1  0.24301849  0.92219898  0.41201812  1
  Te  Te134  1  0.23490549  0.92849883  0.75998109  1
  Te  Te135  1  0.59265766  0.26505729  0.08610323  1
  Te  Te136  1  0.59727737  0.26788672  0.40427016  1
  Te  Te137  1  0.59396606  0.23857709  0.74451948  1
  Te  Te138  1  0.58384309  0.57560606  0.11856010  1
  Te  Te139  1  0.54108694  0.54822324  0.38661624  1
  Te  Te140  1  0.58221066  0.58098206  0.75692182  1
  Te  Te141  1  0.57489282  0.90699463  0.08177517  1
  Te  Te142  1  0.62133005  0.90122362  0.45502619  1
  Te  Te143  1  0.57904960  0.90782033  0.73752148  1
  Te  Te144  1  0.93164322  0.26029567  0.07829728  1
  Te  Te145  1  0.93119978  0.27477757  0.40055320  1
  Te  Te146  1  0.93166604  0.26702610  0.73208669  1
  Te  Te147  1  0.93443048  0.57801712  0.08565402  1
  Te  Te148  1  0.92001458  0.59261530  0.42900069  1
  Te  Te149  1  0.92486961  0.58236168  0.77560367  1
  Te  Te150  1  0.93633191  0.90171537  0.04453020  1
  Te  Te151  1  0.91231325  0.89843538  0.42138086  1
  Te  Te152  1  0.94190047  0.87529683  0.78793418  1
  Te  Te153  1  0.22521057  0.07221880  0.23252612  1
  Te  Te154  1  0.27156167  0.10905693  0.57054514  1
  Te  Te155  1  0.22384964  0.07150271  0.91417321  1
  Te  Te156  1  0.27125832  0.43769094  0.24792275  1
  Te  Te157  1  0.23529777  0.40146560  0.56174559  1
  Te  Te158  1  0.25875389  0.41022150  0.91679663  1
  Te  Te159  1  0.26725430  0.72994619  0.25542248  1
  Te  Te160  1  0.24657263  0.74892591  0.58402635  1
  Te  Te161  1  0.24056075  0.73627698  0.90736858  1
  Te  Te162  1  0.57746509  0.06633935  0.27516015  1
  Te  Te163  1  0.58204075  0.07495737  0.58063441  1
  Te  Te164  1  0.59622179  0.08330166  0.90237347  1
  Te  Te165  1  0.61492588  0.45769919  0.27148681  1
  Te  Te166  1  0.57085330  0.39642497  0.55699559  1
  Te  Te167  1  0.59320923  0.41415018  0.93213526  1
  Te  Te168  1  0.56331912  0.73872765  0.26309435  1
  Te  Te169  1  0.57186318  0.76519116  0.57180184  1
  Te  Te170  1  0.59318778  0.74733528  0.92051180  1
  Te  Te171  1  0.91248860  0.09034403  0.23449390  1
  Te  Te172  1  0.92069015  0.08865096  0.58467007  1
  Te  Te173  1  0.93373521  0.07557482  0.93065153  1
  Te  Te174  1  0.92642644  0.41990983  0.23756884  1
  Te  Te175  1  0.91882997  0.40683718  0.56810825  1
  Te  Te176  1  0.94409837  0.42083486  0.91586797  1
  Te  Te177  1  0.90684877  0.73974394  0.26084919  1
  Te  Te178  1  0.91545268  0.76342532  0.58446887  1
  Te  Te179  1  0.92338723  0.78705204  0.91841073  1
