# generated using pymatgen
data_In2Te3
_symmetry_space_group_name_H-M   'P 1'
_cell_length_a   18.94502460
_cell_length_b   18.94181257
_cell_length_c   18.95572718
_cell_angle_alpha   89.95690117
_cell_angle_beta   90.12895893
_cell_angle_gamma   90.11454907
_symmetry_Int_Tables_number   1
_chemical_formula_structural   In2Te3
_chemical_formula_sum   'In72 Te108'
_cell_volume   6802.28882941
_cell_formula_units_Z   36
loop_
 _symmetry_equiv_pos_site_id
 _symmetry_equiv_pos_as_xyz
  1  'x, y, z'
loop_
 _atom_site_type_symbol
 _atom_site_label
 _atom_site_symmetry_multiplicity
 _atom_site_fract_x
 _atom_site_fract_y
 _atom_site_fract_z
 _atom_site_occupancy
  In  In0  1  0.04945012  0.30123046  0.65842269  1
  In  In1  1  0.16905315  0.84412940  0.65523473  1
  In  In2  1  0.83755186  0.82746225  0.31992620  1
  In  In3  1  0.17088815  0.83293781  0.01669666  1
  In  In4  1  0.67271689  0.17305672  0.16710268  1
  In  In5  1  0.15568958  0.02371441  0.83186565  1
  In  In6  1  0.18984008  0.50029521  0.35745750  1
  In  In7  1  0.52747197  0.83377884  0.66375456  1
  In  In8  1  0.02234948  0.31517956  -0.00917239  1
  In  In9  1  0.83245644  0.00232196  0.51732743  1
  In  In10  1  0.49009793  -0.01019103  0.48281764  1
  In  In11  1  0.19829602  0.30180862  0.10440296  1
  In  In12  1  0.45314873  0.33277639  0.81488650  1
  In  In13  1  0.81382301  0.38245170  0.15866188  1
  In  In14  1  0.84885368  0.16873919  -0.00364318  1
  In  In15  1  -0.00827486  0.49578891  0.49268143  1
  In  In16  1  0.31873684  0.00515997  0.34273436  1
  In  In17  1  0.01535944  0.65514868  0.00959833  1
  In  In18  1  0.83486470  0.49012643  0.66941946  1
  In  In19  1  0.16681865  0.68253068  0.49131796  1
  In  In20  1  0.84740599  0.18360237  0.67892769  1
  In  In21  1  0.15108478  -0.00330048  0.16770922  1
  In  In22  1  -0.01433661  0.01031949  0.00572329  1
  In  In23  1  0.66526702  0.00680314  0.68884129  1
  In  In24  1  0.48930224  -0.00567394  0.18285411  1
  In  In25  1  0.16244041  0.16117306  0.33025782  1
  In  In26  1  0.48743677  0.01455595  0.81392781  1
  In  In27  1  0.49999455  0.65715996  0.16282915  1
  In  In28  1  0.65020446  0.80068330  0.50166031  1
  In  In29  1  0.23116573  0.49507601  0.68545575  1
  In  In30  1  0.67651950  0.00343678  -0.02281599  1
  In  In31  1  0.51105067  0.48778856  -0.00561925  1
  In  In32  1  0.01147130  0.83797997  0.80124214  1
  In  In33  1  0.33708701  0.82663103  0.85278453  1
  In  In34  1  0.48873103  0.31318818  0.15281282  1
  In  In35  1  0.64288877  0.17064182  0.47874224  1
  In  In36  1  -0.00163083  0.66821005  0.67050136  1
  In  In37  1  0.00228307  0.15321535  0.17377638  1
  In  In38  1  0.65954245  0.51107129  0.84409780  1
  In  In39  1  0.63976058  0.34357009  0.65043381  1
  In  In40  1  0.68697308  0.39103886  0.28970822  1
  In  In41  1  0.00391428  0.51155371  0.16303413  1
  In  In42  1  0.84521456  0.82354404  0.65850408  1
  In  In43  1  0.83629776  0.67416197  0.51133009  1
  In  In44  1  0.00231426  0.69288986  0.33501126  1
  In  In45  1  0.35445479  0.65269621  0.00298497  1
  In  In46  1  0.51539160  0.81277486  0.00413319  1
  In  In47  1  0.49527492  0.16750381  0.34773957  1
  In  In48  1  0.67435035  0.18773668  0.84187946  1
  In  In49  1  0.64183039  0.67318737  0.66069575  1
  In  In50  1  0.19610128  0.68582352  0.19583816  1
  In  In51  1  0.48165257  0.50887284  0.34007544  1
  In  In52  1  -0.00473450  -0.00780670  0.31908091  1
  In  In53  1  0.33508953  0.02199373  0.01536493  1
  In  In54  1  0.82458377  0.68051604  0.86280104  1
  In  In55  1  0.84354881  0.30755850  0.47923080  1
  In  In56  1  0.46086037  0.16988568  0.65178414  1
  In  In57  1  0.32404181  0.49171434  0.15448860  1
  In  In58  1  0.32534898  0.83814172  0.48776055  1
  In  In59  1  0.48485203  0.65963209  0.84622779  1
  In  In60  1  0.64885598  0.48272449  0.47867903  1
  In  In61  1  0.01535404  0.33126161  0.33907949  1
  In  In62  1  0.47492124  0.31809846  0.51875080  1
  In  In63  1  0.67559133  -0.02321370  0.36218759  1
  In  In64  1  0.33382140  0.33255952  0.34767803  1
  In  In65  1  0.02360928  0.00143790  0.65814277  1
  In  In66  1  0.82391559  0.85877078  0.03362431  1
  In  In67  1  0.66602615  0.81249012  0.16781081  1
  In  In68  1  0.84764094  0.34206754  0.85700164  1
  In  In69  1  0.18811634  0.47592268  -0.04036996  1
  In  In70  1  0.31063227  0.02401450  0.65553866  1
  In  In71  1  0.00601704  0.47072054  0.84413887  1
  Te  Te72  1  0.09453992  0.09681530  0.06810941  1
  Te  Te73  1  0.07497563  0.07566495  0.41081578  1
  Te  Te74  1  0.09426287  0.11305884  0.72979373  1
  Te  Te75  1  0.09761916  0.42429093  0.07708599  1
  Te  Te76  1  0.10226337  0.40730688  0.43926975  1
  Te  Te77  1  0.09615383  0.42779465  0.73193326  1
  Te  Te78  1  0.08716312  0.74843254  0.10970242  1
  Te  Te79  1  0.11381187  0.77835912  0.38832075  1
  Te  Te80  1  0.10972879  0.73649753  0.74792664  1
  Te  Te81  1  0.43913558  0.09679967  0.09055434  1
  Te  Te82  1  0.39844291  0.10099578  0.44141142  1
  Te  Te83  1  0.37824883  0.10791908  0.76423350  1
  Te  Te84  1  0.40368402  0.40460768  0.06317394  1
  Te  Te85  1  0.40084583  0.43120483  0.44107015  1
  Te  Te86  1  0.38270131  0.40978991  0.70735827  1
  Te  Te87  1  0.40621768  0.76108929  0.09486134  1
  Te  Te88  1  0.36615638  0.73176235  0.39413364  1
  Te  Te89  1  0.42292324  0.75920279  0.74968284  1
  Te  Te90  1  0.75782989  0.08088607  0.08015811  1
  Te  Te91  1  0.75838494  0.09197699  0.41797788  1
  Te  Te92  1  0.76431501  0.09093249  0.76756958  1
  Te  Te93  1  0.71408727  0.45116161  0.07443310  1
  Te  Te94  1  0.77318609  0.42508513  0.41695595  1
  Te  Te95  1  0.74472595  0.39674715  0.74898548  1
  Te  Te96  1  0.74480035  0.74073771  0.06754142  1
  Te  Te97  1  0.74682391  0.73671239  0.40557090  1
  Te  Te98  1  0.75034971  0.74255707  0.74492033  1
  Te  Te99  1  0.09684065  0.26225268  0.22730177  1
  Te  Te100  1  0.11472358  0.22717275  0.55096328  1
  Te  Te101  1  0.12322100  0.26474414  0.89531340  1
  Te  Te102  1  0.09791991  0.58370121  0.26777166  1
  Te  Te103  1  0.08265276  0.58431275  0.57637845  1
  Te  Te104  1  0.09239019  0.58090389  0.90133774  1
  Te  Te105  1  0.09310365  0.89738490  0.26047849  1
  Te  Te106  1  0.09103346  0.91939502  0.55705385  1
  Te  Te107  1  0.08841908  0.91265450  0.91569012  1
  Te  Te108  1  0.40202664  0.23643774  0.25102092  1
  Te  Te109  1  0.35611731  0.25770899  0.59123784  1
  Te  Te110  1  0.39171030  0.25287140  0.92168763  1
  Te  Te111  1  0.39136400  0.58909994  0.24695885  1
  Te  Te112  1  0.36752515  0.56404809  0.66709831  1
  Te  Te113  1  0.39688580  0.54392172  0.90182596  1
  Te  Te114  1  0.41082255  0.91302792  0.27443482  1
  Te  Te115  1  0.42137644  0.92550864  0.60252584  1
  Te  Te116  1  0.42668211  0.92348773  0.92805644  1
  Te  Te117  1  0.76080677  0.26414952  0.24997449  1
  Te  Te118  1  0.73704202  0.24190663  0.58327774  1
  Te  Te119  1  0.74749547  0.27078946  0.94537263  1
  Te  Te120  1  0.73807561  0.51103551  0.20994021  1
  Te  Te121  1  0.74238864  0.57787254  0.58642054  1
  Te  Te122  1  0.77054366  0.55932999  0.92660768  1
  Te  Te123  1  0.74656356  0.92065810  0.24253168  1
  Te  Te124  1  0.72848095  0.90442201  0.58388955  1
  Te  Te125  1  0.77243564  0.91686694  0.90979060  1
  Te  Te126  1  0.30693355  0.21988688  0.04898729  1
  Te  Te127  1  0.24371614  0.24328339  0.42435964  1
  Te  Te128  1  0.19978587  0.29304930  0.76360840  1
  Te  Te129  1  0.23468749  0.58737357  0.07795932  1
  Te  Te130  1  0.27381343  0.59369825  0.43658005  1
  Te  Te131  1  0.28219947  0.58622289  0.79171765  1
  Te  Te132  1  0.26364528  0.91684323  0.10058770  1
  Te  Te133  1  0.23878075  0.95240170  0.45581263  1
  Te  Te134  1  0.25442551  0.92067184  0.76328668  1
  Te  Te135  1  0.59268581  0.24968844  0.07234781  1
  Te  Te136  1  0.57626743  0.28553296  0.40659695  1
  Te  Te137  1  0.56853657  0.23853087  0.73662532  1
  Te  Te138  1  0.58765216  0.59474425  0.06082296  1
  Te  Te139  1  0.59099917  0.58918300  0.39813847  1
  Te  Te140  1  0.56549910  0.57305746  0.74470105  1
  Te  Te141  1  0.58807448  0.92381698  0.08113406  1
  Te  Te142  1  0.56358876  0.88343428  0.40574115  1
  Te  Te143  1  0.59289925  0.90920288  0.77927210  1
  Te  Te144  1  0.92271808  0.26088796  0.09442702  1
  Te  Te145  1  0.93864624  0.22519588  0.40692062  1
  Te  Te146  1  0.93987747  0.26554117  0.76604362  1
  Te  Te147  1  0.90889194  0.60230179  0.09678484  1
  Te  Te148  1  0.91153074  0.59180933  0.40842648  1
  Te  Te149  1  0.91460649  0.58016546  0.76201498  1
  Te  Te150  1  0.93752680  0.91569783  0.10561153  1
  Te  Te151  1  0.90824024  0.91160484  0.42412699  1
  Te  Te152  1  0.91116222  0.93271189  0.73951568  1
  Te  Te153  1  0.25379729  0.08808863  0.23365680  1
  Te  Te154  1  0.20280946  0.11230593  0.60882196  1
  Te  Te155  1  0.24207220  0.09699462  0.92730050  1
  Te  Te156  1  0.24177412  0.40468866  0.24654232  1
  Te  Te157  1  0.27490573  0.39278129  0.58710078  1
  Te  Te158  1  0.25527125  0.35823856  0.88971715  1
  Te  Te159  1  0.25617886  0.77657595  0.29632027  1
  Te  Te160  1  0.26572348  0.74619470  0.59323819  1
  Te  Te161  1  0.24502133  0.73535536  0.92833744  1
  Te  Te162  1  0.59272361  0.07957954  0.27255260  1
  Te  Te163  1  0.57956562  0.07643707  0.58297342  1
  Te  Te164  1  0.57479738  0.09582133  0.91024717  1
  Te  Te165  1  0.55040092  0.42787393  0.23185965  1
  Te  Te166  1  0.54905881  0.44182574  0.58352688  1
  Te  Te167  1  0.57365088  0.39595380  0.89163963  1
  Te  Te168  1  0.57667030  0.74001106  0.25745834  1
  Te  Te169  1  0.53583678  0.71849796  0.56093925  1
  Te  Te170  1  0.59549860  0.72682899  0.91739500  1
  Te  Te171  1  0.90103613  0.06725155  0.23374501  1
  Te  Te172  1  0.92760491  0.09959051  0.58342013  1
  Te  Te173  1  0.93868477  0.10222477  0.90257521  1
  Te  Te174  1  0.92686934  0.42597718  0.26052941  1
  Te  Te175  1  0.92046729  0.39655847  0.58676360  1
  Te  Te176  1  0.92080795  0.42664621  0.95928632  1
  Te  Te177  1  0.90410696  0.72981923  0.23177577  1
  Te  Te178  1  0.94730151  0.76414535  0.56418183  1
  Te  Te179  1  0.94589343  0.75495683  0.91188352  1
