# generated using pymatgen
data_In2Te3
_symmetry_space_group_name_H-M   'P 1'
_cell_length_a   18.77829783
_cell_length_b   18.78228037
_cell_length_c   18.77149556
_cell_angle_alpha   90.02728112
_cell_angle_beta   90.02811655
_cell_angle_gamma   90.02075508
_symmetry_Int_Tables_number   1
_chemical_formula_structural   In2Te3
_chemical_formula_sum   'In72 Te108'
_cell_volume   6620.69051228
_cell_formula_units_Z   36
loop_
 _symmetry_equiv_pos_site_id
 _symmetry_equiv_pos_as_xyz
  1  'x, y, z'
loop_
 _atom_site_type_symbol
 _atom_site_label
 _atom_site_symmetry_multiplicity
 _atom_site_fract_x
 _atom_site_fract_y
 _atom_site_fract_z
 _atom_site_occupancy
  In  In0  1  0.17990389  0.00838365  0.52832034  1
  In  In1  1  0.84000995  0.80782549  0.63334995  1
  In  In2  1  0.67655776  -0.01957199  0.66375161  1
  In  In3  1  0.84618980  0.82607716  -0.00802794  1
  In  In4  1  0.69444687  0.47426289  0.78508004  1
  In  In5  1  0.82248101  0.13678422  0.33161099  1
  In  In6  1  0.47092445  0.17103747  0.65905061  1
  In  In7  1  0.17886629  0.16196251  -0.00536417  1
  In  In8  1  -0.00221120  0.16738567  0.51500765  1
  In  In9  1  0.48481352  0.00280704  0.49618121  1
  In  In10  1  -0.00649563  0.33527521  0.66217614  1
  In  In11  1  0.19612095  0.30329489  0.80720207  1
  In  In12  1  0.50674466  0.00118575  0.19001600  1
  In  In13  1  0.66854135  0.67026948  0.01159666  1
  In  In14  1  0.51268783  0.66778913  0.83220697  1
  In  In15  1  0.70024614  0.50950055  0.19266643  1
  In  In16  1  0.14786647  0.67745446  0.50211601  1
  In  In17  1  0.34852958  0.81736817  0.19047941  1
  In  In18  1  -0.01714466  0.66655222  -0.00294437  1
  In  In19  1  0.15057657  0.51472096  0.65606812  1
  In  In20  1  0.01497126  0.36042430  -0.00085571  1
  In  In21  1  0.34651151  0.63439393  0.64727144  1
  In  In22  1  0.67472021  0.17052822  0.82236488  1
  In  In23  1  0.51505042  0.83127978  0.34309418  1
  In  In24  1  0.00171333  0.83083244  0.17074497  1
  In  In25  1  0.67529328  0.66926117  0.65127225  1
  In  In26  1  0.83648849  0.34475675  0.51541660  1
  In  In27  1  -0.00039948  0.01400934  0.65980229  1
  In  In28  1  0.82499553  -0.03368816  0.19756026  1
  In  In29  1  0.49582864  0.84810286  0.01006444  1
  In  In30  1  0.13885119  0.87748765  -0.02420012  1
  In  In31  1  0.47863467  0.33286605  0.82171256  1
  In  In32  1  -0.02328387  0.50862682  0.81563389  1
  In  In33  1  0.84447161  0.52048871  0.34927666  1
  In  In34  1  0.16866006  0.32998147  0.48665668  1
  In  In35  1  0.50711205  0.17463840  -0.01868855  1
  In  In36  1  0.83502987  0.33853707  0.16379707  1
  In  In37  1  -0.00611420  0.16962290  0.80378195  1
  In  In38  1  0.84017978  -0.00896657  0.82148744  1
  In  In39  1  0.13684968  0.83565824  0.67512614  1
  In  In40  1  0.16973148  0.15496772  0.35844874  1
  In  In41  1  0.16848917  -0.01299048  0.17251906  1
  In  In42  1  0.64866336  0.30457944  0.35106684  1
  In  In43  1  0.16623373  0.49571051  0.34371138  1
  In  In44  1  0.35075200  0.32488421  0.00523415  1
  In  In45  1  0.84452409  0.68113610  0.81627084  1
  In  In46  1  -0.00787185  0.15856154  0.17189848  1
  In  In47  1  0.63811354  0.50214643  0.49579070  1
  In  In48  1  0.34770119  0.47293555  0.79885520  1
  In  In49  1  0.52157579  0.83174684  0.65081316  1
  In  In50  1  0.83027497  0.15308996  -0.03431336  1
  In  In51  1  0.34012295  0.67753124  0.33169013  1
  In  In52  1  0.66979661  0.17522517  0.49123002  1
  In  In53  1  0.50403987  0.50065398  -0.01542657  1
  In  In54  1  0.66498217  0.01673686  0.00156527  1
  In  In55  1  0.32465350  0.51499650  0.20376313  1
  In  In56  1  0.15035186  0.48608487  0.00288765  1
  In  In57  1  0.63572426  0.14727778  0.16104775  1
  In  In58  1  0.31482956  0.00410681  -0.01674706  1
  In  In59  1  0.30722678  0.70384303  -0.02605994  1
  In  In60  1  0.31969484  0.84499476  0.81975214  1
  In  In61  1  0.50271367  0.16320767  0.35179709  1
  In  In62  1  0.84068984  0.51005311  -0.01061334  1
  In  In63  1  0.36217061  0.47535340  0.49085196  1
  In  In64  1  0.82154846  0.64419073  0.18048326  1
  In  In65  1  0.18202272  0.67000249  0.17230229  1
  In  In66  1  -0.00290625  0.67347982  0.35854846  1
  In  In67  1  0.49893232  0.65785267  0.20902183  1
  In  In68  1  0.51601727  0.31605582  0.17103524  1
  In  In69  1  0.32880904  0.17422529  0.15834534  1
  In  In70  1  0.01576890  0.33702442  0.34567468  1
  In  In71  1  0.32980054  0.84739780  0.50347066  1
  Te  Te72  1  0.08523157  0.07659093  0.08113672  1
  Te  Te73  1  0.06988182  0.06539329  0.42785274  1
  Te  Te74  1  0.10088507  0.09081750  0.73867188  1
  Te  Te75  1  0.08265922  0.42023794  0.11641394  1
  Te  Te76  1  0.06420637  0.44258963  0.44505309  1
  Te  Te77  1  0.09382978  0.41250934  0.76074880  1
  Te  Te78  1  0.09518568  0.74882399  0.07263566  1
  Te  Te79  1  0.08131518  0.78055293  0.41873476  1
  Te  Te80  1  0.08041181  0.73969939  0.77190111  1
  Te  Te81  1  0.42536677  0.08300747  0.08178556  1
  Te  Te82  1  0.39421051  0.10425889  0.43503735  1
  Te  Te83  1  0.37394355  0.08040959  0.72871342  1
  Te  Te84  1  0.42538723  0.42337147  0.09538124  1
  Te  Te85  1  0.43623949  0.37411917  0.41403474  1
  Te  Te86  1  0.44000052  0.41295717  0.69432180  1
  Te  Te87  1  0.42434191  0.73161005  0.08493914  1
  Te  Te88  1  0.42463351  0.74753020  0.43617963  1
  Te  Te89  1  0.41329331  0.74357559  0.74327653  1
  Te  Te90  1  0.76762485  0.08311953  0.09585668  1
  Te  Te91  1  0.76957512  0.07011795  0.45256138  1
  Te  Te92  1  0.76523529  0.08788684  0.73150989  1
  Te  Te93  1  0.74526911  0.42361643  0.07309295  1
  Te  Te94  1  0.74997038  0.40860523  0.40440468  1
  Te  Te95  1  0.77259830  0.37488120  0.70997200  1
  Te  Te96  1  0.75799225  0.75851807  0.09754375  1
  Te  Te97  1  0.77765782  0.79053790  0.44025987  1
  Te  Te98  1  0.74181634  0.76919812  0.74739563  1
  Te  Te99  1  0.09181264  0.23982973  0.25527752  1
  Te  Te100  1  0.09887038  0.24658566  0.59559932  1
  Te  Te101  1  0.08089114  0.25156717  0.91027751  1
  Te  Te102  1  0.08414408  0.59048855  0.25630021  1
  Te  Te103  1  0.05938500  0.62813529  0.61644708  1
  Te  Te104  1  0.07553607  0.58071729  0.90985131  1
  Te  Te105  1  0.08114094  0.91273437  0.26524226  1
  Te  Te106  1  0.06404113  0.91064025  0.56493402  1
  Te  Te107  1  0.06266997  0.95943450  0.88268288  1
  Te  Te108  1  0.41240484  0.25217247  0.26031802  1
  Te  Te109  1  0.38788728  0.27942045  0.59530004  1
  Te  Te110  1  0.39329534  0.22686639  0.89612730  1
  Te  Te111  1  0.43885316  0.55270203  0.30365399  1
  Te  Te112  1  0.45056479  0.57608263  0.55820555  1
  Te  Te113  1  0.40402967  0.58774320  0.90795411  1
  Te  Te114  1  0.40872413  0.92645655  0.27872018  1
  Te  Te115  1  0.40975185  0.92749438  0.60635783  1
  Te  Te116  1  0.42069541  0.92774477  0.90283635  1
  Te  Te117  1  0.74499074  0.24117793  0.24162795  1
  Te  Te118  1  0.73216562  0.26882002  0.59275158  1
  Te  Te119  1  0.74093509  0.26006744  0.92044740  1
  Te  Te120  1  0.72842767  0.61408053  0.30312717  1
  Te  Te121  1  0.74957147  0.57103731  0.56840385  1
  Te  Te122  1  0.74268184  0.59048542  0.90312612  1
  Te  Te123  1  0.75032167  0.89539988  0.30463420  1
  Te  Te124  1  0.74640349  0.89817208  0.55690573  1
  Te  Te125  1  0.74743698  0.91666275  0.91759785  1
  Te  Te126  1  0.23388629  0.27092195  0.08849101  1
  Te  Te127  1  0.27118806  0.23415308  0.43426140  1
  Te  Te128  1  0.29089505  0.24107055  0.70352630  1
  Te  Te129  1  0.26106505  0.57778986  0.07733189  1
  Te  Te130  1  0.25317684  0.59034087  0.43025376  1
  Te  Te131  1  0.24819192  0.58222939  0.75359194  1
  Te  Te132  1  0.26472620  0.89723972  0.08109225  1
  Te  Te133  1  0.25321334  0.94083813  0.41919926  1
  Te  Te134  1  0.23444997  0.93225456  0.73610375  1
  Te  Te135  1  0.60468969  0.26075387  0.05930248  1
  Te  Te136  1  0.54659618  0.27446597  0.46341341  1
  Te  Te137  1  0.57818898  0.25142520  0.73635644  1
  Te  Te138  1  0.58383509  0.57478891  0.09622546  1
  Te  Te139  1  0.57171775  0.57956592  0.38871375  1
  Te  Te140  1  0.58428538  0.57269753  0.73866588  1
  Te  Te141  1  0.59869554  0.91791809  0.10026902  1
  Te  Te142  1  0.58894504  0.91053727  0.44533491  1
  Te  Te143  1  0.58181010  0.91623484  0.75607199  1
  Te  Te144  1  0.91906749  0.24848248  0.06982188  1
  Te  Te145  1  0.90885544  0.24676593  0.40851021  1
  Te  Te146  1  0.89086179  0.25576612  0.73899231  1
  Te  Te147  1  0.92878132  0.56768002  0.09991845  1
  Te  Te148  1  0.89585474  0.61470349  0.45534204  1
  Te  Te149  1  0.88724159  0.57710896  0.72017583  1
  Te  Te150  1  0.91953813  0.92509740  0.08207592  1
  Te  Te151  1  0.87699005  0.88572810  0.39081160  1
  Te  Te152  1  0.91956146  0.90265881  0.72887468  1
  Te  Te153  1  0.25838053  0.07961658  0.25384942  1
  Te  Te154  1  0.26462751  0.08970407  0.62277806  1
  Te  Te155  1  0.23297608  0.07752423  0.88500929  1
  Te  Te156  1  0.25160481  0.40423639  0.26594609  1
  Te  Te157  1  0.24569914  0.42581193  0.57910356  1
  Te  Te158  1  0.25690638  0.41094480  0.91503336  1
  Te  Te159  1  0.23103348  0.77008795  0.27695883  1
  Te  Te160  1  0.25223595  0.74928743  0.59754261  1
  Te  Te161  1  0.19804290  0.76232457  0.88001881  1
  Te  Te162  1  0.60450149  0.06756293  0.28769546  1
  Te  Te163  1  0.58599278  0.08402292  0.58988007  1
  Te  Te164  1  0.57597535  0.07391341  0.89058972  1
  Te  Te165  1  0.59623145  0.41299920  0.25538854  1
  Te  Te166  1  0.57211872  0.43898652  0.61261117  1
  Te  Te167  1  0.58828546  0.41969104  0.88956910  1
  Te  Te168  1  0.59680939  0.76247570  0.24027477  1
  Te  Te169  1  0.59374387  0.74745003  0.55371501  1
  Te  Te170  1  0.59059405  0.76508521  0.92004789  1
  Te  Te171  1  0.93288462  0.05405205  0.26646027  1
  Te  Te172  1  0.89335566  0.08297463  0.57816479  1
  Te  Te173  1  0.94609848  0.06286832  0.91399927  1
  Te  Te174  1  0.92154997  0.42186802  0.25807702  1
  Te  Te175  1  0.93295278  0.43968291  0.57584569  1
  Te  Te176  1  0.90430047  0.40360865  0.90090674  1
  Te  Te177  1  0.90823347  0.74685977  0.25717987  1
  Te  Te178  1  0.94484123  0.72556803  0.56654360  1
  Te  Te179  1  0.94692371  0.77138579  0.88984938  1
