# generated using pymatgen
data_In2Te3
_symmetry_space_group_name_H-M   'P 1'
_cell_length_a   18.76363136
_cell_length_b   18.77154586
_cell_length_c   18.77537496
_cell_angle_alpha   90.06267773
_cell_angle_beta   89.88933030
_cell_angle_gamma   90.05849517
_symmetry_Int_Tables_number   1
_chemical_formula_structural   In2Te3
_chemical_formula_sum   'In72 Te108'
_cell_volume   6613.08727516
_cell_formula_units_Z   36
loop_
 _symmetry_equiv_pos_site_id
 _symmetry_equiv_pos_as_xyz
  1  'x, y, z'
loop_
 _atom_site_type_symbol
 _atom_site_label
 _atom_site_symmetry_multiplicity
 _atom_site_fract_x
 _atom_site_fract_y
 _atom_site_fract_z
 _atom_site_occupancy
  In  In0  1  0.16885314  0.48817274  -0.01297319  1
  In  In1  1  0.50622631  0.34279314  0.14873873  1
  In  In2  1  0.83211464  0.00057330  0.48997686  1
  In  In3  1  0.14438822  0.00055963  0.15710392  1
  In  In4  1  0.49214864  -0.01301767  0.15992982  1
  In  In5  1  0.18954409  -0.00841557  0.51477884  1
  In  In6  1  0.83477106  0.46786570  0.34521107  1
  In  In7  1  0.63889731  0.18628582  0.83268018  1
  In  In8  1  0.02028776  0.01254953  -0.02583044  1
  In  In9  1  -0.00562937  0.68273673  0.00662284  1
  In  In10  1  0.34140880  0.00073093  0.36163548  1
  In  In11  1  0.01667601  -0.00444764  0.65295301  1
  In  In12  1  0.50243348  0.80584934  0.34862763  1
  In  In13  1  0.19112593  0.16029056  0.64777370  1
  In  In14  1  0.65214619  0.82186419  0.52842530  1
  In  In15  1  0.50223285  0.33447995  0.51966408  1
  In  In16  1  0.85021343  0.81920332  0.67423172  1
  In  In17  1  0.01438819  0.82813545  0.17165476  1
  In  In18  1  0.84995500  0.03246434  0.17163587  1
  In  In19  1  0.65603086  0.19521689  0.16106037  1
  In  In20  1  0.50558770  0.16722011  0.33922861  1
  In  In21  1  0.86989250  0.30783101  0.14218081  1
  In  In22  1  0.82335752  0.84518212  0.00495337  1
  In  In23  1  0.83988836  0.50257691  -0.00472780  1
  In  In24  1  0.51593018  0.64190360  0.79491396  1
  In  In25  1  0.34031569  0.47857953  0.17708976  1
  In  In26  1  0.63611265  0.65357538  -0.00128711  1
  In  In27  1  0.30428755  0.31934782  0.32908769  1
  In  In28  1  0.83326403  0.64968611  0.15201431  1
  In  In29  1  0.33022508  0.86937169  0.80689329  1
  In  In30  1  0.17761809  0.33970467  0.48469029  1
  In  In31  1  0.83068737  0.65715560  0.50548828  1
  In  In32  1  0.64650674  0.65875039  0.35509170  1
  In  In33  1  0.48087843  0.51567901  0.33662266  1
  In  In34  1  0.82462044  0.64010708  0.81357959  1
  In  In35  1  0.01799025  0.34314448  0.33978397  1
  In  In36  1  0.16301607  0.84252294  0.00840434  1
  In  In37  1  0.03607758  0.82349319  0.84445929  1
  In  In38  1  0.34050333  0.01701097  -0.03486662  1
  In  In39  1  0.65799494  0.32914228  0.66944525  1
  In  In40  1  0.85941756  0.85428406  0.35149188  1
  In  In41  1  0.66569439  0.51099095  0.14805687  1
  In  In42  1  -0.00449600  0.16689465  0.50273377  1
  In  In43  1  0.35177599  0.34472462  0.66330683  1
  In  In44  1  0.00517353  0.18356044  0.83027239  1
  In  In45  1  0.65761178  0.83247601  0.81070237  1
  In  In46  1  0.34394357  0.81484269  0.52070568  1
  In  In47  1  0.83316444  0.02413056  0.82357863  1
  In  In48  1  0.17810791  0.66050353  0.80656424  1
  In  In49  1  -0.00775581  -0.01826052  0.32172522  1
  In  In50  1  0.64228983  0.36004264  -0.03242942  1
  In  In51  1  -0.01938801  0.49602725  0.82202658  1
  In  In52  1  0.34584871  0.67142537  -0.00329122  1
  In  In53  1  0.64228383  0.84366955  0.19338059  1
  In  In54  1  0.18024904  0.34256142  0.15517834  1
  In  In55  1  0.15995752  0.33465114  0.82765157  1
  In  In56  1  0.68362803  0.33799894  0.34140623  1
  In  In57  1  0.65998871  -0.00829919  0.36402519  1
  In  In58  1  0.03312827  0.66152658  0.33836767  1
  In  In59  1  0.83813673  0.32495298  0.83885310  1
  In  In60  1  -0.00119729  0.35586374  0.68797786  1
  In  In61  1  0.33320227  0.50806550  0.81111021  1
  In  In62  1  0.48771477  0.82944947  0.66796091  1
  In  In63  1  0.15939629  0.66013873  0.51771464  1
  In  In64  1  0.30208292  0.79672844  0.18597069  1
  In  In65  1  0.63999911  0.02357077  -0.00165488  1
  In  In66  1  0.34521207  0.52251225  0.51452287  1
  In  In67  1  0.17350711  0.18690761  0.34458128  1
  In  In68  1  0.31172240  0.16631051  0.14852490  1
  In  In69  1  0.63055493  0.02032769  0.64860077  1
  In  In70  1  0.82170200  0.33605079  0.51758756  1
  In  In71  1  0.83345730  0.49166550  0.66186943  1
  Te  Te72  1  0.08665873  0.10715763  0.07061948  1
  Te  Te73  1  0.09511065  0.07978143  0.42473118  1
  Te  Te74  1  0.09255242  0.09141999  0.74585344  1
  Te  Te75  1  0.07672813  0.41708615  0.07850550  1
  Te  Te76  1  0.09225152  0.44171821  0.42111645  1
  Te  Te77  1  0.10545535  0.44985770  0.74268424  1
  Te  Te78  1  0.10803309  0.73045095  0.09854979  1
  Te  Te79  1  0.08367751  0.75991526  0.43364014  1
  Te  Te80  1  0.08757357  0.74942726  0.72649238  1
  Te  Te81  1  0.42482474  0.09314410  0.07669788  1
  Te  Te82  1  0.43871889  0.08061763  0.44406877  1
  Te  Te83  1  0.39420425  0.07657833  0.81054328  1
  Te  Te84  1  0.40152579  0.40139802  0.06455568  1
  Te  Te85  1  0.40719650  0.40197874  0.41503110  1
  Te  Te86  1  0.44288793  0.40935322  0.76676586  1
  Te  Te87  1  0.41061971  0.76643175  0.09119165  1
  Te  Te88  1  0.39992989  0.72365418  0.41591578  1
  Te  Te89  1  0.40181049  0.74191532  0.75821756  1
  Te  Te90  1  0.74485232  0.09673155  0.08061418  1
  Te  Te91  1  0.75204814  0.09539560  0.41098926  1
  Te  Te92  1  0.72869020  0.09604392  0.74269310  1
  Te  Te93  1  0.75265395  0.40383006  0.08481338  1
  Te  Te94  1  0.72736152  0.43698047  0.44891096  1
  Te  Te95  1  0.74665401  0.41813372  0.76388561  1
  Te  Te96  1  0.73522175  0.74515252  0.08452386  1
  Te  Te97  1  0.74161034  0.76791503  0.40983901  1
  Te  Te98  1  0.73455094  0.73204087  0.72701568  1
  Te  Te99  1  0.08720761  0.25031500  0.23898269  1
  Te  Te100  1  0.08370052  0.26022492  0.58924330  1
  Te  Te101  1  0.07979915  0.26262381  0.92981533  1
  Te  Te102  1  0.11250817  0.60064325  0.23082125  1
  Te  Te103  1  0.06414468  0.59839085  0.61546421  1
  Te  Te104  1  0.07420092  0.59471244  0.90789538  1
  Te  Te105  1  0.10867313  0.89946367  0.26718116  1
  Te  Te106  1  0.12020169  0.89714904  0.60989082  1
  Te  Te107  1  0.13210922  0.94355701  0.89157425  1
  Te  Te108  1  0.41686979  0.24820091  0.24356648  1
  Te  Te109  1  0.43270304  0.22936462  0.60536595  1
  Te  Te110  1  0.41722042  0.19622543  0.89537405  1
  Te  Te111  1  0.39407685  0.59696260  0.24993153  1
  Te  Te112  1  0.45435904  0.59701147  0.58143391  1
  Te  Te113  1  0.42880351  0.57628151  0.90962427  1
  Te  Te114  1  0.41333940  0.90473168  0.26149962  1
  Te  Te115  1  0.39330500  0.92964021  0.60725970  1
  Te  Te116  1  0.41993650  0.90025257  0.91956100  1
  Te  Te117  1  0.76720031  0.25140090  0.24814650  1
  Te  Te118  1  0.74225228  0.23588885  0.59046131  1
  Te  Te119  1  0.74233964  0.24763018  0.92762870  1
  Te  Te120  1  0.75107646  0.57862046  0.26252272  1
  Te  Te121  1  0.73608365  0.58577966  0.59529596  1
  Te  Te122  1  0.73007566  0.56801166  0.91208202  1
  Te  Te123  1  0.76366376  0.92122027  0.24409986  1
  Te  Te124  1  0.74851924  0.91912410  0.59794658  1
  Te  Te125  1  0.73733943  0.92980260  0.90462131  1
  Te  Te126  1  0.25883637  0.26518822  0.05397705  1
  Te  Te127  1  0.27704341  0.22707600  0.44965102  1
  Te  Te128  1  0.26095519  0.25104855  0.74879440  1
  Te  Te129  1  0.26241665  0.57015228  0.07516599  1
  Te  Te130  1  0.25675294  0.59575009  0.42064310  1
  Te  Te131  1  0.27331430  0.59848745  0.70661250  1
  Te  Te132  1  0.26065942  0.92678248  0.09042163  1
  Te  Te133  1  0.25400283  0.89083449  0.41884613  1
  Te  Te134  1  0.21080254  0.93709115  0.75313521  1
  Te  Te135  1  0.56943875  0.24758233  0.04795838  1
  Te  Te136  1  0.59854810  0.24802318  0.42986021  1
  Te  Te137  1  0.54639422  0.24795755  0.73324562  1
  Te  Te138  1  0.54856217  0.56828537  0.08213197  1
  Te  Te139  1  0.56232798  0.57675452  0.44727254  1
  Te  Te140  1  0.60346890  0.55637743  0.71012124  1
  Te  Te141  1  0.57816010  0.90041868  0.06646628  1
  Te  Te142  1  0.56000665  0.91183378  0.44462137  1
  Te  Te143  1  0.56021413  0.93462649  0.75372002  1
  Te  Te144  1  0.94262053  0.20137816  0.07285475  1
  Te  Te145  1  0.91291919  0.26094120  0.41668046  1
  Te  Te146  1  0.90458448  0.24219478  0.73040686  1
  Te  Te147  1  0.94341872  0.56523584  0.09144620  1
  Te  Te148  1  0.91784247  0.57987031  0.40738579  1
  Te  Te149  1  0.94033674  0.60183336  0.71300775  1
  Te  Te150  1  0.93367693  0.92640094  0.07856742  1
  Te  Te151  1  0.95428557  0.91513117  0.45456917  1
  Te  Te152  1  0.93170116  0.91994257  0.76923343  1
  Te  Te153  1  0.25162560  0.07693058  0.26041238  1
  Te  Te154  1  0.29065646  0.05588687  0.60698653  1
  Te  Te155  1  0.27070650  0.13019365  0.89512200  1
  Te  Te156  1  0.22495578  0.43391289  0.27131963  1
  Te  Te157  1  0.24894049  0.42681051  0.58886858  1
  Te  Te158  1  0.27097277  0.40686923  0.90735010  1
  Te  Te159  1  0.22142796  0.70313895  0.26950012  1
  Te  Te160  1  0.25883653  0.73055054  0.61197748  1
  Te  Te161  1  0.24409891  0.75196398  0.91303784  1
  Te  Te162  1  0.59172524  0.07378056  0.24270621  1
  Te  Te163  1  0.54202359  0.10178605  0.56566401  1
  Te  Te164  1  0.54687062  0.08250309  0.89654477  1
  Te  Te165  1  0.58390161  0.42048024  0.25733308  1
  Te  Te166  1  0.56731058  0.43752648  0.60975466  1
  Te  Te167  1  0.54192069  0.42911542  0.88829607  1
  Te  Te168  1  0.56820735  0.71898301  0.23724611  1
  Te  Te169  1  0.55090128  0.72293652  0.58036892  1
  Te  Te170  1  0.56842736  0.74852805  0.90130993  1
  Te  Te171  1  0.93717305  0.10501783  0.26474451  1
  Te  Te172  1  0.90598817  0.08473477  0.59607801  1
  Te  Te173  1  0.90587615  0.10597467  0.92899051  1
  Te  Te174  1  0.92872255  0.41662132  0.23735527  1
  Te  Te175  1  0.93526505  0.42607139  0.56819004  1
  Te  Te176  1  0.93378096  0.39849343  0.93154145  1
  Te  Te177  1  0.90807271  0.74645950  0.24659778  1
  Te  Te178  1  0.92440495  0.75567153  0.56410316  1
  Te  Te179  1  0.89639103  0.74568443  0.90336369  1
