# generated using pymatgen
data_In2Te3
_symmetry_space_group_name_H-M   'P 1'
_cell_length_a   18.92040563
_cell_length_b   18.95084151
_cell_length_c   18.95429286
_cell_angle_alpha   89.90318150
_cell_angle_beta   89.98461743
_cell_angle_gamma   89.81315511
_symmetry_Int_Tables_number   1
_chemical_formula_structural   In2Te3
_chemical_formula_sum   'In72 Te108'
_cell_volume   6796.15984329
_cell_formula_units_Z   36
loop_
 _symmetry_equiv_pos_site_id
 _symmetry_equiv_pos_as_xyz
  1  'x, y, z'
loop_
 _atom_site_type_symbol
 _atom_site_label
 _atom_site_symmetry_multiplicity
 _atom_site_fract_x
 _atom_site_fract_y
 _atom_site_fract_z
 _atom_site_occupancy
  In  In0  1  0.82707406  0.13848263  0.67265310  1
  In  In1  1  0.51829091  0.52788536  -0.00249318  1
  In  In2  1  -0.00874498  0.80100452  0.20055999  1
  In  In3  1  0.00244371  -0.02096869  0.64990611  1
  In  In4  1  0.67419472  0.68019189  0.34127929  1
  In  In5  1  0.51867836  0.68830814  0.83614241  1
  In  In6  1  0.65704428  0.82248230  0.85651491  1
  In  In7  1  0.85072701  0.32521763  0.82498974  1
  In  In8  1  0.17636282  0.16239793  0.00286315  1
  In  In9  1  0.34317356  0.65017163  0.01760258  1
  In  In10  1  0.18828335  0.81947549  0.31475868  1
  In  In11  1  0.01434291  0.36183641  0.02505192  1
  In  In12  1  0.17337118  0.31595738  0.84764533  1
  In  In13  1  0.33187776  0.45871600  0.83691322  1
  In  In14  1  0.31699814  -0.02692987  0.68760592  1
  In  In15  1  0.02085777  0.49044297  0.85135038  1
  In  In16  1  0.83005711  0.66593297  0.48383696  1
  In  In17  1  0.67583192  0.00211356  0.00388173  1
  In  In18  1  0.83293475  0.51294350  0.67025528  1
  In  In19  1  0.83075111  0.50718717  0.04481221  1
  In  In20  1  0.49673777  0.66495292  0.16851088  1
  In  In21  1  0.15020443  0.66894655  0.49810125  1
  In  In22  1  0.33980217  0.51853937  0.19284748  1
  In  In23  1  0.15505072  0.51279429  0.32998272  1
  In  In24  1  0.83207434  0.33166915  0.38963848  1
  In  In25  1  0.00683204  0.34787826  0.63007395  1
  In  In26  1  0.50707436  -0.01809556  0.50701698  1
  In  In27  1  -0.00639527  0.66699838  0.03003907  1
  In  In28  1  0.00684171  0.16110012  0.52734793  1
  In  In29  1  0.15974870  0.66682206  0.83814047  1
  In  In30  1  0.49539661  -0.01424257  0.82963159  1
  In  In31  1  0.68315078  0.50993347  0.83886359  1
  In  In32  1  0.81950709  0.87150207  0.64981181  1
  In  In33  1  0.31461999  0.33470323  0.66065845  1
  In  In34  1  0.48363698  0.84815598  0.66613736  1
  In  In35  1  -0.00668569  0.20541359  0.17737942  1
  In  In36  1  0.67231845  0.70739055  0.65170076  1
  In  In37  1  0.16345800  0.00326777  0.15676050  1
  In  In38  1  0.33775464  0.32487289  0.33197508  1
  In  In39  1  0.00492189  -0.00901455  -0.01688521  1
  In  In40  1  0.33041485  0.13843395  0.51230550  1
  In  In41  1  0.50210723  0.35552756  0.17083269  1
  In  In42  1  0.32769209  0.66655235  0.66244695  1
  In  In43  1  -0.01153318  0.82308010  0.48636510  1
  In  In44  1  0.47513620  -0.01160575  0.18367095  1
  In  In45  1  0.85358533  0.66410480  0.87085804  1
  In  In46  1  0.02308963  0.69623035  0.67746590  1
  In  In47  1  -0.05015090  0.49621870  0.42819043  1
  In  In48  1  0.68485722  0.83982924  0.14222297  1
  In  In49  1  0.51872431  0.10682107  0.64206436  1
  In  In50  1  0.16510553  0.50828397  0.63426470  1
  In  In51  1  0.69003888  0.35095489  -0.00054176  1
  In  In52  1  0.14929879  0.17041769  0.32927559  1
  In  In53  1  0.65817542  -0.00020301  0.35045251  1
  In  In54  1  0.86307464  0.18663510  -0.01011296  1
  In  In55  1  -0.01155527  -0.00237483  0.36134285  1
  In  In56  1  0.49447053  0.52636209  0.63522529  1
  In  In57  1  0.84325323  0.79698208  0.00892712  1
  In  In58  1  0.65040619  0.31684918  0.64080752  1
  In  In59  1  0.68118428  0.20246319  0.17851994  1
  In  In60  1  0.15588010  0.83595854  -0.01060279  1
  In  In61  1  0.66053948  0.16256567  0.49688883  1
  In  In62  1  0.01878153  0.13964157  0.82095719  1
  In  In63  1  0.32805488  -0.01651482  0.33692019  1
  In  In64  1  0.47986452  0.33865307  0.49484551  1
  In  In65  1  0.51409776  0.18186135  0.32071451  1
  In  In66  1  0.84854735  0.00439045  0.16863555  1
  In  In67  1  0.33097067  -0.00370893  -0.02354201  1
  In  In68  1  0.49236133  0.14939747  0.00520862  1
  In  In69  1  0.50604647  0.30163835  0.81587989  1
  In  In70  1  0.32262534  0.31775991  0.02420871  1
  In  In71  1  0.51566823  0.52186355  0.31586648  1
  Te  Te72  1  0.05588148  0.09520685  0.08280784  1
  Te  Te73  1  0.09534928  0.07527698  0.43385190  1
  Te  Te74  1  0.09669540  0.07604556  0.71511304  1
  Te  Te75  1  0.05139917  0.44850132  0.13623330  1
  Te  Te76  1  0.07910538  0.42738016  0.42319573  1
  Te  Te77  1  0.09461465  0.40982813  0.74682689  1
  Te  Te78  1  0.09641634  0.75120557  0.10468159  1
  Te  Te79  1  0.07801327  0.74507584  0.38681920  1
  Te  Te80  1  0.12802741  0.78179516  0.74272040  1
  Te  Te81  1  0.39294546  0.07967217  0.09300670  1
  Te  Te82  1  0.43729863  0.08619664  0.40940402  1
  Te  Te83  1  0.41256474  0.08022534  0.74597467  1
  Te  Te84  1  0.41738547  0.43189609  0.06971704  1
  Te  Te85  1  0.41562876  0.43555616  0.39805763  1
  Te  Te86  1  0.43857866  0.41073296  0.72974395  1
  Te  Te87  1  0.44455813  0.74857086  0.05734554  1
  Te  Te88  1  0.51035768  0.75519736  0.43052992  1
  Te  Te89  1  0.40623295  0.75561215  0.75885844  1
  Te  Te90  1  0.76561237  0.10089458  0.08030718  1
  Te  Te91  1  0.75066709  0.10063452  0.39814918  1
  Te  Te92  1  0.71431099  0.09827172  0.75275886  1
  Te  Te93  1  0.71672776  0.44042102  0.11297051  1
  Te  Te94  1  0.75916580  0.46405176  0.41166537  1
  Te  Te95  1  0.74197211  0.40199769  0.74058197  1
  Te  Te96  1  0.77882739  0.72166846  0.12161772  1
  Te  Te97  1  0.73640850  0.77834748  0.44120856  1
  Te  Te98  1  0.75588941  0.73729531  0.77376584  1
  Te  Te99  1  0.05975780  0.28301479  0.28537585  1
  Te  Te100  1  0.10685741  0.25422847  0.58182620  1
  Te  Te101  1  0.05600831  0.25484424  0.92347540  1
  Te  Te102  1  0.07027936  0.57563605  0.22444237  1
  Te  Te103  1  0.04784946  0.58474211  0.57728174  1
  Te  Te104  1  0.09216540  0.58127470  0.94594840  1
  Te  Te105  1  0.07386858  0.92559791  0.25073818  1
  Te  Te106  1  0.08906002  0.89609573  0.56281107  1
  Te  Te107  1  0.11302393  0.94212488  0.89262689  1
  Te  Te108  1  0.41340246  0.24532351  0.22640438  1
  Te  Te109  1  0.43451970  0.22765102  0.58799702  1
  Te  Te110  1  0.41032734  0.24532088  0.91898872  1
  Te  Te111  1  0.39229690  0.63639121  0.27634917  1
  Te  Te112  1  0.38667594  0.58405565  0.55492964  1
  Te  Te113  1  0.41951882  0.57246101  0.88864614  1
  Te  Te114  1  0.39325787  0.88176941  0.24805166  1
  Te  Te115  1  0.38833599  0.90864121  0.56507932  1
  Te  Te116  1  0.42407062  0.89759582  0.92097799  1
  Te  Te117  1  0.77934426  0.26910155  0.25949987  1
  Te  Te118  1  0.76465073  0.24376002  0.57621405  1
  Te  Te119  1  0.74986874  0.24600007  0.90655240  1
  Te  Te120  1  0.75287480  0.56066924  0.29654379  1
  Te  Te121  1  0.73687372  0.58950581  0.58052424  1
  Te  Te122  1  0.74403544  0.59241188  0.94808335  1
  Te  Te123  1  0.75000085  0.92456258  0.24960346  1
  Te  Te124  1  0.71300968  0.88548287  0.55091196  1
  Te  Te125  1  0.76324508  0.90370883  0.92926599  1
  Te  Te126  1  0.21381925  0.26012804  0.10356184  1
  Te  Te127  1  0.25480626  0.23640393  0.42224835  1
  Te  Te128  1  0.26531716  0.24206117  0.76112187  1
  Te  Te129  1  0.24534385  0.58262759  0.10139490  1
  Te  Te130  1  0.24509755  0.59225583  0.41569350  1
  Te  Te131  1  0.24559329  0.56303249  0.75710801  1
  Te  Te132  1  0.25291444  0.91073094  0.07994302  1
  Te  Te133  1  0.22785227  0.91575673  0.41847560  1
  Te  Te134  1  0.22925359  0.89666591  0.77796791  1
  Te  Te135  1  0.58303832  0.25545433  0.07048932  1
  Te  Te136  1  0.59208633  0.27134928  0.41263956  1
  Te  Te137  1  0.60179141  0.20760429  0.73842626  1
  Te  Te138  1  0.59526203  0.56421932  0.11695070  1
  Te  Te139  1  0.56878144  0.60857589  0.42527550  1
  Te  Te140  1  0.59271508  0.58648414  0.74335451  1
  Te  Te141  1  0.57248818  0.92492393  0.08206422  1
  Te  Te142  1  0.55323627  0.89931239  0.38821924  1
  Te  Te143  1  0.59692190  0.90837504  0.74655095  1
  Te  Te144  1  0.89738326  0.29044445  0.09408652  1
  Te  Te145  1  0.95706788  0.25044820  0.41397453  1
  Te  Te146  1  0.93475936  0.24160396  0.73156569  1
  Te  Te147  1  0.93453512  0.57146175  0.13323655  1
  Te  Te148  1  0.92716091  0.63617713  0.37386243  1
  Te  Te149  1  0.93341704  0.58240116  0.76234681  1
  Te  Te150  1  0.92963753  0.90402505  0.08663643  1
  Te  Te151  1  0.89079781  0.89835142  0.40648509  1
  Te  Te152  1  0.91414461  0.91497323  0.75036605  1
  Te  Te153  1  0.24948427  0.08369134  0.25182712  1
  Te  Te154  1  0.23924692  0.07194407  0.60626882  1
  Te  Te155  1  0.24448443  0.08833217  0.89875626  1
  Te  Te156  1  0.24812441  0.41158197  0.24753147  1
  Te  Te157  1  0.25715622  0.42190868  0.56005779  1
  Te  Te158  1  0.23335000  0.41685305  0.94317664  1
  Te  Te159  1  0.28989392  0.74870203  0.23600457  1
  Te  Te160  1  0.22941310  0.75232956  0.59250989  1
  Te  Te161  1  0.25694864  0.74176458  0.92568560  1
  Te  Te162  1  0.59103310  0.08739589  0.22663792  1
  Te  Te163  1  0.63757087  0.03253439  0.57601705  1
  Te  Te164  1  0.58631183  0.07995003  0.90956723  1
  Te  Te165  1  0.59052969  0.40058635  0.27844442  1
  Te  Te166  1  0.58614519  0.42802277  0.55989703  1
  Te  Te167  1  0.57900302  0.41063405  0.90414355  1
  Te  Te168  1  0.59653321  0.75869825  0.23620693  1
  Te  Te169  1  0.54267415  0.73710356  0.58098036  1
  Te  Te170  1  0.59157939  0.73476209  0.95626699  1
  Te  Te171  1  0.92474231  0.09635647  0.25982836  1
  Te  Te172  1  0.89813696  0.05933070  0.56749242  1
  Te  Te173  1  0.90645041  0.07249001  0.89912095  1
  Te  Te174  1  0.87667321  0.44732925  0.29836296  1
  Te  Te175  1  0.89715801  0.42627256  0.56492822  1
  Te  Te176  1  0.89865324  0.43197960  0.92257818  1
  Te  Te177  1  0.87015156  0.73308162  0.24774417  1
  Te  Te178  1  0.90058921  0.74638006  0.60129811  1
  Te  Te179  1  0.95884752  0.76310224  0.91313267  1
