# generated using pymatgen
data_In2Te3
_symmetry_space_group_name_H-M   'P 1'
_cell_length_a   18.92242719
_cell_length_b   18.94429785
_cell_length_c   18.93736510
_cell_angle_alpha   89.99036688
_cell_angle_beta   89.94004411
_cell_angle_gamma   89.82387126
_symmetry_Int_Tables_number   1
_chemical_formula_structural   In2Te3
_chemical_formula_sum   'In72 Te108'
_cell_volume   6788.48108578
_cell_formula_units_Z   36
loop_
 _symmetry_equiv_pos_site_id
 _symmetry_equiv_pos_as_xyz
  1  'x, y, z'
loop_
 _atom_site_type_symbol
 _atom_site_label
 _atom_site_symmetry_multiplicity
 _atom_site_fract_x
 _atom_site_fract_y
 _atom_site_fract_z
 _atom_site_occupancy
  In  In0  1  0.50205928  0.67796010  0.82221724  1
  In  In1  1  0.65990866  -0.02133224  0.31586670  1
  In  In2  1  0.15933047  0.33241775  0.49148493  1
  In  In3  1  0.83751870  0.79658794  0.00172693  1
  In  In4  1  0.15386239  0.01651835  0.50918631  1
  In  In5  1  0.34413460  0.14625559  0.17246171  1
  In  In6  1  0.81245538  0.69473508  0.50423002  1
  In  In7  1  0.50741971  0.49402027  0.67843651  1
  In  In8  1  0.35440141  0.81906959  0.49269251  1
  In  In9  1  0.51864889  -0.04429321  0.50332690  1
  In  In10  1  0.53697694  0.70217571  0.50775344  1
  In  In11  1  0.34487781  0.15729364  0.84653374  1
  In  In12  1  0.51578405  0.35387627  0.81768001  1
  In  In13  1  -0.01104601  -0.01581794  0.34216998  1
  In  In14  1  -0.02289575  0.14650920  0.50789150  1
  In  In15  1  0.32688715  0.34908505  -0.02080817  1
  In  In16  1  0.68061073  -0.00827275  0.66862846  1
  In  In17  1  0.17876771  0.17154024  0.65516195  1
  In  In18  1  0.32925043  0.65827973  -0.00933112  1
  In  In19  1  -0.01790954  0.17972348  0.17970009  1
  In  In20  1  0.52231113  0.52828614  0.01500509  1
  In  In21  1  0.13811515  0.46413378  0.01213113  1
  In  In22  1  0.49023188  -0.00665655  0.86232421  1
  In  In23  1  0.83267422  0.14893600  0.66001971  1
  In  In24  1  -0.02568947  0.01782823  0.00983684  1
  In  In25  1  0.34505240  -0.00269095  -0.00694918  1
  In  In26  1  0.17166013  0.49741868  0.67316979  1
  In  In27  1  0.69909792  0.52353899  0.18293121  1
  In  In28  1  0.16106440  0.80956895  0.35011949  1
  In  In29  1  0.65257959  0.49281383  0.48264671  1
  In  In30  1  0.34195230  0.52841344  0.18059262  1
  In  In31  1  0.66446014  0.51625828  0.84958428  1
  In  In32  1  0.31941594  0.34332333  0.33268195  1
  In  In33  1  0.15246644  0.15886980  0.03168244  1
  In  In34  1  0.13674594  0.33256095  0.14120564  1
  In  In35  1  0.16705840  0.68263601  0.17767009  1
  In  In36  1  0.16984171  0.66882810  0.47020973  1
  In  In37  1  0.50301825  0.15279758  0.66454550  1
  In  In38  1  -0.01907672  0.17434255  0.84669045  1
  In  In39  1  0.49704488  0.31673245  0.15491383  1
  In  In40  1  0.49101493  0.52103604  0.31698982  1
  In  In41  1  0.80969003  0.13566375  -0.00570653  1
  In  In42  1  0.84276742  0.35891053  0.18549716  1
  In  In43  1  0.83169990  0.33760353  0.49219003  1
  In  In44  1  0.34261020  0.16210021  0.51843288  1
  In  In45  1  -0.01250969  0.35713661  0.00278712  1
  In  In46  1  -0.03252708  0.70168975  0.31864630  1
  In  In47  1  0.66323376  0.82739376  0.81933459  1
  In  In48  1  0.15067471  0.84248286  0.67714391  1
  In  In49  1  0.16425280  0.65718114  0.83623728  1
  In  In50  1  0.53126856  0.13667648  0.34134985  1
  In  In51  1  0.84146304  0.51057453  0.65918394  1
  In  In52  1  0.11481728  -0.01854713  0.81366689  1
  In  In53  1  0.67669609  0.31281138  0.67328745  1
  In  In54  1  0.33868283  -0.01606395  0.32299932  1
  In  In55  1  0.81563299  0.56423608  0.01862600  1
  In  In56  1  0.17739485  0.83223252  0.01164745  1
  In  In57  1  0.65149538  0.31985973  0.32349577  1
  In  In58  1  0.32930117  0.50371064  0.49547995  1
  In  In59  1  0.83328866  0.32196444  0.84481451  1
  In  In60  1  0.17141827  0.50947350  0.35424916  1
  In  In61  1  0.36274736  0.83904210  0.15429698  1
  In  In62  1  -0.01677285  0.67919872  0.66649362  1
  In  In63  1  0.83833277  0.83358066  0.33332624  1
  In  In64  1  0.52858464  0.15687881  0.01089011  1
  In  In65  1  0.35654709  0.67532543  0.65451254  1
  In  In66  1  0.66072497  -0.05325948  0.02697344  1
  In  In67  1  -0.02392582  0.83101812  0.17941011  1
  In  In68  1  0.17932261  0.33161951  0.82646516  1
  In  In69  1  0.81149782  0.14683985  0.34179399  1
  In  In70  1  0.00080076  0.52079298  0.81523737  1
  In  In71  1  -0.00285614  0.51179741  0.48225312  1
  Te  Te72  1  0.07218237  0.06569687  0.11567134  1
  Te  Te73  1  0.07670020  0.09225329  0.40436938  1
  Te  Te74  1  0.06999593  0.10806794  0.74071574  1
  Te  Te75  1  0.02884610  0.44800139  0.12607801  1
  Te  Te76  1  0.06677047  0.40571977  0.39594775  1
  Te  Te77  1  0.07429315  0.40573302  0.74508978  1
  Te  Te78  1  0.06897484  0.75345707  0.08605933  1
  Te  Te79  1  0.04824013  0.75630044  0.43746787  1
  Te  Te80  1  0.04902700  0.74535098  0.79111759  1
  Te  Te81  1  0.44099826  0.06397652  0.09158178  1
  Te  Te82  1  0.42107077  0.06308006  0.42667874  1
  Te  Te83  1  0.41304144  0.06359251  0.75121629  1
  Te  Te84  1  0.40901957  0.42938415  0.08325650  1
  Te  Te85  1  0.42409596  0.41868334  0.41170033  1
  Te  Te86  1  0.40451634  0.42006740  0.75121918  1
  Te  Te87  1  0.42691845  0.75137263  0.05191807  1
  Te  Te88  1  0.44827359  0.75369447  0.40170985  1
  Te  Te89  1  0.42253081  0.77324588  0.74024337  1
  Te  Te90  1  0.72289647  0.06596004  0.09392751  1
  Te  Te91  1  0.73197110  0.05415828  0.42194582  1
  Te  Te92  1  0.74397198  0.08830883  0.75953370  1
  Te  Te93  1  0.76538192  0.43227379  0.07823991  1
  Te  Te94  1  0.74851341  0.41622595  0.39317683  1
  Te  Te95  1  0.74692091  0.42472848  0.74982180  1
  Te  Te96  1  0.73449396  0.73249945  0.09639113  1
  Te  Te97  1  0.72734663  0.76179285  0.40085084  1
  Te  Te98  1  0.74945758  0.77875958  0.70570081  1
  Te  Te99  1  0.09663039  0.24141237  0.24693240  1
  Te  Te100  1  0.07191329  0.24704347  0.57905267  1
  Te  Te101  1  0.08969416  0.25793906  0.92544508  1
  Te  Te102  1  0.08234207  0.60602160  0.27610757  1
  Te  Te103  1  0.08460389  0.58751876  0.58687307  1
  Te  Te104  1  0.07438440  0.58065926  0.93270813  1
  Te  Te105  1  0.08563250  0.90247249  0.25541400  1
  Te  Te106  1  0.06885887  0.91028956  0.56896068  1
  Te  Te107  1  0.06934775  0.91804306  0.94422124  1
  Te  Te108  1  0.41998009  0.24449721  0.26464162  1
  Te  Te109  1  0.42882955  0.25523917  0.58920669  1
  Te  Te110  1  0.43218990  0.25148176  0.92757069  1
  Te  Te111  1  0.44809132  0.62120474  0.21691340  1
  Te  Te112  1  0.44028957  0.58512222  0.56326831  1
  Te  Te113  1  0.42665923  0.57484058  0.90757609  1
  Te  Te114  1  0.44901499  0.91883899  0.24712775  1
  Te  Te115  1  0.42119991  0.89688985  0.59731552  1
  Te  Te116  1  0.42713592  0.88485928  0.94113131  1
  Te  Te117  1  0.75623200  0.24944095  0.23817130  1
  Te  Te118  1  0.74741035  0.23524766  0.56454320  1
  Te  Te119  1  0.73947363  0.24660333  0.92627144  1
  Te  Te120  1  0.78143957  0.59296949  0.28125136  1
  Te  Te121  1  0.73855555  0.58046432  0.57389681  1
  Te  Te122  1  0.73992758  0.63008106  0.90935659  1
  Te  Te123  1  0.76558085  0.91168410  0.22744831  1
  Te  Te124  1  0.71820748  0.87585430  0.58135477  1
  Te  Te125  1  0.75465290  0.89782751  0.91746903  1
  Te  Te126  1  0.26817095  0.25268584  0.08166792  1
  Te  Te127  1  0.25210034  0.23776455  0.41789512  1
  Te  Te128  1  0.27529424  0.24773218  0.74495041  1
  Te  Te129  1  0.23000076  0.58011194  0.08217904  1
  Te  Te130  1  0.28459276  0.60429028  0.39151948  1
  Te  Te131  1  0.26622148  0.59000572  0.74512614  1
  Te  Te132  1  0.25500705  0.93018910  0.09688308  1
  Te  Te133  1  0.24251396  0.91263495  0.42907744  1
  Te  Te134  1  0.23831576  0.91712597  0.76665360  1
  Te  Te135  1  0.60870385  0.25642422  0.08317582  1
  Te  Te136  1  0.57678733  0.24672036  0.42507447  1
  Te  Te137  1  0.58824437  0.23151904  0.76610867  1
  Te  Te138  1  0.60822701  0.61251363  0.10205756  1
  Te  Te139  1  0.58953883  0.60140877  0.39895064  1
  Te  Te140  1  0.60035170  0.59587489  0.73683720  1
  Te  Te141  1  0.55808047  0.89053357  0.12140381  1
  Te  Te142  1  0.59840565  0.87452086  0.40680710  1
  Te  Te143  1  0.56977607  0.92513161  0.75148829  1
  Te  Te144  1  0.91250918  0.23708726  0.05731662  1
  Te  Te145  1  0.91209836  0.24133482  0.40684158  1
  Te  Te146  1  0.91360494  0.25549107  0.73684962  1
  Te  Te147  1  0.93513738  0.59963878  0.09257691  1
  Te  Te148  1  0.89518824  0.59640330  0.41189331  1
  Te  Te149  1  0.88716204  0.60893083  0.76374721  1
  Te  Te150  1  0.89290949  0.91519465  0.08673273  1
  Te  Te151  1  0.88161956  0.93568723  0.43216685  1
  Te  Te152  1  1.01912907  0.91212313  0.71954559  1
  Te  Te153  1  0.24713353  0.07619324  0.25534383  1
  Te  Te154  1  0.26523803  0.05914210  0.60159376  1
  Te  Te155  1  0.23629471  0.08684783  0.92571459  1
  Te  Te156  1  0.23460707  0.42530347  0.23643424  1
  Te  Te157  1  0.25450161  0.40602618  0.58376207  1
  Te  Te158  1  0.24313547  0.44707535  0.90079153  1
  Te  Te159  1  0.26945817  0.76268197  0.25230353  1
  Te  Te160  1  0.23882857  0.74534508  0.58347204  1
  Te  Te161  1  0.25456842  0.75943535  0.90324020  1
  Te  Te162  1  0.61213840  0.09100579  0.22770213  1
  Te  Te163  1  0.59099224  0.07115737  0.57157355  1
  Te  Te164  1  0.60796197  0.05830486  0.92834854  1
  Te  Te165  1  0.57969168  0.42659608  0.23219278  1
  Te  Te166  1  0.58780978  0.40272407  0.58654973  1
  Te  Te167  1  0.58984178  0.41635938  0.93518395  1
  Te  Te168  1  0.65386231  0.80244096  0.20183382  1
  Te  Te169  1  0.61786063  0.76631480  0.61551409  1
  Te  Te170  1  0.60298193  0.73296252  0.91703550  1
  Te  Te171  1  0.90349655  0.06989492  0.24749835  1
  Te  Te172  1  0.89866757  0.04429285  0.57807727  1
  Te  Te173  1  0.89468143  0.05802646  0.88625035  1
  Te  Te174  1  0.94468764  0.42721514  0.25972655  1
  Te  Te175  1  0.92873289  0.41605849  0.57909575  1
  Te  Te176  1  0.90363512  0.44110833  0.90847858  1
  Te  Te177  1  0.86451271  0.69164091  0.19573431  1
  Te  Te178  1  0.89066667  0.77679317  0.60265873  1
  Te  Te179  1  0.93782492  0.78114506  0.89647903  1
