# generated using pymatgen
data_In2Te3
_symmetry_space_group_name_H-M   'P 1'
_cell_length_a   18.74180039
_cell_length_b   18.73332565
_cell_length_c   18.73556777
_cell_angle_alpha   89.97729636
_cell_angle_beta   90.01798728
_cell_angle_gamma   89.96916177
_symmetry_Int_Tables_number   1
_chemical_formula_structural   In2Te3
_chemical_formula_sum   'In72 Te108'
_cell_volume   6577.98579453
_cell_formula_units_Z   36
loop_
 _symmetry_equiv_pos_site_id
 _symmetry_equiv_pos_as_xyz
  1  'x, y, z'
loop_
 _atom_site_type_symbol
 _atom_site_label
 _atom_site_symmetry_multiplicity
 _atom_site_fract_x
 _atom_site_fract_y
 _atom_site_fract_z
 _atom_site_occupancy
  In  In0  1  0.18488747  0.82733685  0.32371430  1
  In  In1  1  0.85921275  0.14741819  -0.02947469  1
  In  In2  1  0.02250330  0.66496685  0.33063060  1
  In  In3  1  0.82566938  0.31661597  0.49865587  1
  In  In4  1  0.82392868  0.67472384  0.52601752  1
  In  In5  1  0.64252654  0.67137894  0.01075261  1
  In  In6  1  0.85430699  0.51775735  -0.00366935  1
  In  In7  1  0.86686635  0.86053081  0.68554838  1
  In  In8  1  0.02627442  0.33368225  0.02382839  1
  In  In9  1  0.83097464  0.64408234  0.16952716  1
  In  In10  1  0.16502624  0.86052954  0.64736740  1
  In  In11  1  0.17991298  0.67308098  0.49552054  1
  In  In12  1  0.34903679  0.84850114  0.51137734  1
  In  In13  1  0.66004808  0.33875171  -0.00821489  1
  In  In14  1  0.64471739  0.02441140  0.63928457  1
  In  In15  1  0.47032413  0.67314900  0.83548632  1
  In  In16  1  0.35473895  0.31852965  0.64526864  1
  In  In17  1  0.80956618  0.36374577  0.81617430  1
  In  In18  1  0.86061639  0.33653128  0.20427071  1
  In  In19  1  0.80217870  0.51111657  0.67100331  1
  In  In20  1  0.47629026  0.52887968  0.00443398  1
  In  In21  1  0.84374639  -0.00605762  0.49030810  1
  In  In22  1  0.33908842  0.00109904  0.33788572  1
  In  In23  1  0.01542979  0.14849533  0.16708098  1
  In  In24  1  -0.00540931  0.49498471  0.49585162  1
  In  In25  1  0.46384214  0.82760516  0.01481395  1
  In  In26  1  0.82604643  0.48832739  0.31349227  1
  In  In27  1  0.66008218  0.13575966  0.16821855  1
  In  In28  1  0.35119160  0.31718579  0.37221501  1
  In  In29  1  0.64016314  0.84525227  0.50114786  1
  In  In30  1  0.02215552  0.31651402  0.65983305  1
  In  In31  1  0.48955996  -0.01035150  0.18242291  1
  In  In32  1  0.32481367  0.50818203  0.48954104  1
  In  In33  1  0.16340161  0.15279406  0.01384832  1
  In  In34  1  0.82869825  0.15174815  0.65547665  1
  In  In35  1  0.47529071  0.68596357  0.17829800  1
  In  In36  1  0.49486321  0.32604307  0.81503045  1
  In  In37  1  0.83677137  0.84743246  0.35340729  1
  In  In38  1  0.32971623  0.51302956  0.16303683  1
  In  In39  1  0.01135552  0.52391461  0.86005774  1
  In  In40  1  0.00707962  0.68978884  0.66981630  1
  In  In41  1  0.66212550  -0.01512100  0.35413653  1
  In  In42  1  0.65391903  0.16369373  0.80223740  1
  In  In43  1  0.85307564  0.68859452  0.85795465  1
  In  In44  1  0.20358519  0.13732027  0.63575471  1
  In  In45  1  0.66125528  0.85194267  0.79993943  1
  In  In46  1  0.68538775  0.48387919  0.80758481  1
  In  In47  1  0.20288715  0.30713343  0.50082715  1
  In  In48  1  0.62879374  0.30654469  0.35966997  1
  In  In49  1  0.68114810  0.01057723  -0.01061404  1
  In  In50  1  0.31581188  0.16040181  0.18396046  1
  In  In51  1  0.01701548  0.69450482  0.00770746  1
  In  In52  1  0.48815743  0.34836653  0.18446032  1
  In  In53  1  0.65132154  0.67750773  0.65206383  1
  In  In54  1  0.83115909  0.15539946  0.32345792  1
  In  In55  1  -0.00886270  0.31710491  0.31922323  1
  In  In56  1  0.32537255  0.83114829  0.83780584  1
  In  In57  1  0.67866850  0.47038779  0.19412652  1
  In  In58  1  0.15877210  -0.01740053  0.84213850  1
  In  In59  1  0.00549191  0.15277535  0.82665504  1
  In  In60  1  0.15191622  0.33366436  0.17379464  1
  In  In61  1  0.49663672  0.48824265  0.64611476  1
  In  In62  1  0.19695176  0.36490091  0.84578563  1
  In  In63  1  0.19224885  0.52940541  0.70756236  1
  In  In64  1  0.86418194  0.83390896  0.00226258  1
  In  In65  1  0.48851649  0.16616427  -0.01098960  1
  In  In66  1  0.17037176  0.50240981  0.33279531  1
  In  In67  1  0.65398932  0.83560570  0.19035379  1
  In  In68  1  0.29878940  -0.02945695  0.00601734  1
  In  In69  1  0.02075720  0.84827107  0.18347926  1
  In  In70  1  0.35129486  0.15218033  0.79137188  1
  In  In71  1  0.49046083  0.66663208  0.48824397  1
  Te  Te72  1  0.07634511  0.04962874  0.07269081  1
  Te  Te73  1  0.05514177  0.05608339  0.47141902  1
  Te  Te74  1  0.09929942  0.07763591  0.73439168  1
  Te  Te75  1  0.10956632  0.44528730  0.07696653  1
  Te  Te76  1  0.08983642  0.40001227  0.42337330  1
  Te  Te77  1  0.07869082  0.42566343  0.75393701  1
  Te  Te78  1  0.11494206  0.77473044  0.08975463  1
  Te  Te79  1  0.08132596  0.76714787  0.42639775  1
  Te  Te80  1  0.11317575  0.75914816  0.74643029  1
  Te  Te81  1  0.40647857  0.07479744  0.08299265  1
  Te  Te82  1  0.39872613  0.09578343  0.44274121  1
  Te  Te83  1  0.44067455  0.06806865  0.70983749  1
  Te  Te84  1  0.40713597  0.40873424  0.07252650  1
  Te  Te85  1  0.43308543  0.41643453  0.44673311  1
  Te  Te86  1  0.39887040  0.42489764  0.74782860  1
  Te  Te87  1  0.37775809  0.72094791  0.06951919  1
  Te  Te88  1  0.40722218  0.75924530  0.40793340  1
  Te  Te89  1  0.42154456  0.77328324  0.73884763  1
  Te  Te90  1  0.77656499  0.08027778  0.08719592  1
  Te  Te91  1  0.74060462  0.09220319  0.42973713  1
  Te  Te92  1  0.75386710  0.06045895  0.75192384  1
  Te  Te93  1  0.76294193  0.41569136  0.07577866  1
  Te  Te94  1  0.73942158  0.40520042  0.40993329  1
  Te  Te95  1  0.70967267  0.37816436  0.69413460  1
  Te  Te96  1  0.75348469  0.74935086  0.08335049  1
  Te  Te97  1  0.73878874  0.75365118  0.42474978  1
  Te  Te98  1  0.76273188  0.74308319  0.73926071  1
  Te  Te99  1  0.10225901  0.22253667  0.26976779  1
  Te  Te100  1  0.08909829  0.22092504  0.56484250  1
  Te  Te101  1  0.09174228  0.25196891  0.90965131  1
  Te  Te102  1  0.12261517  0.60819034  0.23889552  1
  Te  Te103  1  0.08566135  0.58185989  0.58347939  1
  Te  Te104  1  0.11339500  0.61626296  0.91577097  1
  Te  Te105  1  0.10687179  0.94297355  0.26413198  1
  Te  Te106  1  0.06131170  0.95050695  0.57245021  1
  Te  Te107  1  0.07217815  0.90280747  0.93017487  1
  Te  Te108  1  0.42593419  0.23304957  0.26137538  1
  Te  Te109  1  0.40749101  0.22065013  0.54482189  1
  Te  Te110  1  0.39547839  0.25303488  0.90637646  1
  Te  Te111  1  0.42012996  0.57601985  0.26143125  1
  Te  Te112  1  0.40008698  0.59296639  0.59266554  1
  Te  Te113  1  0.37457329  0.57805997  0.90410326  1
  Te  Te114  1  0.39858020  0.89176632  0.24935395  1
  Te  Te115  1  0.40057177  0.95822637  0.60298536  1
  Te  Te116  1  0.41652558  0.93224139  0.91521163  1
  Te  Te117  1  0.73360557  0.25619752  0.24712993  1
  Te  Te118  1  0.73302887  0.22416146  0.56880773  1
  Te  Te119  1  0.74466550  0.23953033  0.91082432  1
  Te  Te120  1  0.72498221  0.59831132  0.26794095  1
  Te  Te121  1  0.70901648  0.56683619  0.55391032  1
  Te  Te122  1  0.74121060  0.58768332  0.91762891  1
  Te  Te123  1  0.75826826  0.92964608  0.24764957  1
  Te  Te124  1  0.74893390  0.91191318  0.58942166  1
  Te  Te125  1  0.75541434  0.90204537  0.91108833  1
  Te  Te126  1  0.25118573  0.25663654  0.08319349  1
  Te  Te127  1  0.24688931  0.21138445  0.39716349  1
  Te  Te128  1  0.24112325  0.25503934  0.73865288  1
  Te  Te129  1  0.22498916  0.55779109  0.06638365  1
  Te  Te130  1  0.26843996  0.60956022  0.38925511  1
  Te  Te131  1  0.26535482  0.63326654  0.78299923  1
  Te  Te132  1  0.24254102  0.87856978  0.10755172  1
  Te  Te133  1  0.23804882  0.92426087  0.43263476  1
  Te  Te134  1  0.26233522  0.93478334  0.74145906  1
  Te  Te135  1  0.57803731  0.25017059  0.08817858  1
  Te  Te136  1  0.54857281  0.23239757  0.46466939  1
  Te  Te137  1  0.55818549  0.23699187  0.71495880  1
  Te  Te138  1  0.58699948  0.56547892  0.10574096  1
  Te  Te139  1  0.60335625  0.58605125  0.44237463  1
  Te  Te140  1  0.57652275  0.58557999  0.75145195  1
  Te  Te141  1  0.58583680  0.91788617  0.07734052  1
  Te  Te142  1  0.54478216  0.91696268  0.41278428  1
  Te  Te143  1  0.56086962  0.94161964  0.73454295  1
  Te  Te144  1  0.91560097  0.24522529  0.08377341  1
  Te  Te145  1  0.92423919  0.22758895  0.42441487  1
  Te  Te146  1  0.90910205  0.24996215  0.75124868  1
  Te  Te147  1  0.95057429  0.58525111  0.09314100  1
  Te  Te148  1  0.90486419  0.59224465  0.41908771  1
  Te  Te149  1  0.91442473  0.58388378  0.74917704  1
  Te  Te150  1  0.92974682  0.92843722  0.09463013  1
  Te  Te151  1  0.94835606  0.94105754  0.39355898  1
  Te  Te152  1  0.95409701  0.93671969  0.77598726  1
  Te  Te153  1  0.23251204  0.04961279  0.23977898  1
  Te  Te154  1  0.28534309  0.04899265  0.54521322  1
  Te  Te155  1  0.25815723  0.09185137  0.90821064  1
  Te  Te156  1  0.26500912  0.40198426  0.26194815  1
  Te  Te157  1  0.24014444  0.42529771  0.59278990  1
  Te  Te158  1  0.25306254  0.45668699  0.94580658  1
  Te  Te159  1  0.28142061  0.77530968  0.22046468  1
  Te  Te160  1  0.26145248  0.75166782  0.59557304  1
  Te  Te161  1  0.21989428  0.73935218  0.89143693  1
  Te  Te162  1  0.56647039  0.08456506  0.27500744  1
  Te  Te163  1  0.56348852  0.09113334  0.53444026  1
  Te  Te164  1  0.57367765  0.07523215  0.90090363  1
  Te  Te165  1  0.56434819  0.42836282  0.28885262  1
  Te  Te166  1  0.58926576  0.38622254  0.59603132  1
  Te  Te167  1  0.56814855  0.43050573  0.91184306  1
  Te  Te168  1  0.56583798  0.75433718  0.27381363  1
  Te  Te169  1  0.54707974  0.77171948  0.59810070  1
  Te  Te170  1  0.58036501  0.76503162  0.90748183  1
  Te  Te171  1  0.93290064  0.06746034  0.26244777  1
  Te  Te172  1  0.93541646  0.06436014  0.59091088  1
  Te  Te173  1  0.93444067  0.03785302  0.89798995  1
  Te  Te174  1  0.95756695  0.44755240  0.24424114  1
  Te  Te175  1  0.90903094  0.41424497  0.59453825  1
  Te  Te176  1  0.92380347  0.40312491  0.91609731  1
  Te  Te177  1  0.91056725  0.74864781  0.25083879  1
  Te  Te178  1  0.92948311  0.77789986  0.57092101  1
  Te  Te179  1  0.96914981  0.79008717  0.88718697  1
