# generated using pymatgen
data_In2Te3
_symmetry_space_group_name_H-M   'P 1'
_cell_length_a   18.76793937
_cell_length_b   18.76983088
_cell_length_c   18.79009585
_cell_angle_alpha   90.07132319
_cell_angle_beta   89.86957671
_cell_angle_gamma   89.98273746
_symmetry_Int_Tables_number   1
_chemical_formula_structural   In2Te3
_chemical_formula_sum   'In72 Te108'
_cell_volume   6619.18417587
_cell_formula_units_Z   36
loop_
 _symmetry_equiv_pos_site_id
 _symmetry_equiv_pos_as_xyz
  1  'x, y, z'
loop_
 _atom_site_type_symbol
 _atom_site_label
 _atom_site_symmetry_multiplicity
 _atom_site_fract_x
 _atom_site_fract_y
 _atom_site_fract_z
 _atom_site_occupancy
  In  In0  1  0.47772987  0.85368623  0.67360812  1
  In  In1  1  -0.00106190  0.81553173  0.17475994  1
  In  In2  1  0.50348384  0.49699287  0.35174828  1
  In  In3  1  0.66549079  0.85916257  0.49377662  1
  In  In4  1  0.34989815  0.15656094  0.83395263  1
  In  In5  1  0.33421471  0.67888522  0.68398954  1
  In  In6  1  0.17542771  0.46639191  0.66427713  1
  In  In7  1  0.66523246  0.31946622  0.34881981  1
  In  In8  1  0.50861322  0.65620234  0.49743015  1
  In  In9  1  0.18103440  0.65522445  0.17824495  1
  In  In10  1  -0.02333552  0.82213024  0.80566688  1
  In  In11  1  0.13867247  0.83698391  0.64426666  1
  In  In12  1  0.49639703  0.81786673  -0.00518536  1
  In  In13  1  0.84305565  0.16537973  0.68043041  1
  In  In14  1  0.34594580  0.48245903  0.49404432  1
  In  In15  1  0.16482325  0.86296681  0.01652757  1
  In  In16  1  0.02386405  0.85424065  0.47371689  1
  In  In17  1  0.17064659  0.32157450  0.18577380  1
  In  In18  1  0.00644548  0.18467882  0.16599971  1
  In  In19  1  0.82926223  0.67148266  0.48687510  1
  In  In20  1  0.15559124  0.68403158  0.49213688  1
  In  In21  1  0.34617007  0.65657608  0.01081039  1
  In  In22  1  0.34633441  0.83920479  0.84325591  1
  In  In23  1  -0.00509848  0.00510406  0.33471429  1
  In  In24  1  0.81894205  0.49817781  0.66416532  1
  In  In25  1  0.82487284  -0.00350974  0.17432704  1
  In  In26  1  0.84786288  0.47724771  0.30521232  1
  In  In27  1  -0.00057034  0.17250991  0.48082938  1
  In  In28  1  0.17914447  0.30492170  0.47223298  1
  In  In29  1  0.19433622  0.03471402  0.20238928  1
  In  In30  1  0.65336460  0.83877025  0.83360611  1
  In  In31  1  0.15481019  0.49696979  0.31358374  1
  In  In32  1  0.16595488  0.16362877  0.65249196  1
  In  In33  1  0.67771207  0.19079829  0.83090192  1
  In  In34  1  0.48024723  0.35356331  0.13896393  1
  In  In35  1  0.84150536  0.65973546  0.16335312  1
  In  In36  1  0.67839865  0.48631721  0.14972796  1
  In  In37  1  0.16736311  0.00891470  0.81724016  1
  In  In38  1  0.16061963  0.19699683  0.00310391  1
  In  In39  1  0.66920123  0.83008366  0.17628029  1
  In  In40  1  0.67249958  -0.00425180  -0.01109871  1
  In  In41  1  0.15263600  0.63713243  0.88035328  1
  In  In42  1  0.80270821  0.03253752  0.46902218  1
  In  In43  1  0.51405550  0.32622393  0.82887500  1
  In  In44  1  0.51992117  0.46978946  0.67790920  1
  In  In45  1  0.48447024  0.00415824  0.19130877  1
  In  In46  1  0.34531982  0.49663802  0.85065042  1
  In  In47  1  -0.00616443  0.62521199  0.01460300  1
  In  In48  1  0.34476326  0.67039723  0.32694550  1
  In  In49  1  0.33559618  0.01584348  0.64870316  1
  In  In50  1  0.67405562  0.66618643  0.66608751  1
  In  In51  1  0.81876591  0.82713597  0.01306755  1
  In  In52  1  0.84568446  0.19912592  0.00232980  1
  In  In53  1  0.49946321  0.16043321  0.33004162  1
  In  In54  1  -0.01475105  0.48974834  0.49010524  1
  In  In55  1  0.83614229  0.86541023  0.63070057  1
  In  In56  1  0.14891174  0.48590866  0.02040532  1
  In  In57  1  0.66865451  0.34227458  0.64894896  1
  In  In58  1  0.81094504  0.66114253  0.84419749  1
  In  In59  1  0.66692763  0.48348198  0.84942176  1
  In  In60  1  -0.00792910  0.65555106  0.67617673  1
  In  In61  1  0.50840112  0.17328063  0.01668726  1
  In  In62  1  0.30613236  0.88537695  0.46975094  1
  In  In63  1  0.48008850  0.29982232  0.51049619  1
  In  In64  1  0.83223561  0.30782293  0.49368862  1
  In  In65  1  0.01134426  0.18468298  0.83853201  1
  In  In66  1  0.65667727  0.19124266  0.17420682  1
  In  In67  1  -0.00802755  0.03094163  -0.02101055  1
  In  In68  1  0.51123452  0.65244909  0.15415739  1
  In  In69  1  0.15094566  0.33171379  0.84135010  1
  In  In70  1  0.51286883  0.84909000  0.34446790  1
  In  In71  1  0.35023350  -0.00488333  0.01226143  1
  Te  Te72  1  0.09420600  0.07657828  0.08325363  1
  Te  Te73  1  0.09935325  0.07664716  0.41855764  1
  Te  Te74  1  0.06475372  0.08265360  0.73519109  1
  Te  Te75  1  0.06742846  0.42346719  0.13222497  1
  Te  Te76  1  0.07816519  0.40234941  0.40682318  1
  Te  Te77  1  0.06760711  0.40085739  0.74032503  1
  Te  Te78  1  0.09083550  0.73924120  0.07140007  1
  Te  Te79  1  0.08629396  0.75479931  0.38382123  1
  Te  Te80  1  0.10081981  0.73689020  0.75507283  1
  Te  Te81  1  0.40494787  0.10324265  0.10565031  1
  Te  Te82  1  0.39602775  0.10728245  0.42910382  1
  Te  Te83  1  0.43675571  0.08357224  0.73667704  1
  Te  Te84  1  0.36552405  0.42851954  0.08645178  1
  Te  Te85  1  0.41232252  0.38257301  0.39916741  1
  Te  Te86  1  0.40336706  0.40080391  0.74560009  1
  Te  Te87  1  0.40982801  0.75876157  0.10549362  1
  Te  Te88  1  0.41473291  0.75760165  0.43240068  1
  Te  Te89  1  0.44051097  0.74062208  0.77360275  1
  Te  Te90  1  0.75051786  0.09311548  0.07841251  1
  Te  Te91  1  0.72188949  0.12546165  0.38851094  1
  Te  Te92  1  0.73872056  0.08372074  0.74963828  1
  Te  Te93  1  0.78027631  0.43487344  0.05170647  1
  Te  Te94  1  0.75906726  0.41925965  0.41752561  1
  Te  Te95  1  0.75724202  0.39729600  0.76122873  1
  Te  Te96  1  0.72794222  0.72624081  0.07897122  1
  Te  Te97  1  0.73633588  0.75814186  0.41141401  1
  Te  Te98  1  0.77210398  0.76206245  0.73346142  1
  Te  Te99  1  0.10033272  0.22250712  0.27277359  1
  Te  Te100  1  0.07625113  0.26197273  0.57923903  1
  Te  Te101  1  0.03962223  0.28760432  0.96001531  1
  Te  Te102  1  0.06460418  0.58936713  0.24138178  1
  Te  Te103  1  0.08783532  0.57532742  0.58018126  1
  Te  Te104  1  0.04653329  0.52281217  0.90425690  1
  Te  Te105  1  0.08297920  0.92814042  0.23432324  1
  Te  Te106  1  0.08386240  0.94959669  0.56953908  1
  Te  Te107  1  0.07591573  0.91352930  0.90075546  1
  Te  Te108  1  0.43015418  0.24926507  0.23318350  1
  Te  Te109  1  0.44039055  0.21219966  0.62252344  1
  Te  Te110  1  0.41538316  0.25664233  0.92660674  1
  Te  Te111  1  0.42002244  0.56735330  0.24504291  1
  Te  Te112  1  0.41697665  0.57790599  0.59448177  1
  Te  Te113  1  0.43932786  0.58737066  0.91915908  1
  Te  Te114  1  0.40119423  0.91585882  0.27487447  1
  Te  Te115  1  0.42864861  0.93576126  0.55318343  1
  Te  Te116  1  0.44352638  0.93645538  0.90786852  1
  Te  Te117  1  0.76099934  0.27347213  0.24239541  1
  Te  Te118  1  0.73984538  0.22478211  0.58213972  1
  Te  Te119  1  0.74933608  0.28053548  0.92425263  1
  Te  Te120  1  0.74430049  0.57831140  0.25146947  1
  Te  Te121  1  0.73619554  0.57356086  0.56228312  1
  Te  Te122  1  0.76151185  0.55879055  0.94064146  1
  Te  Te123  1  0.75008874  0.91178590  0.26917616  1
  Te  Te124  1  0.72223512  0.96579606  0.59556634  1
  Te  Te125  1  0.76977329  0.91721008  0.90025327  1
  Te  Te126  1  0.26364237  0.24874616  0.09270254  1
  Te  Te127  1  0.28609425  0.21932189  0.40817559  1
  Te  Te128  1  0.24406441  0.23975529  0.76041112  1
  Te  Te129  1  0.26963294  0.55318338  0.09771508  1
  Te  Te130  1  0.25145951  0.57888088  0.42241864  1
  Te  Te131  1  0.24377444  0.57593433  0.75439471  1
  Te  Te132  1  0.26443998  0.92050594  0.11406529  1
  Te  Te133  1  0.21119629  0.96612499  0.38979304  1
  Te  Te134  1  0.25668770  0.91041966  0.74036679  1
  Te  Te135  1  0.60212827  0.28203254  0.06648102  1
  Te  Te136  1  0.59975331  0.21314700  0.44033737  1
  Te  Te137  1  0.57221653  0.23988195  0.71485617  1
  Te  Te138  1  0.57179496  0.54928331  0.06587148  1
  Te  Te139  1  0.60392986  0.58972739  0.40776590  1
  Te  Te140  1  0.58778096  0.58086464  0.75778240  1
  Te  Te141  1  0.57799230  0.92259077  0.08655715  1
  Te  Te142  1  0.58536286  0.96498690  0.41793133  1
  Te  Te143  1  0.57819086  0.93225410  0.74928274  1
  Te  Te144  1  0.88956105  0.27429344  0.12831994  1
  Te  Te145  1  0.91939695  0.25371756  0.38726406  1
  Te  Te146  1  0.91830830  0.26709092  0.75881192  1
  Te  Te147  1  0.89435484  0.53629449  0.08753794  1
  Te  Te148  1  0.92019852  0.58742321  0.39618229  1
  Te  Te149  1  0.90844010  0.56798722  0.76643907  1
  Te  Te150  1  0.92405338  0.92263606  0.07284961  1
  Te  Te151  1  0.89833354  0.91988454  0.41712354  1
  Te  Te152  1  0.92335995  0.93448891  0.72907147  1
  Te  Te153  1  0.28952719  0.08990856  0.30742894  1
  Te  Te154  1  0.26363726  0.10687487  0.55404925  1
  Te  Te155  1  0.24520879  0.07814536  0.92847113  1
  Te  Te156  1  0.26337452  0.41314030  0.26015549  1
  Te  Te157  1  0.26640107  0.38059928  0.57667618  1
  Te  Te158  1  0.24926889  0.40734071  0.93030395  1
  Te  Te159  1  0.24394300  0.75797163  0.26397242  1
  Te  Te160  1  0.26194828  0.76195298  0.57729463  1
  Te  Te161  1  0.25178855  0.75622139  0.92902567  1
  Te  Te162  1  0.60800518  0.07082685  0.25312826  1
  Te  Te163  1  0.58126010  0.02232066  0.55868683  1
  Te  Te164  1  0.58465511  0.09378367  0.91185236  1
  Te  Te165  1  0.58342040  0.40838344  0.25109614  1
  Te  Te166  1  0.57792024  0.41481818  0.54947881  1
  Te  Te167  1  0.56052967  0.42142648  0.93344485  1
  Te  Te168  1  0.58007668  0.73941028  0.26160482  1
  Te  Te169  1  0.58261291  0.76400055  0.59211043  1
  Te  Te170  1  0.60204872  0.73859968  0.92814547  1
  Te  Te171  1  0.90699848  0.09727284  0.25239081  1
  Te  Te172  1  0.90949640  0.08341770  0.56559826  1
  Te  Te173  1  0.89080663  0.09827120  0.89304036  1
  Te  Te174  1  0.94967300  0.39518424  0.23267314  1
  Te  Te175  1  0.91119857  0.40224601  0.58903405  1
  Te  Te176  1  0.94895968  0.40955032  0.95550175  1
  Te  Te177  1  0.88943796  0.76419127  0.25743714  1
  Te  Te178  1  0.93167043  0.75134330  0.57418718  1
  Te  Te179  1  0.92381653  0.73988206  0.92539085  1
