# generated using pymatgen
data_In2Te3
_symmetry_space_group_name_H-M   'P 1'
_cell_length_a   18.88493025
_cell_length_b   18.87451872
_cell_length_c   18.87474458
_cell_angle_alpha   89.92622967
_cell_angle_beta   90.06062671
_cell_angle_gamma   90.01006912
_symmetry_Int_Tables_number   1
_chemical_formula_structural   In2Te3
_chemical_formula_sum   'In72 Te108'
_cell_volume   6727.77943681
_cell_formula_units_Z   36
loop_
 _symmetry_equiv_pos_site_id
 _symmetry_equiv_pos_as_xyz
  1  'x, y, z'
loop_
 _atom_site_type_symbol
 _atom_site_label
 _atom_site_symmetry_multiplicity
 _atom_site_fract_x
 _atom_site_fract_y
 _atom_site_fract_z
 _atom_site_occupancy
  In  In0  1  0.83336180  0.64817990  0.50694868  1
  In  In1  1  0.17705392  0.00641946  0.83578470  1
  In  In2  1  0.67841103  0.16562670  0.52076946  1
  In  In3  1  0.02505702  0.64946732  0.00209057  1
  In  In4  1  0.50152779  0.53505524  0.35710036  1
  In  In5  1  0.16400151  0.17819405  0.33586800  1
  In  In6  1  0.85187228  0.19348355  0.68300639  1
  In  In7  1  0.82499054  0.63557160  0.85237692  1
  In  In8  1  0.17842877  0.66205438  0.17170181  1
  In  In9  1  0.82735895  0.83898914  -0.00733075  1
  In  In10  1  0.67603972  0.67942684  0.67264987  1
  In  In11  1  0.32365815  0.66592694  0.00354489  1
  In  In12  1  0.31606757  0.81942066  0.85882812  1
  In  In13  1  0.65725918  0.19854168  0.84303165  1
  In  In14  1  0.01821791  0.48687663  0.82972459  1
  In  In15  1  0.48298012  -0.00138347  0.81466949  1
  In  In16  1  0.48508925  0.80979306  0.33900651  1
  In  In17  1  0.33949062  0.01676256  0.66380968  1
  In  In18  1  0.84166271  0.36017812  0.48156067  1
  In  In19  1  0.02957416  0.18126877  0.51124097  1
  In  In20  1  0.67253452  -0.03465052  0.33183456  1
  In  In21  1  0.83239162  0.33444811  0.12965310  1
  In  In22  1  0.51018996  -0.02069851  0.19362571  1
  In  In23  1  0.49979820  0.62483181  0.13077563  1
  In  In24  1  0.03001095  0.83308230  0.47034152  1
  In  In25  1  0.52862701  0.80604737  -0.02122866  1
  In  In26  1  0.01027950  -0.01124703  0.61803436  1
  In  In27  1  0.49348124  0.34911049  0.53531548  1
  In  In28  1  0.31740609  0.64680458  0.67629794  1
  In  In29  1  0.83670873  0.78398680  0.69323907  1
  In  In30  1  0.00214188  0.51831097  0.17678113  1
  In  In31  1  0.84483641  0.15040617  0.30288887  1
  In  In32  1  0.18004033  0.38050516  0.19012788  1
  In  In33  1  0.00777161  0.83610390  0.82043613  1
  In  In34  1  0.45336848  0.37056223  0.14921634  1
  In  In35  1  0.83502407  0.34552896  0.84427399  1
  In  In36  1  0.63951641  0.34751323  0.33863703  1
  In  In37  1  0.48778226  0.17704204  0.31547675  1
  In  In38  1  0.48704674  0.32932162  0.83992448  1
  In  In39  1  0.82904379  -0.02855493  0.50474051  1
  In  In40  1  0.85064503  0.80229385  0.35257577  1
  In  In41  1  0.69007020  0.17394105  0.14843560  1
  In  In42  1  0.30443388  0.34537604  0.65791117  1
  In  In43  1  0.82449186  0.51240759  0.32306102  1
  In  In44  1  0.16659648  -0.01636149  0.16022994  1
  In  In45  1  0.85486356  0.00904151  0.16008496  1
  In  In46  1  0.65978346  0.34654172  -0.00096165  1
  In  In47  1  0.32442254  0.18920446  0.13983009  1
  In  In48  1  0.47406078  0.80054251  0.65937264  1
  In  In49  1  0.15979183  0.18406255  0.67335638  1
  In  In50  1  0.67760844  0.81857757  0.48717110  1
  In  In51  1  0.00967487  0.32632106  0.33449189  1
  In  In52  1  0.33571909  -0.00630665  0.33420768  1
  In  In53  1  0.01176718  0.66623910  0.65819250  1
  In  In54  1  0.84677889  -0.01871300  0.84908166  1
  In  In55  1  0.01179632  0.00041675  0.00048268  1
  In  In56  1  0.00341481  0.33043074  0.00405584  1
  In  In57  1  0.01915648  0.17598825  0.84486685  1
  In  In58  1  0.18393709  0.81271113  0.32119351  1
  In  In59  1  0.31953719  0.00106610  0.02036503  1
  In  In60  1  0.65532210  0.82019171  0.16699340  1
  In  In61  1  0.30906306  0.17361393  0.47967149  1
  In  In62  1  0.31830283  0.50845708  0.47718440  1
  In  In63  1  0.49885489  0.17706421  -0.00626266  1
  In  In64  1  0.83708222  0.67666126  0.17126846  1
  In  In65  1  0.50757970  0.51651036  0.65872196  1
  In  In66  1  0.32873626  0.81627231  0.50248091  1
  In  In67  1  0.66080608  -0.00108108  0.69197766  1
  In  In68  1  0.65671232  0.48675102  0.84120302  1
  In  In69  1  0.01978611  0.50137523  0.48801874  1
  In  In70  1  0.50579374  0.17234802  0.69329826  1
  In  In71  1  0.32890469  0.50928691  0.85042115  1
  Te  Te72  1  0.11711319  0.08589440  0.06180143  1
  Te  Te73  1  0.09079757  0.08343243  0.42300248  1
  Te  Te74  1  0.06564431  0.07066581  0.74208462  1
  Te  Te75  1  0.08588848  0.43703663  0.08126106  1
  Te  Te76  1  0.10847655  0.40586627  0.41153166  1
  Te  Te77  1  0.06553709  0.39111020  0.72609709  1
  Te  Te78  1  0.07957164  0.74463583  0.09826579  1
  Te  Te79  1  0.10867120  0.72353433  0.41367033  1
  Te  Te80  1  0.09771060  0.74923384  0.74439571  1
  Te  Te81  1  0.43343390  0.08218651  0.10198035  1
  Te  Te82  1  0.42133883  0.08653559  0.41904448  1
  Te  Te83  1  0.39056824  0.11124921  0.77257618  1
  Te  Te84  1  0.36633085  0.45724725  0.05931287  1
  Te  Te85  1  0.42257084  0.41406633  0.42085301  1
  Te  Te86  1  0.41584368  0.42286216  0.74030902  1
  Te  Te87  1  0.42963810  0.75111815  0.07847905  1
  Te  Te88  1  0.38207603  0.72101231  0.39962524  1
  Te  Te89  1  0.40459917  0.72868535  0.77338808  1
  Te  Te90  1  0.74869942  0.06327661  0.07386194  1
  Te  Te91  1  0.74843123  0.07298631  0.41596102  1
  Te  Te92  1  0.75075429  0.10450169  0.75807613  1
  Te  Te93  1  0.72317682  0.42902769  0.10571659  1
  Te  Te94  1  0.72821087  0.44149429  0.41868457  1
  Te  Te95  1  0.75265035  0.42217423  0.75032837  1
  Te  Te96  1  0.73979601  0.74165452  0.06890271  1
  Te  Te97  1  0.72613288  0.71112692  0.39186043  1
  Te  Te98  1  0.73063989  0.75283581  0.80412229  1
  Te  Te99  1  0.09089141  0.25675086  0.22753653  1
  Te  Te100  1  0.08742240  0.28927077  0.59266148  1
  Te  Te101  1  0.10278101  0.27971499  0.90575252  1
  Te  Te102  1  0.09558087  0.58249623  0.27280012  1
  Te  Te103  1  0.10616042  0.58846367  0.57450516  1
  Te  Te104  1  0.11080010  0.57591014  0.90567315  1
  Te  Te105  1  0.08884367  0.90541319  0.25643679  1
  Te  Te106  1  0.10589312  0.88303125  0.58807193  1
  Te  Te107  1  0.09972288  0.90570759  0.91991205  1
  Te  Te108  1  0.38996505  0.27287691  0.25175357  1
  Te  Te109  1  0.40372519  0.23736397  0.59142900  1
  Te  Te110  1  0.39312382  0.25930069  0.93179707  1
  Te  Te111  1  0.40823471  0.57081821  0.24106408  1
  Te  Te112  1  0.41108064  0.59004133  0.56924099  1
  Te  Te113  1  0.42424728  0.59787925  0.91825782  1
  Te  Te114  1  0.39651837  0.89300776  0.23924184  1
  Te  Te115  1  0.41793557  0.91782481  0.57934202  1
  Te  Te116  1  0.41588199  0.91840395  0.92526264  1
  Te  Te117  1  0.74350373  0.26316375  0.26263512  1
  Te  Te118  1  0.76274986  0.27144048  0.58682400  1
  Te  Te119  1  0.76177272  0.25040966  0.93962805  1
  Te  Te120  1  0.73746354  0.58282441  0.22859738  1
  Te  Te121  1  0.75764372  0.57519803  0.60850781  1
  Te  Te122  1  0.73231682  0.56393823  0.94714639  1
  Te  Te123  1  0.76959004  0.88998458  0.24478285  1
  Te  Te124  1  0.73918429  0.89675262  0.60569338  1
  Te  Te125  1  0.73180495  0.92492678  0.91852116  1
  Te  Te126  1  0.23549648  0.29167755  0.08122926  1
  Te  Te127  1  0.23170609  0.28407023  0.41758934  1
  Te  Te128  1  0.23910010  0.26718216  0.76503322  1
  Te  Te129  1  0.24797911  0.56150433  0.08327957  1
  Te  Te130  1  0.22128374  0.55422620  0.37236900  1
  Te  Te131  1  0.22661365  0.55770821  0.75490458  1
  Te  Te132  1  0.24863911  0.88987743  0.08222034  1
  Te  Te133  1  0.24472481  0.91732672  0.42390334  1
  Te  Te134  1  0.26372341  0.91581731  0.74995335  1
  Te  Te135  1  0.56890231  0.26350283  0.10324042  1
  Te  Te136  1  0.57533806  0.24222647  0.43128318  1
  Te  Te137  1  0.59573621  0.28609210  0.73668281  1
  Te  Te138  1  0.60126465  0.56086900  0.04400580  1
  Te  Te139  1  0.60308756  0.61784398  0.42279265  1
  Te  Te140  1  0.57992577  0.59823911  0.76523294  1
  Te  Te141  1  0.58201909  0.91812088  0.07670745  1
  Te  Te142  1  0.56753263  0.90829856  0.42380084  1
  Te  Te143  1  0.56536837  0.89246293  0.74496991  1
  Te  Te144  1  0.92554658  0.23275802  0.08493328  1
  Te  Te145  1  0.90991197  0.23715563  0.41533690  1
  Te  Te146  1  0.95143052  0.28764802  0.75100876  1
  Te  Te147  1  0.90977182  0.58016807  0.07527959  1
  Te  Te148  1  0.92633985  0.59120571  0.40277848  1
  Te  Te149  1  0.92347879  0.58064703  0.75066356  1
  Te  Te150  1  0.93153395  0.90143694  0.08386535  1
  Te  Te151  1  0.92636705  0.92738617  0.39996442  1
  Te  Te152  1  0.91057934  0.92182762  0.72634380  1
  Te  Te153  1  0.26095824  0.09356057  0.24588604  1
  Te  Te154  1  0.23359270  0.08677082  0.57991880  1
  Te  Te155  1  0.23724028  0.09509242  0.93923140  1
  Te  Te156  1  0.28097220  0.47732942  0.25148248  1
  Te  Te157  1  0.23750160  0.46211614  0.59479944  1
  Te  Te158  1  0.28559919  0.40131963  0.94473905  1
  Te  Te159  1  0.28594783  0.72136287  0.25922086  1
  Te  Te160  1  0.23761670  0.73152838  0.58358269  1
  Te  Te161  1  0.21789807  0.72539781  0.91635169  1
  Te  Te162  1  0.60289921  0.08610800  0.25652523  1
  Te  Te163  1  0.57570423  0.07885330  0.59353601  1
  Te  Te164  1  0.57837111  0.08411700  0.90412850  1
  Te  Te165  1  0.55399264  0.43207424  0.24871063  1
  Te  Te166  1  0.60125019  0.43854016  0.57595386  1
  Te  Te167  1  0.54668810  0.43005468  0.93922504  1
  Te  Te168  1  0.56035027  0.72684552  0.23655056  1
  Te  Te169  1  0.57648028  0.73359595  0.56816109  1
  Te  Te170  1  0.60358496  0.71577885  0.89215219  1
  Te  Te171  1  0.95601455  0.08691180  0.23318254  1
  Te  Te172  1  0.90132827  0.09199724  0.57832287  1
  Te  Te173  1  0.91703972  0.09283648  0.92286792  1
  Te  Te174  1  0.91305280  0.40573689  0.24697681  1
  Te  Te175  1  0.92253666  0.43422187  0.57737554  1
  Te  Te176  1  0.91653095  0.43506926  0.93312719  1
  Te  Te177  1  0.93977803  0.74293630  0.25341385  1
  Te  Te178  1  0.91489119  0.76352837  0.56387675  1
  Te  Te179  1  0.92404197  0.74446574  0.90997228  1
