# generated using pymatgen
data_In2Te3
_symmetry_space_group_name_H-M   'P 1'
_cell_length_a   19.05055541
_cell_length_b   19.05597643
_cell_length_c   19.03345964
_cell_angle_alpha   89.87615509
_cell_angle_beta   90.14383325
_cell_angle_gamma   89.85445763
_symmetry_Int_Tables_number   1
_chemical_formula_structural   In2Te3
_chemical_formula_sum   'In72 Te108'
_cell_volume   6909.59821288
_cell_formula_units_Z   36
loop_
 _symmetry_equiv_pos_site_id
 _symmetry_equiv_pos_as_xyz
  1  'x, y, z'
loop_
 _atom_site_type_symbol
 _atom_site_label
 _atom_site_symmetry_multiplicity
 _atom_site_fract_x
 _atom_site_fract_y
 _atom_site_fract_z
 _atom_site_occupancy
  In  In0  1  0.66456429  0.82900285  0.81417894  1
  In  In1  1  0.48649965  0.02120684  0.16487572  1
  In  In2  1  0.19829975  0.62370753  0.46328157  1
  In  In3  1  0.64392701  -0.00539707  0.67346121  1
  In  In4  1  0.00884165  0.48602000  0.18754004  1
  In  In5  1  0.00782299  0.31002191  0.32877079  1
  In  In6  1  0.51117933  0.33755134  0.20480044  1
  In  In7  1  0.17995285  0.85483679  0.32282148  1
  In  In8  1  0.82640869  0.67320916  0.15082068  1
  In  In9  1  0.00469760  0.33734521  0.00888522  1
  In  In10  1  0.49293230  0.47792985  0.65581645  1
  In  In11  1  0.47768817  0.67458103  0.82318964  1
  In  In12  1  -0.02276947  0.74642365  0.82005513  1
  In  In13  1  0.52982156  0.20732041  0.60411900  1
  In  In14  1  0.50526792  0.69057235  0.50148321  1
  In  In15  1  0.15538002  0.67339747  0.16298192  1
  In  In16  1  0.16360061  -0.02388814  0.82135832  1
  In  In17  1  0.33337224  0.33539055  0.67410111  1
  In  In18  1  0.17566952  0.14326400  0.65589884  1
  In  In19  1  0.80861991  0.30319603  0.15531834  1
  In  In20  1  0.18175122  0.33269987  0.49637995  1
  In  In21  1  0.17783163  0.17807362  0.33948201  1
  In  In22  1  0.11844232  0.63007628  0.80951879  1
  In  In23  1  0.32371841  0.82952164  0.15400959  1
  In  In24  1  0.00884190  0.31221724  0.65808120  1
  In  In25  1  0.67431455  0.63741177  0.65381799  1
  In  In26  1  0.82292960  0.84057274  0.33462518  1
  In  In27  1  -0.00988472  0.83131481  0.51402088  1
  In  In28  1  0.81264024  0.00137216  0.49659793  1
  In  In29  1  0.46951820  0.48469726  0.34915010  1
  In  In30  1  0.01142520  0.00370163  0.00627639  1
  In  In31  1  0.16540324  0.84061232  -0.01036234  1
  In  In32  1  0.65470725  0.15747099  0.18168429  1
  In  In33  1  0.68610084  0.48239111  0.50615938  1
  In  In34  1  0.35430538  0.52892128  0.17274332  1
  In  In35  1  0.41658422  0.05456211  0.59029780  1
  In  In36  1  0.65270612  0.33438550  0.01554756  1
  In  In37  1  0.03031160  0.85035191  0.16295400  1
  In  In38  1  0.65764695  0.65978559  0.01285887  1
  In  In39  1  -0.01012316  0.67540354  0.35071074  1
  In  In40  1  0.83331816  0.15597983  0.00264953  1
  In  In41  1  0.19955615  0.83981174  0.64734627  1
  In  In42  1  0.83064087  0.00274033  0.19395209  1
  In  In43  1  0.83469900  -0.01050399  0.83740718  1
  In  In44  1  -0.02286513  -0.00025040  0.66119109  1
  In  In45  1  0.83030716  0.47816263  0.02043120  1
  In  In46  1  0.66536572  0.47283296  0.83145247  1
  In  In47  1  0.84107548  0.16651242  0.33427539  1
  In  In48  1  0.34849423  0.85380817  0.82429731  1
  In  In49  1  0.36031621  0.02258877  0.35541728  1
  In  In50  1  0.50273506  0.83314418  0.34352027  1
  In  In51  1  0.63639775  0.17091975  0.80635129  1
  In  In52  1  0.33172836  0.32710220  -0.01050693  1
  In  In53  1  0.83320579  0.78607433  0.66384047  1
  In  In54  1  0.31802939  0.65187965  0.65400080  1
  In  In55  1  0.14929485  0.50112582  0.67484803  1
  In  In56  1  0.49309776  0.86034060  0.00603672  1
  In  In57  1  0.81860195  0.83999957  -0.01300931  1
  In  In58  1  0.34232021  0.17981046  0.18631676  1
  In  In59  1  0.66797267  0.83396975  0.48998585  1
  In  In60  1  0.33145541  0.68428380  -0.00038774  1
  In  In61  1  0.81376000  0.32115940  0.81246829  1
  In  In62  1  0.15781529  0.34937712  0.86266149  1
  In  In63  1  0.80780678  0.48059691  0.33739745  1
  In  In64  1  0.47666831  0.02785194  0.83920368  1
  In  In65  1  0.66390053  0.68483256  0.34598461  1
  In  In66  1  0.00659289  0.47393387  0.50189521  1
  In  In67  1  0.50877221  0.49865130  0.01154887  1
  In  In68  1  0.19793478  0.35155098  0.17962706  1
  In  In69  1  0.31193672  0.15986462  0.83700130  1
  In  In70  1  0.81245675  0.18961957  0.64651637  1
  In  In71  1  0.18644995  0.01531809  0.48259684  1
  Te  Te72  1  0.13687482  0.05178548  0.06160934  1
  Te  Te73  1  0.08490960  0.09184462  0.41198316  1
  Te  Te74  1  0.07557677  0.07677536  0.74632577  1
  Te  Te75  1  0.10137541  0.42512551  0.08651255  1
  Te  Te76  1  0.09538156  0.41104437  0.39775960  1
  Te  Te77  1  0.06434302  0.41150865  0.75943446  1
  Te  Te78  1  0.07030684  0.74529368  0.06149657  1
  Te  Te79  1  0.08985180  0.76822385  0.41455403  1
  Te  Te80  1  0.10798131  0.76847624  0.73863011  1
  Te  Te81  1  0.38862557  0.08946425  0.08176033  1
  Te  Te82  1  0.45710550  0.12275829  0.40310624  1
  Te  Te83  1  0.41843468  0.11542128  0.72976771  1
  Te  Te84  1  0.41750141  0.41121964  0.09843431  1
  Te  Te85  1  0.40419758  0.40154771  0.45061937  1
  Te  Te86  1  0.41082990  0.42228406  0.76165652  1
  Te  Te87  1  0.43309036  0.74829598  0.08945597  1
  Te  Te88  1  0.41597639  0.72316977  0.39033437  1
  Te  Te89  1  0.40510733  0.75759926  0.72063234  1
  Te  Te90  1  0.74325821  0.07427692  0.09067712  1
  Te  Te91  1  0.74049054  0.07005682  0.38821283  1
  Te  Te92  1  0.75216822  0.08150822  0.74779017  1
  Te  Te93  1  0.72494432  0.42286025  0.11348286  1
  Te  Te94  1  0.77831501  0.37876150  0.44544204  1
  Te  Te95  1  0.77259047  0.44017013  0.73757505  1
  Te  Te96  1  0.72902916  0.77104463  0.08948928  1
  Te  Te97  1  0.77428529  0.74075517  0.43700862  1
  Te  Te98  1  0.74979623  0.71451933  0.76655392  1
  Te  Te99  1  0.09904749  0.24689049  0.22779198  1
  Te  Te100  1  0.09180844  0.23038057  0.56287970  1
  Te  Te101  1  0.08183325  0.24426270  0.92760870  1
  Te  Te102  1  0.08397485  0.59003274  0.26684036  1
  Te  Te103  1  0.09214322  0.58722127  0.56214605  1
  Te  Te104  1  0.04220441  0.55584214  0.90793711  1
  Te  Te105  1  0.07754231  0.94152824  0.26417306  1
  Te  Te106  1  0.09037749  0.93147721  0.57959154  1
  Te  Te107  1  0.05769588  0.90257634  0.90328431  1
  Te  Te108  1  0.39729755  0.27985093  0.28105445  1
  Te  Te109  1  0.41026182  0.28747219  0.55567178  1
  Te  Te110  1  0.41268253  0.23915125  0.90493883  1
  Te  Te111  1  0.44560020  0.60167425  0.26299275  1
  Te  Te112  1  0.42249843  0.58177941  0.57227503  1
  Te  Te113  1  0.41443655  0.58344782  0.92426920  1
  Te  Te114  1  0.40427263  0.91468855  0.24900055  1
  Te  Te115  1  0.44631839  0.91981374  0.54979256  1
  Te  Te116  1  0.38845148  0.94422705  0.93600902  1
  Te  Te117  1  0.72756100  0.25392671  0.27040647  1
  Te  Te118  1  0.73940859  0.27859016  0.55761482  1
  Te  Te119  1  0.73774277  0.24604159  0.92473604  1
  Te  Te120  1  0.75108270  0.59539707  0.25590021  1
  Te  Te121  1  0.77915739  0.56568912  0.58380265  1
  Te  Te122  1  0.73854287  0.56078141  0.93174611  1
  Te  Te123  1  0.72796200  0.94043845  0.28075814  1
  Te  Te124  1  0.75504194  0.90732795  0.60149381  1
  Te  Te125  1  0.71997591  0.92925287  0.91340832  1
  Te  Te126  1  0.24687247  0.24610964  0.08263081  1
  Te  Te127  1  0.27400106  0.27740161  0.39250451  1
  Te  Te128  1  0.22364208  0.25478237  0.74615142  1
  Te  Te129  1  0.24666676  0.58865882  0.07861575  1
  Te  Te130  1  0.29021344  0.53099945  0.39886569  1
  Te  Te131  1  0.25126389  0.57393193  0.76288050  1
  Te  Te132  1  0.22643654  0.92682939  0.09402947  1
  Te  Te133  1  0.27873329  0.91312079  0.42288796  1
  Te  Te134  1  0.27672625  0.94317185  0.72351745  1
  Te  Te135  1  0.56347550  0.24444295  0.09635408  1
  Te  Te136  1  0.57708091  0.20489681  0.45998091  1
  Te  Te137  1  0.59744356  0.27979805  0.71839018  1
  Te  Te138  1  0.58441699  0.57735794  0.10742543  1
  Te  Te139  1  0.59693911  0.58660248  0.43818040  1
  Te  Te140  1  0.57291937  0.57757746  0.75610808  1
  Te  Te141  1  0.58074996  0.93650299  0.09196995  1
  Te  Te142  1  0.55805205  0.92898472  0.44612239  1
  Te  Te143  1  0.55243300  0.91712070  0.76172765  1
  Te  Te144  1  0.92571599  0.23446494  0.09149370  1
  Te  Te145  1  0.91230313  0.25846289  0.42600936  1
  Te  Te146  1  0.91633140  0.23136932  0.74815545  1
  Te  Te147  1  0.92339917  0.57184418  0.09393467  1
  Te  Te148  1  0.91513634  0.55912899  0.41058327  1
  Te  Te149  1  0.96623709  0.59930439  0.78562169  1
  Te  Te150  1  0.90891175  0.91621712  0.08416324  1
  Te  Te151  1  0.91744663  0.92340267  0.41850576  1
  Te  Te152  1  0.91005114  0.89441053  0.74786995  1
  Te  Te153  1  0.25765778  0.07667711  0.26030542  1
  Te  Te154  1  0.28127458  0.11138765  0.55165122  1
  Te  Te155  1  0.21988703  0.07522429  0.91652268  1
  Te  Te156  1  0.25485992  0.46214656  0.26339809  1
  Te  Te157  1  0.24927058  0.43107787  0.58782446  1
  Te  Te158  1  0.26112629  0.43348313  0.91836732  1
  Te  Te159  1  0.25382110  0.74084179  0.25455411  1
  Te  Te160  1  0.25408795  0.73949913  0.54891476  1
  Te  Te161  1  0.25330551  0.76073330  0.89602257  1
  Te  Te162  1  0.54959761  0.10355443  0.27272504  1
  Te  Te163  1  0.61950770  0.09152879  0.56298850  1
  Te  Te164  1  0.57346860  0.10335129  0.91732538  1
  Te  Te165  1  0.58861936  0.41335076  0.30165914  1
  Te  Te166  1  0.60139353  0.39680419  0.59401176  1
  Te  Te167  1  0.56286197  0.39693806  0.91161632  1
  Te  Te168  1  0.60112315  0.77485993  0.25150395  1
  Te  Te169  1  0.59862252  0.75780553  0.60077823  1
  Te  Te170  1  0.57113743  0.75242279  0.91548837  1
  Te  Te171  1  0.93131638  0.09422390  0.24409701  1
  Te  Te172  1  0.90631205  0.09492614  0.56907305  1
  Te  Te173  1  0.92656935  0.08510782  0.90855002  1
  Te  Te174  1  0.90210147  0.39592201  0.24489152  1
  Te  Te175  1  0.92183279  0.41859502  0.60701256  1
  Te  Te176  1  0.90006193  0.39642601  0.91630761  1
  Te  Te177  1  0.92042733  0.75870395  0.24250634  1
  Te  Te178  1  0.93995318  0.71915570  0.59184165  1
  Te  Te179  1  0.88814582  0.72514728  0.93232613  1
