# generated using pymatgen
data_In2Te3
_symmetry_space_group_name_H-M   'P 1'
_cell_length_a   18.89816024
_cell_length_b   18.90125107
_cell_length_c   18.88540375
_cell_angle_alpha   89.96131404
_cell_angle_beta   89.97567947
_cell_angle_gamma   89.98477724
_symmetry_Int_Tables_number   1
_chemical_formula_structural   In2Te3
_chemical_formula_sum   'In72 Te108'
_cell_volume   6745.84252531
_cell_formula_units_Z   36
loop_
 _symmetry_equiv_pos_site_id
 _symmetry_equiv_pos_as_xyz
  1  'x, y, z'
loop_
 _atom_site_type_symbol
 _atom_site_label
 _atom_site_symmetry_multiplicity
 _atom_site_fract_x
 _atom_site_fract_y
 _atom_site_fract_z
 _atom_site_occupancy
  In  In0  1  0.01344262  0.82464839  0.15268408  1
  In  In1  1  0.64597913  0.53748617  0.81485962  1
  In  In2  1  0.63140159  0.50074789  0.51487317  1
  In  In3  1  0.51727264  -0.02119245  0.85924639  1
  In  In4  1  0.02017336  0.69104736  0.71389697  1
  In  In5  1  0.17559296  0.36671677  0.83089486  1
  In  In6  1  0.83600128  0.83943001  0.00183804  1
  In  In7  1  0.79738643  0.14255751  0.66806146  1
  In  In8  1  0.33491402  0.63715755  0.32544564  1
  In  In9  1  0.48428597  0.34630010  0.50374977  1
  In  In10  1  0.35849107  0.35652528  0.72813261  1
  In  In11  1  0.48425993  0.50288990  0.00557980  1
  In  In12  1  0.49891436  0.16695190  0.32676282  1
  In  In13  1  0.53777726  -0.02171841  0.51051622  1
  In  In14  1  0.83810985  0.48349892  0.03111186  1
  In  In15  1  0.82572907  0.66367518  0.49368413  1
  In  In16  1  0.34278157  0.17525250  0.47802394  1
  In  In17  1  0.02543806  0.35336689  0.34264908  1
  In  In18  1  0.67694670  -0.00241486  0.66575774  1
  In  In19  1  0.00616061  0.33890437  0.68100643  1
  In  In20  1  0.01899791  0.51848094  0.15464218  1
  In  In21  1  0.66032603  0.49053345  0.17653333  1
  In  In22  1  0.35238548  0.34145503  0.33001132  1
  In  In23  1  0.85320355  0.51895833  0.67953939  1
  In  In24  1  0.13684905  0.21349335  0.68068617  1
  In  In25  1  0.17267465  0.66523120  0.48911552  1
  In  In26  1  0.00374500  0.82059777  0.50274361  1
  In  In27  1  0.31636045  0.67364194  -0.02661169  1
  In  In28  1  0.68906972  0.67719566  -0.00883771  1
  In  In29  1  0.30986569  0.00157324  0.66073608  1
  In  In30  1  0.82305007  -0.00767270  0.17010095  1
  In  In31  1  0.16322180  -0.01402462  0.86003212  1
  In  In32  1  0.02236220  0.48457858  0.51281479  1
  In  In33  1  0.18944461  0.00348637  0.48395049  1
  In  In34  1  0.82701464  0.00433323  0.46110106  1
  In  In35  1  0.84699412  0.15369896  -0.00397387  1
  In  In36  1  0.00766209  0.67299807  0.30794542  1
  In  In37  1  0.48500744  0.81445070  0.66868729  1
  In  In38  1  0.82536287  0.00350019  0.83963063  1
  In  In39  1  -0.01061438  0.19822030  0.51321609  1
  In  In40  1  0.48407487  -0.00693259  0.14563458  1
  In  In41  1  0.00055255  -0.00704342  0.66858871  1
  In  In42  1  0.17328137  0.14013610  0.31430296  1
  In  In43  1  0.81985889  0.36319131  0.85050919  1
  In  In44  1  -0.00609727  0.83677506  0.83500070  1
  In  In45  1  0.65216581  0.64785913  0.32560238  1
  In  In46  1  0.19929953  0.33990428  0.16063951  1
  In  In47  1  0.00409483  0.15815582  0.14588268  1
  In  In48  1  0.32240386  -0.01433744  0.00661142  1
  In  In49  1  0.66230677  0.34194987  0.00650452  1
  In  In50  1  0.51196883  0.81659306  0.00754732  1
  In  In51  1  0.84941574  0.50073576  0.31982184  1
  In  In52  1  0.34032411  0.80303775  0.48503084  1
  In  In53  1  0.34086025  0.66168950  0.66565454  1
  In  In54  1  0.17946013  0.67894814  0.16096950  1
  In  In55  1  0.64812888  0.16233340  0.47687504  1
  In  In56  1  0.65422286  0.82425922  0.48819637  1
  In  In57  1  0.49033085  0.34285878  0.15454756  1
  In  In58  1  -0.00882501  0.17928692  0.84143928  1
  In  In59  1  0.65211503  0.31374043  0.65594931  1
  In  In60  1  0.64521946  -0.01951090  0.32353177  1
  In  In61  1  0.46352894  0.18765090  0.73484141  1
  In  In62  1  0.78341394  0.78422233  0.68956748  1
  In  In63  1  0.48115101  0.66219824  0.16829708  1
  In  In64  1  0.12991547  0.80360459  0.70968905  1
  In  In65  1  0.17346311  0.51497616  -0.01486665  1
  In  In66  1  0.16757829  0.16870428  -0.00087988  1
  In  In67  1  0.82879746  0.34672451  0.44805672  1
  In  In68  1  0.02844382  -0.01266965  0.30763353  1
  In  In69  1  0.67645907  0.01600898  0.00881471  1
  In  In70  1  0.33962428  0.00185720  0.30307357  1
  In  In71  1  0.18164606  0.49094438  0.66004558  1
  Te  Te72  1  0.09711947  0.06436967  0.07844415  1
  Te  Te73  1  0.07587145  0.08693965  0.42616960  1
  Te  Te74  1  0.08941960  0.08298570  0.75184662  1
  Te  Te75  1  0.09763707  0.41652851  0.07460187  1
  Te  Te76  1  0.12001771  0.44248674  0.41150525  1
  Te  Te77  1  0.06819255  0.45028519  0.76027316  1
  Te  Te78  1  0.06271921  0.70816945  0.06704268  1
  Te  Te79  1  0.09635953  0.76008282  0.39863996  1
  Te  Te80  1  0.14478939  0.68725897  0.81539265  1
  Te  Te81  1  0.42543875  0.08676237  0.04590768  1
  Te  Te82  1  0.43055396  0.06557834  0.42040134  1
  Te  Te83  1  0.41920918  0.04506466  0.75695353  1
  Te  Te84  1  0.39573047  0.39060960  0.04771222  1
  Te  Te85  1  0.38916686  0.43871893  0.43784853  1
  Te  Te86  1  0.38483750  0.48864852  0.79771181  1
  Te  Te87  1  0.39572884  0.75397649  0.08255116  1
  Te  Te88  1  0.43180629  0.70705526  0.42009930  1
  Te  Te89  1  0.38570668  0.76245767  0.76381355  1
  Te  Te90  1  0.75055163  0.10950408  0.10496317  1
  Te  Te91  1  0.73880746  0.09339929  0.37738971  1
  Te  Te92  1  0.71405526  0.09071654  0.78271419  1
  Te  Te93  1  0.75584125  0.38810198  0.11830255  1
  Te  Te94  1  0.72731785  0.45434396  0.40246651  1
  Te  Te95  1  0.74164136  0.41949732  0.73429593  1
  Te  Te96  1  0.74657279  0.76581963  0.09275481  1
  Te  Te97  1  0.75138508  0.74985225  0.39751778  1
  Te  Te98  1  0.69485256  0.69722308  0.77287905  1
  Te  Te99  1  0.09582411  0.25020796  0.24010579  1
  Te  Te100  1  0.09678029  0.29370423  0.55948289  1
  Te  Te101  1  0.08608675  0.26811652  0.91265217  1
  Te  Te102  1  0.11229794  0.57666534  0.25927163  1
  Te  Te103  1  0.07827313  0.59967070  0.59712961  1
  Te  Te104  1  0.07534462  0.61703199  0.93842482  1
  Te  Te105  1  0.12095948  0.90218880  0.22709287  1
  Te  Te106  1  0.09674134  0.91648224  0.57939691  1
  Te  Te107  1  0.09425660  0.87943631  0.94014456  1
  Te  Te108  1  0.40404878  0.23527216  0.23426234  1
  Te  Te109  1  0.42810242  0.23269974  0.58882146  1
  Te  Te110  1  0.43109567  0.28613357  0.84323965  1
  Te  Te111  1  0.42125950  0.54511029  0.24070789  1
  Te  Te112  1  0.45129917  0.57230901  0.62375921  1
  Te  Te113  1  0.43208459  0.60346159  0.90625496  1
  Te  Te114  1  0.41802027  0.89775302  0.23691525  1
  Te  Te115  1  0.40514813  0.91829640  0.57264932  1
  Te  Te116  1  0.40920235  0.89290360  0.92145754  1
  Te  Te117  1  0.77961915  0.29076082  0.32344117  1
  Te  Te118  1  0.75385028  0.24348291  0.55939149  1
  Te  Te119  1  0.75245892  0.24914720  0.91931054  1
  Te  Te120  1  0.76232153  0.58902805  0.23386174  1
  Te  Te121  1  0.74595869  0.57638068  0.58718023  1
  Te  Te122  1  0.75102588  0.55581142  0.92430461  1
  Te  Te123  1  0.75321820  0.90198745  0.26256246  1
  Te  Te124  1  0.75508466  0.91557251  0.56340320  1
  Te  Te125  1  0.73248283  0.91063106  0.91254538  1
  Te  Te126  1  0.27041220  0.25090890  0.06640374  1
  Te  Te127  1  0.24333170  0.24978004  0.39534897  1
  Te  Te128  1  0.24992361  0.24745472  0.77093561  1
  Te  Te129  1  0.26780708  0.58156995  0.08467541  1
  Te  Te130  1  0.27899026  0.57044118  0.44975802  1
  Te  Te131  1  0.25914282  0.57000654  0.76504535  1
  Te  Te132  1  0.22638145  0.94361449  0.11287939  1
  Te  Te133  1  0.26247607  0.90512796  0.39890748  1
  Te  Te134  1  0.23829811  0.90608066  0.75474029  1
  Te  Te135  1  0.58010541  0.24954568  0.08528144  1
  Te  Te136  1  0.57510695  0.27381283  0.40384954  1
  Te  Te137  1  0.58588104  0.26474669  0.77919288  1
  Te  Te138  1  0.59147605  0.58663396  0.07905485  1
  Te  Te139  1  0.55501068  0.59384104  0.42673933  1
  Te  Te140  1  0.56439343  0.61983165  0.71291163  1
  Te  Te141  1  0.59976180  0.91072394  0.08829998  1
  Te  Te142  1  0.55024979  0.88285626  0.39397958  1
  Te  Te143  1  0.58652749  0.90422223  0.74280120  1
  Te  Te144  1  0.92879918  0.25398444  0.06438408  1
  Te  Te145  1  0.92717142  0.23905959  0.38077478  1
  Te  Te146  1  0.90177860  0.23814487  0.73413376  1
  Te  Te147  1  0.91281975  0.59745782  0.08955747  1
  Te  Te148  1  0.93584475  0.58260378  0.42420305  1
  Te  Te149  1  0.90751154  0.61387271  0.77834916  1
  Te  Te150  1  0.92850488  0.93040191  0.08010383  1
  Te  Te151  1  0.93143544  0.91043265  0.40264341  1
  Te  Te152  1  0.89372098  0.91007762  0.73810914  1
  Te  Te153  1  0.25419723  0.07698593  0.20530676  1
  Te  Te154  1  0.23874363  0.11210625  0.58132622  1
  Te  Te155  1  0.26242481  0.08821853  0.90660755  1
  Te  Te156  1  0.28395463  0.43543694  0.23658553  1
  Te  Te157  1  0.27812209  0.39406468  0.60826610  1
  Te  Te158  1  0.27656900  0.42138030  0.92749676  1
  Te  Te159  1  0.26450642  0.74799340  0.25913455  1
  Te  Te160  1  0.23681324  0.75901585  0.59223378  1
  Te  Te161  1  0.21046143  0.77308367  0.93946215  1
  Te  Te162  1  0.57869187  0.08191662  0.23172700  1
  Te  Te163  1  0.58128886  0.09595053  0.59659238  1
  Te  Te164  1  0.56359951  0.09102612  0.94524460  1
  Te  Te165  1  0.54714285  0.43631814  0.25721633  1
  Te  Te166  1  0.54898820  0.42200573  0.62116784  1
  Te  Te167  1  0.58482358  0.43397583  0.91203408  1
  Te  Te168  1  0.58381947  0.74133075  0.23573828  1
  Te  Te169  1  0.58271414  0.73749473  0.58558427  1
  Te  Te170  1  0.58944622  0.74471624  0.90224657  1
  Te  Te171  1  0.92360315  0.07899047  0.24860808  1
  Te  Te172  1  0.91004401  0.07641091  0.57663995  1
  Te  Te173  1  0.94158256  0.05905021  0.91901332  1
  Te  Te174  1  0.93833471  0.41371275  0.23439437  1
  Te  Te175  1  0.90588239  0.41025298  0.57880911  1
  Te  Te176  1  0.92695158  0.42141539  0.92887749  1
  Te  Te177  1  0.91341600  0.76054455  0.24012848  1
  Te  Te178  1  0.90708938  0.74693430  0.59390353  1
  Te  Te179  1  0.89319293  0.74800545  0.89733939  1
