# generated using pymatgen
data_In2Te3
_symmetry_space_group_name_H-M   'P 1'
_cell_length_a   18.80148806
_cell_length_b   18.80340678
_cell_length_c   18.80056094
_cell_angle_alpha   90.09698085
_cell_angle_beta   89.99641120
_cell_angle_gamma   89.98221351
_symmetry_Int_Tables_number   1
_chemical_formula_structural   In2Te3
_chemical_formula_sum   'In72 Te108'
_cell_volume   6646.59058494
_cell_formula_units_Z   36
loop_
 _symmetry_equiv_pos_site_id
 _symmetry_equiv_pos_as_xyz
  1  'x, y, z'
loop_
 _atom_site_type_symbol
 _atom_site_label
 _atom_site_symmetry_multiplicity
 _atom_site_fract_x
 _atom_site_fract_y
 _atom_site_fract_z
 _atom_site_occupancy
  In  In0  1  0.67349633  0.83662533  0.16895301  1
  In  In1  1  0.13940768  0.47740634  0.35010322  1
  In  In2  1  0.65443451  0.49874735  0.51738095  1
  In  In3  1  0.00432940  0.64813307  0.32873283  1
  In  In4  1  0.65945815  0.50534896  0.83712148  1
  In  In5  1  0.67128430  0.01112884  0.01718781  1
  In  In6  1  0.48079337  -0.00170099  0.49747915  1
  In  In7  1  0.50108023  0.49100532  0.33210463  1
  In  In8  1  0.84127481  0.00684621  0.84241535  1
  In  In9  1  0.33933362  0.66654039  0.33448300  1
  In  In10  1  0.16224394  0.66078889  0.53305549  1
  In  In11  1  0.15276681  0.01538214  0.51697119  1
  In  In12  1  0.65325504  0.63184130  0.00738998  1
  In  In13  1  0.16097871  0.81427347  -0.01994399  1
  In  In14  1  0.65373530  0.20433012  0.82828869  1
  In  In15  1  0.16220876  0.49917439  -0.01186526  1
  In  In16  1  0.00565627  0.32177825  0.63660244  1
  In  In17  1  0.66083639  0.32498548  0.32683949  1
  In  In18  1  0.83352124  0.82974209  0.64632192  1
  In  In19  1  0.00760454  0.14340538  0.82382807  1
  In  In20  1  0.83087107  0.50031889  0.34244863  1
  In  In21  1  -0.01611947  0.01142701  0.34411512  1
  In  In22  1  0.65689890  0.82514794  0.84518408  1
  In  In23  1  0.48199203  0.81793898  0.66109125  1
  In  In24  1  0.48169833  0.18079330  0.67405499  1
  In  In25  1  0.67421421  0.36253523  0.00071448  1
  In  In26  1  0.85009113  0.51082387  0.67066469  1
  In  In27  1  0.18267278  0.01000685  0.16621648  1
  In  In28  1  0.16444433  0.83679198  0.32057215  1
  In  In29  1  0.34091334  0.02992382  0.33070547  1
  In  In30  1  0.35164089  0.34268532  -0.00176941  1
  In  In31  1  0.47843118  0.33626305  0.16687508  1
  In  In32  1  0.33990887  0.50466076  0.51462488  1
  In  In33  1  0.35232674  0.00928581  -0.00694501  1
  In  In34  1  -0.00675603  0.31804471  0.00601213  1
  In  In35  1  0.67925300  0.01761267  0.32691635  1
  In  In36  1  0.31689277  0.17625473  0.84190588  1
  In  In37  1  0.67316827  -0.00522026  0.66450183  1
  In  In38  1  0.17470179  0.31091502  0.18517258  1
  In  In39  1  0.47295044  0.17262658  0.00858556  1
  In  In40  1  -0.01055135  0.19005622  0.50107964  1
  In  In41  1  0.35395998  0.82611473  0.16032628  1
  In  In42  1  0.01385661  0.81997903  0.82285457  1
  In  In43  1  0.66613217  0.64735212  0.67409602  1
  In  In44  1  0.83511947  0.17618345  0.64204129  1
  In  In45  1  -0.00692641  0.84577618  0.50774515  1
  In  In46  1  0.32865599  0.83348476  0.50354343  1
  In  In47  1  -0.00173364  0.66874411  -0.01676596  1
  In  In48  1  0.16878978  0.33428844  0.83424574  1
  In  In49  1  -0.00327457  0.17988824  0.17894461  1
  In  In50  1  0.33117939  0.17747264  0.17735047  1
  In  In51  1  0.35454825  0.63647431  0.68734153  1
  In  In52  1  0.47833620  0.00694439  0.84545097  1
  In  In53  1  0.32996051  0.48830057  0.16078792  1
  In  In54  1  0.68093984  0.17209779  0.49403080  1
  In  In55  1  -0.01722787  0.82547719  0.14368349  1
  In  In56  1  0.50620043  0.81290486  0.33749809  1
  In  In57  1  0.81857446  0.33910467  0.83930780  1
  In  In58  1  0.80036494  0.49637538  0.00758890  1
  In  In59  1  0.50070347  0.84157464  -0.01584265  1
  In  In60  1  0.17050542  0.51220674  0.64777029  1
  In  In61  1  0.51395008  0.32683858  0.50595065  1
  In  In62  1  0.17286817  0.17997869  0.66528554  1
  In  In63  1  0.68885012  0.81728779  0.49265228  1
  In  In64  1  0.83243695  0.67160488  0.16441510  1
  In  In65  1  -0.00507030  -0.00825361  0.01895529  1
  In  In66  1  0.66801791  0.15854313  0.17688363  1
  In  In67  1  0.34269165  0.65255671  -0.02641512  1
  In  In68  1  -0.00727128  0.48507263  0.19501152  1
  In  In69  1  -0.00842640  0.52363066  0.82086564  1
  In  In70  1  0.67712018  0.67131201  0.33327258  1
  In  In71  1  0.01875877  0.02828192  0.66919324  1
  Te  Te72  1  0.08727912  0.09579525  0.08452419  1
  Te  Te73  1  0.08373169  0.10155535  0.41343168  1
  Te  Te74  1  0.12914704  0.07140956  0.76453533  1
  Te  Te75  1  0.09131307  0.41107456  0.09149770  1
  Te  Te76  1  0.04475664  0.38148520  0.41218671  1
  Te  Te77  1  0.07052330  0.41213123  0.74781790  1
  Te  Te78  1  0.09018924  0.73357476  0.08898147  1
  Te  Te79  1  0.09212927  0.74968730  0.42168843  1
  Te  Te80  1  0.10997835  0.74160015  0.74327021  1
  Te  Te81  1  0.42389649  0.07223742  0.11109280  1
  Te  Te82  1  0.39811048  0.10880448  0.44274638  1
  Te  Te83  1  0.38946780  0.07907000  0.74725441  1
  Te  Te84  1  0.44466116  0.45174008  0.05938834  1
  Te  Te85  1  0.41226632  0.40770568  0.41937908  1
  Te  Te86  1  0.46206628  0.45715808  0.79401543  1
  Te  Te87  1  0.43344066  0.73366472  0.07191968  1
  Te  Te88  1  0.42611415  0.73332226  0.44077705  1
  Te  Te89  1  0.41005184  0.74988665  0.76909268  1
  Te  Te90  1  0.77000530  0.07369964  0.10654404  1
  Te  Te91  1  0.77536968  0.10408614  0.40263739  1
  Te  Te92  1  0.74943586  0.09532742  0.75323933  1
  Te  Te93  1  0.77100868  0.39311765  0.10890087  1
  Te  Te94  1  0.73913435  0.40948738  0.42760315  1
  Te  Te95  1  0.74331418  0.42191387  0.73843250  1
  Te  Te96  1  0.74228210  0.74418059  0.06662924  1
  Te  Te97  1  0.78201830  0.73302880  0.41649600  1
  Te  Te98  1  0.74918140  0.75267859  0.74885483  1
  Te  Te99  1  0.06362405  0.27225765  0.27971279  1
  Te  Te100  1  0.11810843  0.26325037  0.54920885  1
  Te  Te101  1  0.08827379  0.23768428  0.91826469  1
  Te  Te102  1  0.10591454  0.57864814  0.23905235  1
  Te  Te103  1  0.05420262  0.56655779  0.57274522  1
  Te  Te104  1  0.10138126  0.60124838  0.89280732  1
  Te  Te105  1  0.07417964  0.92413600  0.23440160  1
  Te  Te106  1  0.10194250  0.90032246  0.60605850  1
  Te  Te107  1  0.08252979  0.92604014  0.91240801  1
  Te  Te108  1  0.41367021  0.25615481  0.27652870  1
  Te  Te109  1  0.40175907  0.25559269  0.57383223  1
  Te  Te110  1  0.43187314  0.26195376  0.89358488  1
  Te  Te111  1  0.42304379  0.58358671  0.23836081  1
  Te  Te112  1  0.44890922  0.57014695  0.59050931  1
  Te  Te113  1  0.44175272  0.56936966  0.89093837  1
  Te  Te114  1  0.42134401  0.91616365  0.26315680  1
  Te  Te115  1  0.39414364  0.92902269  0.60374170  1
  Te  Te116  1  0.38668916  0.89611595  0.89557890  1
  Te  Te117  1  0.76029512  0.23155448  0.26876434  1
  Te  Te118  1  0.74299476  0.27337383  0.58301128  1
  Te  Te119  1  0.75481409  0.24104777  0.93517701  1
  Te  Te120  1  0.74446273  0.57228449  0.23737590  1
  Te  Te121  1  0.76238052  0.59226718  0.57093135  1
  Te  Te122  1  0.76468931  0.59689274  0.90101377  1
  Te  Te123  1  0.75739458  0.90693273  0.26685885  1
  Te  Te124  1  0.76302691  0.93534795  0.55931634  1
  Te  Te125  1  0.74965566  0.91638028  0.92418038  1
  Te  Te126  1  0.25366356  0.24821476  0.06712823  1
  Te  Te127  1  0.26855672  0.24672999  0.33842026  1
  Te  Te128  1  0.26973686  0.27730412  0.73592374  1
  Te  Te129  1  0.24879063  0.58722072  0.07800470  1
  Te  Te130  1  0.24101855  0.58264282  0.41643338  1
  Te  Te131  1  0.25075431  0.56082735  0.76094626  1
  Te  Te132  1  0.25129673  0.90583380  0.07751976  1
  Te  Te133  1  0.24848671  0.92722355  0.41128327  1
  Te  Te134  1  0.18678912  0.86783455  0.73239060  1
  Te  Te135  1  0.57932818  0.25567554  0.07965236  1
  Te  Te136  1  0.57189712  0.22794298  0.40331441  1
  Te  Te137  1  0.58276050  0.27842967  0.72385243  1
  Te  Te138  1  0.57782507  0.53366310  0.08479782  1
  Te  Te139  1  0.57993205  0.58868602  0.41829448  1
  Te  Te140  1  0.55627927  0.58748696  0.75913621  1
  Te  Te141  1  0.57200239  0.92300193  0.09172442  1
  Te  Te142  1  0.58515214  0.91221418  0.42422672  1
  Te  Te143  1  0.57471210  0.91962777  0.75364771  1
  Te  Te144  1  0.89711403  0.26362213  0.10174754  1
  Te  Te145  1  0.92460270  0.28333197  0.40387349  1
  Te  Te146  1  0.91957779  0.24958252  0.75558040  1
  Te  Te147  1  0.92448414  0.57474891  0.08601059  1
  Te  Te148  1  0.93361162  0.56652259  0.42858557  1
  Te  Te149  1  0.92138476  0.62348569  0.73848350  1
  Te  Te150  1  0.88514251  0.92097437  0.08932855  1
  Te  Te151  1  0.90411335  0.90447384  0.40677956  1
  Te  Te152  1  0.91841100  0.92753105  0.73726487  1
  Te  Te153  1  0.21799642  0.11285825  0.27434321  1
  Te  Te154  1  0.26019043  0.09687880  0.57592036  1
  Te  Te155  1  0.24303463  0.08253482  0.92867121  1
  Te  Te156  1  0.25678663  0.41171810  0.26973721  1
  Te  Te157  1  0.23992609  0.40883318  0.56637650  1
  Te  Te158  1  0.26770414  0.42866872  0.90338247  1
  Te  Te159  1  0.25011540  0.74312064  0.23667373  1
  Te  Te160  1  0.26542075  0.74199854  0.60822018  1
  Te  Te161  1  0.25621643  0.74249978  0.89182840  1
  Te  Te162  1  0.56795552  0.08500448  0.25777557  1
  Te  Te163  1  0.57946698  0.08671206  0.58727203  1
  Te  Te164  1  0.58423726  0.09153326  0.91564263  1
  Te  Te165  1  0.59140178  0.42137416  0.22986060  1
  Te  Te166  1  0.55534145  0.43153408  0.60631801  1
  Te  Te167  1  0.56943101  0.40118456  0.90087435  1
  Te  Te168  1  0.57934156  0.73242797  0.23167799  1
  Te  Te169  1  0.58894684  0.74439806  0.58245804  1
  Te  Te170  1  0.56956845  0.72409753  0.91351864  1
  Te  Te171  1  0.90200902  0.08692310  0.24697619  1
  Te  Te172  1  0.91561174  0.07228345  0.56587786  1
  Te  Te173  1  0.91558429  0.09814711  0.93727320  1
  Te  Te174  1  0.90317284  0.39102479  0.26720477  1
  Te  Te175  1  0.90758263  0.41199485  0.57485311  1
  Te  Te176  1  0.92258366  0.42628831  0.92022906  1
  Te  Te177  1  0.91611359  0.75373380  0.26144562  1
  Te  Te178  1  0.93589922  0.73735046  0.59231663  1
  Te  Te179  1  0.91374312  0.77068217  0.92088581  1
