# generated using pymatgen
data_In2Te3
_symmetry_space_group_name_H-M   'P 1'
_cell_length_a   18.89261506
_cell_length_b   18.91662477
_cell_length_c   18.89920928
_cell_angle_alpha   90.01549291
_cell_angle_beta   89.94761479
_cell_angle_gamma   89.99695455
_symmetry_Int_Tables_number   1
_chemical_formula_structural   In2Te3
_chemical_formula_sum   'In72 Te108'
_cell_volume   6754.28156894
_cell_formula_units_Z   36
loop_
 _symmetry_equiv_pos_site_id
 _symmetry_equiv_pos_as_xyz
  1  'x, y, z'
loop_
 _atom_site_type_symbol
 _atom_site_label
 _atom_site_symmetry_multiplicity
 _atom_site_fract_x
 _atom_site_fract_y
 _atom_site_fract_z
 _atom_site_occupancy
  In  In0  1  0.51411795  0.01269502  0.54931561  1
  In  In1  1  0.34643794  0.00767135  0.36315769  1
  In  In2  1  0.34009480  0.67696328  0.68127740  1
  In  In3  1  0.48127791  0.16354809  -0.01665470  1
  In  In4  1  0.00404569  0.66983658  0.33144434  1
  In  In5  1  0.86449234  0.50532478  0.65762803  1
  In  In6  1  0.82776288  0.30158003  0.15833784  1
  In  In7  1  -0.00341676  -0.01857645  -0.01815413  1
  In  In8  1  0.63227703  0.30518594  0.69502570  1
  In  In9  1  0.17473746  0.50993166  0.67667549  1
  In  In10  1  0.66375147  -0.01945222  -0.01047963  1
  In  In11  1  0.18743840  -0.01374581  0.52219222  1
  In  In12  1  -0.00431155  0.82543427  0.50338753  1
  In  In13  1  0.18071025  0.63666838  0.15026196  1
  In  In14  1  0.79768858  0.12846494  0.32649096  1
  In  In15  1  0.00739280  0.47660314  0.15422582  1
  In  In16  1  0.84201730  -0.00693232  0.17339120  1
  In  In17  1  0.49204010  0.63908570  0.14343535  1
  In  In18  1  0.53390858  0.31510374  0.50318547  1
  In  In19  1  0.32330186  0.33891562  -0.01665773  1
  In  In20  1  0.02646991  0.64170491  -0.02130992  1
  In  In21  1  0.50400882  0.34244387  0.17204465  1
  In  In22  1  0.84478199  0.63674522  0.82546671  1
  In  In23  1  0.82159502  0.19641506  -0.00111903  1
  In  In24  1  0.65585560  0.49125596  0.51779027  1
  In  In25  1  0.33847835  0.51225636  0.48028074  1
  In  In26  1  0.48793180  0.83517555  0.34098363  1
  In  In27  1  0.68340484  0.68024859  0.34000615  1
  In  In28  1  0.16660114  0.32203271  0.50561639  1
  In  In29  1  0.35493118  0.35083059  0.69324664  1
  In  In30  1  0.66105428  0.83283566  0.16463245  1
  In  In31  1  0.00034533  0.81267011  0.81930482  1
  In  In32  1  0.83634475  0.68696631  0.49469336  1
  In  In33  1  0.15810963  0.18247908  0.33179371  1
  In  In34  1  0.32766298  0.80746906  0.16963856  1
  In  In35  1  0.49605900  0.51174665  0.32232173  1
  In  In36  1  0.82293810  0.52059267  0.31781411  1
  In  In37  1  0.82360133  0.16621576  0.66645227  1
  In  In38  1  -0.00837791  0.81562364  0.17235668  1
  In  In39  1  0.84198030  0.49275607  -0.00535595  1
  In  In40  1  0.32498270  0.80318408  0.85896573  1
  In  In41  1  0.17477532  0.14432714  -0.02132970  1
  In  In42  1  0.18345368  0.34839795  0.81750908  1
  In  In43  1  0.82662831  0.83360241  0.67484244  1
  In  In44  1  0.67511164  0.34649759  -0.02214328  1
  In  In45  1  0.20221317  0.37827475  0.17644683  1
  In  In46  1  0.01150280  -0.01522831  0.36126870  1
  In  In47  1  -0.02263294  0.18238587  0.14684911  1
  In  In48  1  0.80163737  0.00669949  0.81911168  1
  In  In49  1  -0.00371369  0.32038059  0.35112942  1
  In  In50  1  0.49555443  0.69369593  0.51475168  1
  In  In51  1  0.65276646  0.49925756  0.82221796  1
  In  In52  1  0.63615490  0.14540165  0.16543450  1
  In  In53  1  0.32415765  -0.00283248  -0.01305140  1
  In  In54  1  0.46904332  0.50793137  -0.02489287  1
  In  In55  1  0.82334577  0.68954958  0.15908653  1
  In  In56  1  0.00801122  0.16252758  0.82622196  1
  In  In57  1  0.35106559  0.84451777  0.50404932  1
  In  In58  1  0.63460367  0.00088450  0.33481504  1
  In  In59  1  0.03811968  0.50337266  0.50797792  1
  In  In60  1  0.53801817  0.82476794  -0.02274188  1
  In  In61  1  -0.01305915  0.18650373  0.51556753  1
  In  In62  1  0.84512263  0.35203992  0.83620314  1
  In  In63  1  0.34872184  0.19628816  0.17177373  1
  In  In64  1  0.82394326  0.35778114  0.49887813  1
  In  In65  1  0.52455685  -0.01158922  0.80246366  1
  In  In66  1  0.17877181  -0.01290545  0.16712098  1
  In  In67  1  0.16314970  -0.00733005  0.83214248  1
  In  In68  1  0.17013860  0.82309206  0.67365239  1
  In  In69  1  0.63346626  0.65874134  0.67603619  1
  In  In70  1  0.79510839  0.00565920  0.50504389  1
  In  In71  1  0.32243813  0.16661531  0.51001389  1
  Te  Te72  1  0.07931628  0.07027868  0.08102611  1
  Te  Te73  1  0.09191163  0.09226110  0.43488586  1
  Te  Te74  1  0.08269713  0.07192815  0.73940312  1
  Te  Te75  1  0.11753822  0.43077838  0.06855597  1
  Te  Te76  1  0.10166521  0.41675945  0.39913413  1
  Te  Te77  1  0.07851730  0.41792390  0.73950455  1
  Te  Te78  1  0.08458064  0.73901440  0.08200089  1
  Te  Te79  1  0.08854005  0.74328119  0.42501772  1
  Te  Te80  1  0.10170621  0.72495803  0.75928247  1
  Te  Te81  1  0.40409947  0.08223105  0.08549463  1
  Te  Te82  1  0.44021596  0.09535596  0.44197383  1
  Te  Te83  1  0.46498832  0.10594664  0.72441746  1
  Te  Te84  1  0.40628137  0.41755849  0.08392488  1
  Te  Te85  1  0.44197862  0.41547325  0.42552034  1
  Te  Te86  1  0.40533425  0.46414779  0.77462089  1
  Te  Te87  1  0.43407090  0.76032009  0.07169698  1
  Te  Te88  1  0.39668021  0.73300351  0.40635773  1
  Te  Te89  1  0.43028336  0.75458939  0.76782322  1
  Te  Te90  1  0.75667101  0.08243917  0.08354844  1
  Te  Te91  1  0.69632855  0.10744410  0.44355773  1
  Te  Te92  1  0.71274869  0.08775622  0.73047275  1
  Te  Te93  1  0.75070066  0.41537673  0.08950617  1
  Te  Te94  1  0.73205694  0.42830976  0.40089722  1
  Te  Te95  1  0.75585008  0.42535613  0.73626358  1
  Te  Te96  1  0.73420502  0.75555415  0.06404362  1
  Te  Te97  1  0.72786157  0.77157184  0.44528102  1
  Te  Te98  1  0.74626697  0.73318263  0.75799132  1
  Te  Te99  1  0.08287111  0.26734273  0.23103776  1
  Te  Te100  1  0.09815428  0.23134372  0.59887975  1
  Te  Te101  1  0.09468220  0.25125493  0.91120086  1
  Te  Te102  1  0.08048689  0.56721470  0.25077386  1
  Te  Te103  1  0.10937092  0.60528314  0.58375393  1
  Te  Te104  1  0.14039724  0.57854650  0.90927708  1
  Te  Te105  1  0.08562117  0.90378252  0.25504175  1
  Te  Te106  1  0.07572019  0.91583564  0.59667187  1
  Te  Te107  1  0.09446894  0.88738915  0.91803947  1
  Te  Te108  1  0.43127183  0.26135056  0.27193084  1
  Te  Te109  1  0.41726418  0.26006753  0.58392548  1
  Te  Te110  1  0.40800238  0.25647272  0.89177389  1
  Te  Te111  1  0.39309092  0.58321856  0.24053555  1
  Te  Te112  1  0.42060237  0.58323126  0.58562267  1
  Te  Te113  1  0.38755742  0.62768452  0.93387723  1
  Te  Te114  1  0.40097182  0.91987154  0.25078289  1
  Te  Te115  1  0.39977783  0.93831150  0.60729024  1
  Te  Te116  1  0.43067758  0.91924554  0.91035773  1
  Te  Te117  1  0.72379377  0.23982318  0.24959197  1
  Te  Te118  1  0.74185898  0.27052670  0.59037412  1
  Te  Te119  1  0.73970132  0.24699130  0.88285684  1
  Te  Te120  1  0.72651190  0.59037508  0.22429801  1
  Te  Te121  1  0.74993942  0.59000155  0.58801661  1
  Te  Te122  1  0.74046495  0.57745866  0.92017387  1
  Te  Te123  1  0.74192548  0.91940507  0.26138625  1
  Te  Te124  1  0.72363890  0.92318851  0.60973990  1
  Te  Te125  1  0.74954643  0.89412431  0.90294023  1
  Te  Te126  1  0.23919503  0.24489553  0.07860141  1
  Te  Te127  1  0.26358423  0.26324768  0.40233785  1
  Te  Te128  1  0.26087473  0.24913576  0.74145142  1
  Te  Te129  1  0.28781267  0.60209561  0.05172832  1
  Te  Te130  1  0.23189319  0.54624318  0.38570260  1
  Te  Te131  1  0.28965480  0.55949968  0.76490171  1
  Te  Te132  1  0.24607886  0.89520104  0.06759297  1
  Te  Te133  1  0.24354211  0.90578613  0.40840989  1
  Te  Te134  1  0.26453307  0.90351924  0.76081253  1
  Te  Te135  1  0.58584410  0.24937135  0.06407924  1
  Te  Te136  1  0.62454296  0.24431382  0.41451789  1
  Te  Te137  1  0.52754896  0.24045868  0.77709058  1
  Te  Te138  1  0.58002603  0.57532786  0.04571295  1
  Te  Te139  1  0.58603661  0.59705898  0.43051296  1
  Te  Te140  1  0.54299869  0.58291836  0.76645378  1
  Te  Te141  1  0.56749814  0.92828177  0.09284315  1
  Te  Te142  1  0.57062889  0.91314790  0.44016627  1
  Te  Te143  1  0.61156418  0.90153791  0.71957976  1
  Te  Te144  1  0.93389220  0.28716820  0.04611847  1
  Te  Te145  1  0.88127013  0.23594809  0.40933245  1
  Te  Te146  1  0.91989317  0.25525590  0.74387055  1
  Te  Te147  1  0.92092975  0.58840588  0.09372408  1
  Te  Te148  1  0.91581857  0.57009601  0.42820760  1
  Te  Te149  1  0.95566846  0.56775342  0.75542728  1
  Te  Te150  1  0.90739898  0.89879013  0.07343128  1
  Te  Te151  1  0.89544311  0.91532066  0.42860957  1
  Te  Te152  1  0.91526743  0.92664772  0.75665130  1
  Te  Te153  1  0.25198000  0.08670479  0.25773622  1
  Te  Te154  1  0.27327267  0.06716737  0.60897054  1
  Te  Te155  1  0.27470555  0.09124415  0.87867749  1
  Te  Te156  1  0.28246028  0.46194953  0.26734838  1
  Te  Te157  1  0.25848831  0.41707471  0.58052657  1
  Te  Te158  1  0.23576182  0.44421055  0.92159765  1
  Te  Te159  1  0.23289660  0.73209718  0.25100729  1
  Te  Te160  1  0.25718254  0.74668858  0.57404303  1
  Te  Te161  1  0.24279765  0.69886059  0.93159891  1
  Te  Te162  1  0.54099960  0.08319291  0.25742288  1
  Te  Te163  1  0.58574935  0.11764098  0.62897771  1
  Te  Te164  1  0.58806028  0.08184620  0.90823608  1
  Te  Te165  1  0.59294895  0.43264736  0.24516553  1
  Te  Te166  1  0.56841323  0.41893604  0.61688729  1
  Te  Te167  1  0.56096041  0.40619641  0.90091971  1
  Te  Te168  1  0.56896022  0.74124605  0.25122295  1
  Te  Te169  1  0.56203916  0.77749489  0.61895375  1
  Te  Te170  1  0.63336369  0.78492151  0.87293915  1
  Te  Te171  1  0.93815128  0.08111422  0.26020203  1
  Te  Te172  1  0.90954162  0.07296537  0.58185086  1
  Te  Te173  1  0.90411495  0.08640062  0.92089567  1
  Te  Te174  1  0.90438143  0.40525847  0.25546984  1
  Te  Te175  1  0.94480892  0.40158090  0.57759114  1
  Te  Te176  1  0.94316841  0.44261970  0.90001671  1
  Te  Te177  1  0.89407985  0.75866601  0.27470506  1
  Te  Te178  1  0.92463795  0.73756046  0.60700445  1
  Te  Te179  1  0.91847220  0.73221870  0.92025287  1
