# generated using pymatgen
data_In2Te3
_symmetry_space_group_name_H-M   'P 1'
_cell_length_a   18.99811006
_cell_length_b   19.00317899
_cell_length_c   18.99350143
_cell_angle_alpha   90.01741503
_cell_angle_beta   89.98235540
_cell_angle_gamma   90.10137740
_symmetry_Int_Tables_number   1
_chemical_formula_structural   In2Te3
_chemical_formula_sum   'In72 Te108'
_cell_volume   6857.10771521
_cell_formula_units_Z   36
loop_
 _symmetry_equiv_pos_site_id
 _symmetry_equiv_pos_as_xyz
  1  'x, y, z'
loop_
 _atom_site_type_symbol
 _atom_site_label
 _atom_site_symmetry_multiplicity
 _atom_site_fract_x
 _atom_site_fract_y
 _atom_site_fract_z
 _atom_site_occupancy
  In  In0  1  -0.00325356  0.85634826  0.19729902  1
  In  In1  1  0.01056240  0.34513305  0.00496028  1
  In  In2  1  0.52005816  0.51298342  0.30858842  1
  In  In3  1  0.32103121  0.25079539  0.80428016  1
  In  In4  1  0.33974611  0.63248026  0.66002004  1
  In  In5  1  0.68128890  0.51643609  0.15365573  1
  In  In6  1  0.16421930  0.47745046  0.65904873  1
  In  In7  1  0.49255602  0.33225455  0.14652551  1
  In  In8  1  0.33582717  0.83772991  0.87281144  1
  In  In9  1  0.49021951  0.82833726  0.66059107  1
  In  In10  1  0.66050889  0.17534960  0.17463171  1
  In  In11  1  0.51730918  -0.03578701  0.46063288  1
  In  In12  1  0.66303319  0.35348951  0.67109255  1
  In  In13  1  0.15989414  0.81571554  0.68951996  1
  In  In14  1  0.67588425  0.48052234  0.49174286  1
  In  In15  1  0.51810425  0.68359290  0.14873880  1
  In  In16  1  0.64220851  0.16216382  0.49453996  1
  In  In17  1  0.82936894  0.80580324  -0.01284646  1
  In  In18  1  0.20681995  0.34030802  0.18509708  1
  In  In19  1  0.82137731  0.17604339  0.68811408  1
  In  In20  1  0.86167662  0.67029692  0.16538148  1
  In  In21  1  0.83121350  0.67912581  0.48661843  1
  In  In22  1  0.16411349  0.00891931  0.49374458  1
  In  In23  1  0.82417644  0.17285693  0.01458754  1
  In  In24  1  0.80250253  0.01506869  0.49884799  1
  In  In25  1  0.36386116  0.53910447  0.46512469  1
  In  In26  1  -0.00468518  0.17949395  0.82622750  1
  In  In27  1  0.63906144  0.83844450  0.81282060  1
  In  In28  1  0.34450263  0.00059533  0.66851000  1
  In  In29  1  0.81332792  -0.01680541  0.83143055  1
  In  In30  1  0.20090420  0.47943406  -0.00730838  1
  In  In31  1  0.16895827  0.34407233  0.49279435  1
  In  In32  1  0.00531610  0.48312681  0.49547215  1
  In  In33  1  0.00267467  0.48606823  0.82546625  1
  In  In34  1  0.34474804  0.16991829  0.20056926  1
  In  In35  1  0.01295031  0.65231078  0.31038868  1
  In  In36  1  -0.00518853  0.36688409  0.31646871  1
  In  In37  1  -0.01771196  0.00266384  0.02374046  1
  In  In38  1  0.67701008  0.69697927  0.32745217  1
  In  In39  1  0.17563092  0.15545342  0.03147386  1
  In  In40  1  0.81539240  0.01582119  0.18845618  1
  In  In41  1  -0.00579007  0.79284417  0.85674265  1
  In  In42  1  0.34633628  0.16477151  0.51036550  1
  In  In43  1  0.32425881  0.47180979  0.81351198  1
  In  In44  1  0.65371675  0.65548216  -0.02192816  1
  In  In45  1  -0.00785162  0.85654107  0.50484567  1
  In  In46  1  0.33358100  0.65701453  0.01006345  1
  In  In47  1  0.81630469  0.51057688  -0.00722206  1
  In  In48  1  0.51229892  -0.00006309  0.20185423  1
  In  In49  1  0.34244652  -0.00033261  0.01781530  1
  In  In50  1  0.33958768  0.50379074  0.15366837  1
  In  In51  1  0.13375530  -0.00486783  0.84245263  1
  In  In52  1  0.16734481  0.65597618  0.50135811  1
  In  In53  1  0.35493895  0.78952559  0.46486704  1
  In  In54  1  0.17054091  0.80478377  0.30917537  1
  In  In55  1  0.15330438  0.18123033  0.35747011  1
  In  In56  1  0.84918036  0.48146037  0.66100106  1
  In  In57  1  0.81071683  0.82856767  0.64711649  1
  In  In58  1  0.19093920  0.83556619  0.03729429  1
  In  In59  1  0.67474347  0.31522620  0.34294099  1
  In  In60  1  0.65155879  0.33634584  -0.02090642  1
  In  In61  1  0.64192423  0.13484794  0.86775547  1
  In  In62  1  0.01535267  0.64990410  0.01884010  1
  In  In63  1  0.32300835  -0.00117819  0.35030556  1
  In  In64  1  0.66419971  0.85009539  0.16242572  1
  In  In65  1  0.65585025  0.67443246  0.66385836  1
  In  In66  1  0.49410396  0.65837821  0.82556661  1
  In  In67  1  0.84436205  0.32579676  0.48811606  1
  In  In68  1  0.00371937  0.14983277  0.15711230  1
  In  In69  1  0.48966322  0.33411944  0.82579504  1
  In  In70  1  -0.03993072  0.00471668  0.66379931  1
  In  In71  1  0.49669622  0.17647411  0.65684125  1
  Te  Te72  1  0.10287817  0.04411823  0.10357820  1
  Te  Te73  1  0.06377456  0.09813821  0.43856844  1
  Te  Te74  1  0.07146325  0.08445631  0.73658759  1
  Te  Te75  1  0.10895785  0.41646033  0.09515741  1
  Te  Te76  1  0.10442999  0.44061065  0.39026944  1
  Te  Te77  1  0.09867493  0.39019464  0.76131628  1
  Te  Te78  1  0.07289642  0.76489627  0.10203091  1
  Te  Te79  1  0.07560692  0.75128305  0.42668194  1
  Te  Te80  1  0.07705197  0.71984184  0.76125068  1
  Te  Te81  1  0.42784634  0.08866632  0.10457181  1
  Te  Te82  1  0.43075363  0.08293022  0.41392520  1
  Te  Te83  1  0.39062789  0.11867830  0.75063519  1
  Te  Te84  1  0.40868303  0.41520464  0.06075961  1
  Te  Te85  1  0.42990070  0.43021312  0.39069766  1
  Te  Te86  1  0.40895994  0.39820766  0.71716020  1
  Te  Te87  1  0.42165432  0.75870314  0.06737271  1
  Te  Te88  1  0.47563807  0.75482154  0.39539456  1
  Te  Te89  1  0.39150888  0.75461360  0.75462038  1
  Te  Te90  1  0.73306487  0.07269908  0.07711842  1
  Te  Te91  1  0.74690430  0.11437377  0.40374638  1
  Te  Te92  1  0.72729170  0.07523719  0.75089568  1
  Te  Te93  1  0.74862848  0.40442328  0.07687378  1
  Te  Te94  1  0.77487205  0.42179725  0.39524525  1
  Te  Te95  1  0.74941567  0.43265571  0.75840761  1
  Te  Te96  1  0.73741002  0.73028864  0.08828236  1
  Te  Te97  1  0.73071259  0.77971566  0.44098370  1
  Te  Te98  1  0.74901218  0.74784515  0.75908642  1
  Te  Te99  1  0.09357011  0.25002926  0.23399879  1
  Te  Te100  1  0.10973983  0.25876422  0.59504493  1
  Te  Te101  1  0.08522778  0.23322606  0.93494984  1
  Te  Te102  1  0.12077010  0.62310983  0.21724489  1
  Te  Te103  1  0.07293713  0.57909756  0.59132880  1
  Te  Te104  1  0.09404755  0.56205550  0.92393367  1
  Te  Te105  1  0.09803198  0.92603249  0.27549556  1
  Te  Te106  1  0.08695537  0.92161788  0.60675360  1
  Te  Te107  1  0.06817622  0.89828611  0.93926647  1
  Te  Te108  1  0.43770318  0.26341176  0.26257615  1
  Te  Te109  1  0.40403738  0.27255425  0.59389803  1
  Te  Te110  1  0.42217672  0.23161043  0.90659382  1
  Te  Te111  1  0.42195948  0.60356423  0.23509201  1
  Te  Te112  1  0.44866748  0.60429736  0.56779374  1
  Te  Te113  1  0.40073625  0.57050278  0.90568643  1
  Te  Te114  1  0.39899283  0.91682821  0.25413788  1
  Te  Te115  1  0.40283332  0.91297971  0.55880245  1
  Te  Te116  1  0.42868887  0.95020711  0.90257437  1
  Te  Te117  1  0.76521022  0.23947354  0.25599626  1
  Te  Te118  1  0.74184537  0.25713037  0.57974500  1
  Te  Te119  1  0.74708101  0.24102429  0.90628525  1
  Te  Te120  1  0.76307038  0.59487504  0.25360867  1
  Te  Te121  1  0.75545092  0.58294133  0.57855481  1
  Te  Te122  1  0.72204374  0.55956244  0.89015120  1
  Te  Te123  1  0.73492945  0.92007452  0.27342333  1
  Te  Te124  1  0.73248230  0.94259570  0.60678580  1
  Te  Te125  1  0.73024806  0.90024935  0.92494861  1
  Te  Te126  1  0.27810388  0.24954000  0.08738331  1
  Te  Te127  1  0.26893141  0.25681620  0.41677522  1
  Te  Te128  1  0.20551476  0.27840341  0.70616587  1
  Te  Te129  1  0.22458286  0.59873841  0.10161586  1
  Te  Te130  1  0.25649078  0.61278167  0.38756813  1
  Te  Te131  1  0.23591472  0.57885055  0.75261887  1
  Te  Te132  1  0.29058658  0.90445091  0.12063660  1
  Te  Te133  1  0.24187162  0.89457295  0.43268282  1
  Te  Te134  1  0.24960280  0.92119001  0.76417213  1
  Te  Te135  1  0.57620932  0.23570038  0.06370148  1
  Te  Te136  1  0.57001221  0.27904065  0.44052594  1
  Te  Te137  1  0.59568032  0.23787790  0.75573645  1
  Te  Te138  1  0.56865665  0.56636576  0.06684199  1
  Te  Te139  1  0.60689111  0.58710408  0.40777764  1
  Te  Te140  1  0.55702434  0.58019937  0.71949111  1
  Te  Te141  1  0.57410185  0.93396471  0.08251313  1
  Te  Te142  1  0.64366913  0.91555249  0.40125536  1
  Te  Te143  1  0.55352841  0.93278739  0.74184715  1
  Te  Te144  1  0.91919580  0.25816225  0.09311090  1
  Te  Te145  1  0.94508208  0.26171634  0.40324804  1
  Te  Te146  1  0.91082660  0.27185792  0.75314170  1
  Te  Te147  1  0.93161687  0.54818023  0.09999843  1
  Te  Te148  1  0.92544166  0.58377686  0.41472053  1
  Te  Te149  1  0.92341393  0.57729949  0.74294828  1
  Te  Te150  1  0.88710224  0.90222262  0.08994656  1
  Te  Te151  1  0.89644193  0.92931118  0.42455972  1
  Te  Te152  1  0.92125611  0.89845601  0.76664774  1
  Te  Te153  1  0.23567287  0.08881061  0.26735097  1
  Te  Te154  1  0.24520286  0.08820582  0.59347731  1
  Te  Te155  1  0.23819127  0.06732078  0.92514270  1
  Te  Te156  1  0.28892438  0.42754408  0.26942934  1
  Te  Te157  1  0.26080239  0.45246277  0.54634422  1
  Te  Te158  1  0.25551370  0.37401059  0.90240765  1
  Te  Te159  1  0.28219143  0.71790918  0.27824482  1
  Te  Te160  1  0.25450954  0.74556498  0.59032156  1
  Te  Te161  1  0.23281494  0.74259433  0.92659785  1
  Te  Te162  1  0.59809281  0.09192184  0.27783696  1
  Te  Te163  1  0.55891903  0.06548550  0.57363820  1
  Te  Te164  1  0.56026585  0.03199332  0.93055158  1
  Te  Te165  1  0.60713161  0.40918825  0.23445059  1
  Te  Te166  1  0.57392699  0.40476853  0.56601564  1
  Te  Te167  1  0.57509758  0.42968563  0.89777350  1
  Te  Te168  1  0.56054728  0.77732230  0.26676685  1
  Te  Te169  1  0.58174805  0.75932983  0.56972199  1
  Te  Te170  1  0.56144981  0.75845724  0.91721805  1
  Te  Te171  1  0.93239566  0.06971820  0.25580708  1
  Te  Te172  1  0.90383754  0.11165686  0.57945348  1
  Te  Te173  1  0.90762593  0.07753216  0.91401967  1
  Te  Te174  1  0.93027468  0.46129421  0.22988374  1
  Te  Te175  1  0.94177946  0.38450480  0.59043433  1
  Te  Te176  1  0.90650663  0.41209569  0.91888876  1
  Te  Te177  1  0.90947480  0.76172151  0.27623448  1
  Te  Te178  1  0.92239211  0.74854357  0.58774919  1
  Te  Te179  1  0.90266901  0.69094394  0.92384045  1
