# generated using pymatgen
data_In2Te3
_symmetry_space_group_name_H-M   'P 1'
_cell_length_a   18.92231381
_cell_length_b   18.89888302
_cell_length_c   18.90466762
_cell_angle_alpha   89.97999377
_cell_angle_beta   89.91225945
_cell_angle_gamma   90.10890984
_symmetry_Int_Tables_number   1
_chemical_formula_structural   In2Te3
_chemical_formula_sum   'In72 Te108'
_cell_volume   6760.48887994
_cell_formula_units_Z   36
loop_
 _symmetry_equiv_pos_site_id
 _symmetry_equiv_pos_as_xyz
  1  'x, y, z'
loop_
 _atom_site_type_symbol
 _atom_site_label
 _atom_site_symmetry_multiplicity
 _atom_site_fract_x
 _atom_site_fract_y
 _atom_site_fract_z
 _atom_site_occupancy
  In  In0  1  0.54116703  0.65329083  0.82113527  1
  In  In1  1  -0.00510036  0.33094132  0.33709431  1
  In  In2  1  0.34014103  -0.01204935  0.01332517  1
  In  In3  1  -0.02146557  0.46494284  0.14146688  1
  In  In4  1  0.31558949  0.84228140  0.80548655  1
  In  In5  1  0.71686103  0.32933012  0.31472726  1
  In  In6  1  0.31786671  0.66327996  0.33239250  1
  In  In7  1  0.64843218  0.64444370  0.30756755  1
  In  In8  1  0.69181612  0.03775974  -0.00996409  1
  In  In9  1  0.52290004  0.33445058  0.81719886  1
  In  In10  1  0.14544643  0.66970581  0.83849206  1
  In  In11  1  0.33027900  0.83684809  0.47600011  1
  In  In12  1  -0.02785807  -0.01432903  -0.07191478  1
  In  In13  1  0.69331373  0.47434434  0.14950771  1
  In  In14  1  0.51260195  0.02250239  0.85675069  1
  In  In15  1  0.51239796  0.48317591  0.35973266  1
  In  In16  1  0.30918801  0.17985301  0.48856627  1
  In  In17  1  0.35609428  0.33862100  0.00695888  1
  In  In18  1  0.67412164  0.17727447  0.52479174  1
  In  In19  1  0.86462641  0.82294391  -0.03019458  1
  In  In20  1  0.65490491  0.82620915  0.49369878  1
  In  In21  1  0.17013437  0.35421128  0.16259172  1
  In  In22  1  -0.00150022  0.66750477  0.31754441  1
  In  In23  1  0.85851437  0.50380133  0.69031059  1
  In  In24  1  0.66700501  0.00568974  0.34554865  1
  In  In25  1  0.15216256  0.48623081  0.32607646  1
  In  In26  1  0.65015414  0.83990981  0.85017438  1
  In  In27  1  0.34101933  0.13885978  0.17152197  1
  In  In28  1  0.84712939  0.65676294  0.49744750  1
  In  In29  1  -0.03965625  0.18817948  0.15189507  1
  In  In30  1  0.14987290  0.47272351  0.66569572  1
  In  In31  1  0.31493708  0.01608047  0.34816835  1
  In  In32  1  0.49467224  0.18219627  0.34010729  1
  In  In33  1  0.46994744  0.82010174  0.32668819  1
  In  In34  1  0.16914494  0.51790724  -0.00713237  1
  In  In35  1  0.33076236  0.67856652  0.02180606  1
  In  In36  1  0.50260507  0.82972352  0.67534692  1
  In  In37  1  0.31742997  0.30384707  0.69137707  1
  In  In38  1  0.32100923  -0.00829118  0.65847619  1
  In  In39  1  -0.00968050  0.30074982  0.67710703  1
  In  In40  1  0.48560040  0.66600921  0.16159619  1
  In  In41  1  0.34055736  0.64357004  0.64427746  1
  In  In42  1  0.16250319  0.84097577  0.33126580  1
  In  In43  1  0.83601279  0.64848315  0.15069511  1
  In  In44  1  0.53457601  0.50023804  0.00268696  1
  In  In45  1  0.14651915  0.67601199  0.12016966  1
  In  In46  1  0.84319643  0.01243427  0.53147723  1
  In  In47  1  0.73955079  0.43263444  0.85878711  1
  In  In48  1  0.52213143  0.16047159  0.68101850  1
  In  In49  1  0.70978323  0.03404362  0.68470960  1
  In  In50  1  0.02164956  0.51290244  0.50230078  1
  In  In51  1  0.51627989  0.34581967  0.52830614  1
  In  In52  1  0.34202510  0.48252213  0.52490945  1
  In  In53  1  0.16232419  0.66482133  0.52881248  1
  In  In54  1  -0.02141858  0.84026418  0.51829406  1
  In  In55  1  0.30983614  0.17951611  0.83462171  1
  In  In56  1  0.67152816  0.65972602  -0.04243478  1
  In  In57  1  0.52443879  0.30678245  0.14489923  1
  In  In58  1  0.34058087  0.50448297  0.84609725  1
  In  In59  1  0.02298409  0.03962003  0.35343923  1
  In  In60  1  0.82913739  0.33163815  0.49569138  1
  In  In61  1  0.67031854  0.85364586  0.13578226  1
  In  In62  1  0.82755345  0.83490343  0.30962297  1
  In  In63  1  0.15264047  -0.00050680  0.15413155  1
  In  In64  1  0.14817634  0.31238882  0.82546706  1
  In  In65  1  0.84568295  0.85303084  0.70411665  1
  In  In66  1  0.67599076  0.63993525  0.68000753  1
  In  In67  1  -0.00741938  0.04629191  0.68580556  1
  In  In68  1  0.13405043  0.85045296  0.66737723  1
  In  In69  1  0.49525465  0.00346847  0.17572645  1
  In  In70  1  0.15377199  0.17892926  -0.00797983  1
  In  In71  1  0.84085098  0.04502395  0.12552986  1
  Te  Te72  1  0.06257239  0.09495388  0.07886601  1
  Te  Te73  1  0.09651145  0.14431945  0.43048348  1
  Te  Te74  1  0.07080148  0.12009507  0.78942337  1
  Te  Te75  1  0.08316889  0.40303004  0.04895598  1
  Te  Te76  1  0.09535523  0.39858888  0.43462405  1
  Te  Te77  1  0.05336207  0.41421631  0.76607154  1
  Te  Te78  1  0.07791493  0.75582969  0.01878245  1
  Te  Te79  1  0.07287744  0.74720463  0.42968386  1
  Te  Te80  1  0.05871009  0.76659186  0.76502546  1
  Te  Te81  1  0.43656547  0.09539284  0.06372680  1
  Te  Te82  1  0.42128718  0.08574608  0.43016220  1
  Te  Te83  1  0.40730236  0.08155005  0.75549733  1
  Te  Te84  1  0.43691923  0.42907799  0.09554915  1
  Te  Te85  1  0.40942122  0.39103746  0.42431155  1
  Te  Te86  1  0.41015051  0.41104250  0.74884802  1
  Te  Te87  1  0.40848778  0.77402842  0.10195053  1
  Te  Te88  1  0.41946937  0.72260246  0.43335303  1
  Te  Te89  1  0.41726932  0.72835056  0.75392519  1
  Te  Te90  1  0.72739304  0.14740496  0.09904994  1
  Te  Te91  1  0.75810153  0.09118823  0.43006254  1
  Te  Te92  1  0.81301538  0.09817385  0.77269985  1
  Te  Te93  1  0.78665501  0.38540923  0.08038974  1
  Te  Te94  1  0.72813008  0.41759165  0.43017756  1
  Te  Te95  1  0.77126758  0.38612660  0.71738372  1
  Te  Te96  1  0.75673046  0.75279009  0.06318361  1
  Te  Te97  1  0.75374347  0.74304801  0.40823713  1
  Te  Te98  1  0.73798285  0.75742120  0.75887595  1
  Te  Te99  1  0.07407562  0.25754541  0.22845423  1
  Te  Te100  1  0.05325683  0.22275888  0.56679581  1
  Te  Te101  1  0.04412305  0.23213459  0.90216449  1
  Te  Te102  1  0.07895358  0.57497621  0.22734905  1
  Te  Te103  1  0.06594563  0.59566774  0.62287155  1
  Te  Te104  1  0.06459436  0.56643165  0.90334276  1
  Te  Te105  1  0.06346614  0.92548913  0.25618255  1
  Te  Te106  1  0.06025713  0.95025998  0.58090244  1
  Te  Te107  1  0.09117957  0.90169980  0.96666187  1
  Te  Te108  1  0.41061284  0.25572221  0.23930692  1
  Te  Te109  1  0.42285517  0.23874871  0.59603334  1
  Te  Te110  1  0.42472243  0.25143484  0.90423574  1
  Te  Te111  1  0.42638061  0.57813288  0.26838708  1
  Te  Te112  1  0.45129393  0.55386032  0.59954312  1
  Te  Te113  1  0.43010231  0.58888383  0.93357027  1
  Te  Te114  1  0.38730064  0.92319510  0.25024223  1
  Te  Te115  1  0.42073136  0.91109080  0.57622724  1
  Te  Te116  1  0.41237529  0.91398916  0.89957731  1
  Te  Te117  1  0.75999645  0.21648667  0.23565518  1
  Te  Te118  1  0.76078210  0.26148026  0.61096165  1
  Te  Te119  1  0.79474483  0.30257983  0.92910313  1
  Te  Te120  1  0.76501772  0.56483059  0.25522313  1
  Te  Te121  1  0.76372582  0.56287099  0.58177262  1
  Te  Te122  1  0.78367728  0.57011516  0.91985094  1
  Te  Te123  1  0.75302644  0.94298568  0.22833178  1
  Te  Te124  1  0.74892169  0.90286719  0.58789340  1
  Te  Te125  1  0.75725026  0.92193430  0.91600431  1
  Te  Te126  1  0.26081726  0.24370926  0.08254412  1
  Te  Te127  1  0.22173817  0.22190089  0.38009980  1
  Te  Te128  1  0.20103489  0.20542716  0.72628094  1
  Te  Te129  1  0.26131491  0.56969762  0.10032972  1
  Te  Te130  1  0.24514208  0.57614500  0.43693114  1
  Te  Te131  1  0.24822399  0.56967099  0.74288930  1
  Te  Te132  1  0.22833905  0.90408729  0.06801862  1
  Te  Te133  1  0.21986265  0.93322443  0.43643458  1
  Te  Te134  1  0.21278033  0.94289071  0.75957059  1
  Te  Te135  1  0.60340967  0.22972640  0.05056964  1
  Te  Te136  1  0.59529286  0.26078851  0.42285546  1
  Te  Te137  1  0.62078291  0.23957588  0.75738314  1
  Te  Te138  1  0.60561552  0.59808494  0.09695368  1
  Te  Te139  1  0.59832271  0.57981187  0.42839380  1
  Te  Te140  1  0.61068720  0.53464805  0.76573268  1
  Te  Te141  1  0.58202722  0.94864960  0.06156927  1
  Te  Te142  1  0.56404882  0.91330982  0.40879547  1
  Te  Te143  1  0.58761563  0.93460364  0.74839794  1
  Te  Te144  1  0.89879494  0.27973461  0.05308281  1
  Te  Te145  1  0.89993132  0.24032367  0.40508040  1
  Te  Te146  1  0.92008665  0.21342846  0.77752134  1
  Te  Te147  1  0.93395558  0.58245714  0.06481852  1
  Te  Te148  1  0.92185437  0.56571688  0.40074284  1
  Te  Te149  1  0.86775398  0.61522500  0.78887325  1
  Te  Te150  1  0.91854315  0.92897621  0.06761216  1
  Te  Te151  1  0.90036568  0.92001605  0.41509062  1
  Te  Te152  1  0.94353664  0.93684518  0.78074500  1
  Te  Te153  1  0.22148074  0.09328840  0.25493211  1
  Te  Te154  1  0.24088269  0.08578106  0.57967897  1
  Te  Te155  1  0.24722109  0.07774783  0.92831634  1
  Te  Te156  1  0.26148171  0.41896023  0.25678481  1
  Te  Te157  1  0.24105118  0.38324670  0.58470940  1
  Te  Te158  1  0.24924815  0.39840025  0.90873165  1
  Te  Te159  1  0.22733526  0.74160920  0.23900517  1
  Te  Te160  1  0.25084004  0.76814671  0.59967131  1
  Te  Te161  1  0.25406617  0.74798000  0.90847516  1
  Te  Te162  1  0.58657058  0.09677902  0.25378942  1
  Te  Te163  1  0.59267134  0.06518125  0.58605288  1
  Te  Te164  1  0.61872658  0.12102654  0.88936609  1
  Te  Te165  1  0.59320909  0.40727013  0.24563528  1
  Te  Te166  1  0.56881176  0.44458983  0.62145322  1
  Te  Te167  1  0.60395879  0.38830585  0.93524472  1
  Te  Te168  1  0.59505499  0.77459183  0.24456890  1
  Te  Te169  1  0.58581004  0.73358132  0.59242453  1
  Te  Te170  1  0.55710970  0.75795938  0.93554686  1
  Te  Te171  1  0.91547301  0.08397065  0.25779323  1
  Te  Te172  1  0.92689883  0.12866868  0.57611766  1
  Te  Te173  1  0.86472567  0.08834235  0.91982114  1
  Te  Te174  1  0.90084457  0.40977065  0.25300013  1
  Te  Te175  1  0.93568091  0.41479626  0.58095456  1
  Te  Te176  1  0.88277790  0.41882870  0.89926303  1
  Te  Te177  1  0.92366271  0.75727326  0.22154641  1
  Te  Te178  1  0.90445769  0.74407592  0.60757267  1
  Te  Te179  1  0.92854745  0.73572880  0.86883783  1
