# generated using pymatgen
data_In2Te3
_symmetry_space_group_name_H-M   'P 1'
_cell_length_a   19.00781094
_cell_length_b   19.01449426
_cell_length_c   19.02725625
_cell_angle_alpha   90.06833457
_cell_angle_beta   89.96468762
_cell_angle_gamma   89.98264684
_symmetry_Int_Tables_number   1
_chemical_formula_structural   In2Te3
_chemical_formula_sum   'In72 Te108'
_cell_volume   6876.89887778
_cell_formula_units_Z   36
loop_
 _symmetry_equiv_pos_site_id
 _symmetry_equiv_pos_as_xyz
  1  'x, y, z'
loop_
 _atom_site_type_symbol
 _atom_site_label
 _atom_site_symmetry_multiplicity
 _atom_site_fract_x
 _atom_site_fract_y
 _atom_site_fract_z
 _atom_site_occupancy
  In  In0  1  -0.01293746  0.33854728  0.67873818  1
  In  In1  1  0.33513234  0.18011479  0.81029579  1
  In  In2  1  0.13568663  0.85870896  0.05632938  1
  In  In3  1  0.14831689  0.17114156  0.66726747  1
  In  In4  1  0.33157245  0.31952746  0.63650865  1
  In  In5  1  0.52672586  0.79724120  0.32022951  1
  In  In6  1  0.65466297  0.18540160  0.15436123  1
  In  In7  1  -0.01874622  0.87275309  0.49600612  1
  In  In8  1  0.82429950  0.69256814  0.84052256  1
  In  In9  1  -0.02537056  0.49531186  0.84788787  1
  In  In10  1  0.82652430  0.65262977  0.51437748  1
  In  In11  1  0.82674239  0.35028262  0.82556749  1
  In  In12  1  0.14848320  0.69920215  0.85224323  1
  In  In13  1  0.32393150  0.00665467  0.31381666  1
  In  In14  1  0.65583533  -0.04067128  0.67352126  1
  In  In15  1  -0.03359193  -0.00802626  0.00717820  1
  In  In16  1  0.17202249  0.02976272  0.50162055  1
  In  In17  1  0.01973178  0.32876956  0.03909382  1
  In  In18  1  0.66649647  0.50407438  0.17099317  1
  In  In19  1  0.50172313  0.16355326  0.64736093  1
  In  In20  1  0.82408364  0.51563725  0.02879202  1
  In  In21  1  0.36080763  0.79893093  0.83000431  1
  In  In22  1  0.65111014  0.80344412  0.51821596  1
  In  In23  1  0.33919249  0.83452629  0.17589590  1
  In  In24  1  0.35717868  0.47904985  0.48996693  1
  In  In25  1  0.48044110  0.32675489  0.82599944  1
  In  In26  1  0.37347721  0.67436291  0.68970438  1
  In  In27  1  0.50051946  0.16641174  0.32760700  1
  In  In28  1  0.66796285  0.35094639  0.32035387  1
  In  In29  1  0.31688407  0.15581554  0.15557172  1
  In  In30  1  0.70770129  0.17894204  0.48631435  1
  In  In31  1  0.68870187  0.67981795  -0.00007152  1
  In  In32  1  0.80007035  0.49188649  0.65504541  1
  In  In33  1  0.13343755  0.35138063  0.85264995  1
  In  In34  1  0.00142535  0.67111617  0.01251783  1
  In  In35  1  -0.04874116  0.34806503  0.30352214  1
  In  In36  1  0.61761536  0.50331889  0.46768977  1
  In  In37  1  0.47801547  0.49571611  0.03614420  1
  In  In38  1  0.51545965  0.50988696  0.66888108  1
  In  In39  1  0.84309634  0.16836614  0.32816675  1
  In  In40  1  0.33221640  0.67975309  0.03346507  1
  In  In41  1  0.50038877  0.15950921  -0.02402910  1
  In  In42  1  0.49569381  0.67098411  0.84236513  1
  In  In43  1  0.71428494  -0.02618229  -0.02390975  1
  In  In44  1  0.20029914  0.50628084  0.64565252  1
  In  In45  1  0.35769372  0.65290024  0.30983310  1
  In  In46  1  0.33427581  0.00032474  0.69791968  1
  In  In47  1  -0.01871568  0.67608998  0.34793221  1
  In  In48  1  0.02432171  0.47478751  0.47496263  1
  In  In49  1  0.68747752  0.81477016  0.15785352  1
  In  In50  1  0.30531757  0.50132973  0.83654939  1
  In  In51  1  0.17399770  0.50357765  0.33997321  1
  In  In52  1  -0.02051106  0.16202940  0.49753290  1
  In  In53  1  0.83915041  0.83813061  0.67821423  1
  In  In54  1  0.17086862  0.16110481  -0.00259380  1
  In  In55  1  0.52052525  0.00849309  0.15728604  1
  In  In56  1  0.84693171  0.00911968  0.17853762  1
  In  In57  1  0.52051290  0.00775985  0.47761351  1
  In  In58  1  0.64712690  0.15383554  0.81856152  1
  In  In59  1  0.14784170  0.00426614  0.18457318  1
  In  In60  1  0.34292055  0.32397521  0.33954043  1
  In  In61  1  0.84837201  0.16559610  -0.01247213  1
  In  In62  1  0.82884886  0.15642452  0.65860157  1
  In  In63  1  0.16266708  0.70390523  0.46270170  1
  In  In64  1  0.49078182  0.81940315  -0.00200148  1
  In  In65  1  0.35065005  0.84791541  0.50985640  1
  In  In66  1  0.01313137  0.65028836  0.66366484  1
  In  In67  1  0.64606251  0.34836912  -0.02642419  1
  In  In68  1  0.16710033  0.49552613  0.02982929  1
  In  In69  1  0.15215934  0.81163100  0.64671847  1
  In  In70  1  0.16096987  -0.01161615  0.82886648  1
  In  In71  1  0.83473689  0.83133516  0.34078540  1
  Te  Te72  1  0.07282307  0.07873228  0.07619375  1
  Te  Te73  1  0.08582087  0.10591541  0.41301881  1
  Te  Te74  1  0.07531406  0.07465011  0.74864386  1
  Te  Te75  1  0.11161026  0.40022811  0.12767166  1
  Te  Te76  1  0.08436959  0.38298397  0.37306579  1
  Te  Te77  1  0.08810493  0.44320038  0.73814917  1
  Te  Te78  1  0.10138595  0.72651235  0.10369236  1
  Te  Te79  1  0.07543024  0.80982455  0.39294260  1
  Te  Te80  1  0.05449702  0.76585612  0.75432569  1
  Te  Te81  1  0.41690413  0.07526458  0.07074967  1
  Te  Te82  1  0.40740553  0.08518750  0.41434275  1
  Te  Te83  1  0.44304213  0.08436121  0.76238543  1
  Te  Te84  1  0.36504841  0.45820222  0.12184668  1
  Te  Te85  1  0.44838438  0.41936531  0.39014825  1
  Te  Te86  1  0.39102534  0.42252693  0.73979517  1
  Te  Te87  1  0.44309406  0.73884383  0.11733074  1
  Te  Te88  1  0.41889067  0.75148559  0.41386253  1
  Te  Te89  1  0.46627988  0.80163918  0.71090586  1
  Te  Te90  1  0.74663309  0.08500302  0.07949728  1
  Te  Te91  1  0.77935070  0.06989633  0.41863858  1
  Te  Te92  1  0.74123302  0.06247838  0.74722207  1
  Te  Te93  1  0.73930746  0.40176624  0.07876790  1
  Te  Te94  1  0.74230648  0.44419670  0.40917151  1
  Te  Te95  1  0.72150855  0.41868693  0.75402926  1
  Te  Te96  1  0.78938482  0.72859593  0.09540364  1
  Te  Te97  1  0.74510600  0.73449149  0.41852614  1
  Te  Te98  1  0.74698462  0.73596773  0.72520233  1
  Te  Te99  1  0.00899305  0.23214570  0.22891500  1
  Te  Te100  1  0.07005620  0.26307059  0.57807933  1
  Te  Te101  1  0.06494198  0.23801058  0.91888341  1
  Te  Te102  1  0.08677837  0.60355828  0.27663438  1
  Te  Te103  1  0.09950300  0.58831355  0.55451051  1
  Te  Te104  1  0.08900251  0.57120558  0.91402417  1
  Te  Te105  1  0.11263777  0.88765475  0.26316016  1
  Te  Te106  1  0.08832680  0.93225951  0.58676983  1
  Te  Te107  1  0.07647135  0.91326961  0.92858342  1
  Te  Te108  1  0.41683116  0.24215652  0.22962985  1
  Te  Te109  1  0.42249259  0.24314022  0.54871498  1
  Te  Te110  1  0.39356871  0.25711187  0.92778095  1
  Te  Te111  1  0.46611606  0.55096734  0.28792220  1
  Te  Te112  1  0.42465089  0.58648290  0.57484297  1
  Te  Te113  1  0.39500244  0.58992906  0.92213260  1
  Te  Te114  1  0.44301088  0.92334346  0.25745083  1
  Te  Te115  1  0.42888899  0.95146185  0.58587011  1
  Te  Te116  1  0.40851772  0.90694375  0.91615035  1
  Te  Te117  1  0.75665579  0.25779891  0.23819193  1
  Te  Te118  1  0.76080181  0.26554945  0.59008640  1
  Te  Te119  1  0.73312264  0.23828964  0.91217295  1
  Te  Te120  1  0.77621679  0.52546903  0.26917617  1
  Te  Te121  1  0.71007934  0.57705127  0.57189853  1
  Te  Te122  1  0.75283357  0.57358979  0.91195832  1
  Te  Te123  1  0.74690864  0.91865735  0.24841268  1
  Te  Te124  1  0.75491662  0.90475512  0.57216771  1
  Te  Te125  1  0.79011816  0.86591839  0.90595316  1
  Te  Te126  1  0.22268853  0.25402596  0.09911593  1
  Te  Te127  1  0.28530375  0.26183647  0.45960645  1
  Te  Te128  1  0.23253287  0.27707683  0.75336299  1
  Te  Te129  1  0.26422380  0.57630120  0.11629685  1
  Te  Te130  1  0.26935452  0.58846007  0.42516929  1
  Te  Te131  1  0.23764060  0.61462506  0.75385126  1
  Te  Te132  1  0.25773094  0.93503643  0.09735878  1
  Te  Te133  1  0.25457244  0.92656597  0.42404945  1
  Te  Te134  1  0.24992771  0.88397526  0.74584405  1
  Te  Te135  1  0.55949843  0.26483708  0.06698410  1
  Te  Te136  1  0.59774203  0.24849386  0.40973035  1
  Te  Te137  1  0.58006568  0.26064658  0.73425300  1
  Te  Te138  1  0.58598657  0.59245773  0.07523370  1
  Te  Te139  1  0.57677387  0.60916514  0.37104641  1
  Te  Te140  1  0.58922452  0.60494361  0.75163189  1
  Te  Te141  1  0.59924905  0.90906554  0.07355169  1
  Te  Te142  1  0.59808668  0.89844716  0.40955071  1
  Te  Te143  1  0.58341186  0.88110015  0.77207550  1
  Te  Te144  1  0.91854907  0.23491757  0.09933576  1
  Te  Te145  1  0.89990471  0.27054428  0.42410231  1
  Te  Te146  1  0.91021319  0.24304593  0.76333914  1
  Te  Te147  1  0.95020216  0.55663625  0.09329859  1
  Te  Te148  1  0.91388542  0.56580593  0.42485792  1
  Te  Te149  1  0.90546498  0.58377032  0.74679367  1
  Te  Te150  1  0.92017864  0.90197764  0.11192822  1
  Te  Te151  1  0.90365164  0.95043536  0.39785806  1
  Te  Te152  1  0.86910472  0.92664709  0.79188365  1
  Te  Te153  1  0.22533916  0.10992802  0.26736744  1
  Te  Te154  1  0.26401558  0.09582784  0.60419182  1
  Te  Te155  1  0.25585642  0.08250273  0.89889281  1
  Te  Te156  1  0.27015453  0.42403544  0.25606251  1
  Te  Te157  1  0.23427067  0.39727925  0.54591265  1
  Te  Te158  1  0.24790467  0.40472822  0.93669276  1
  Te  Te159  1  0.25873538  0.75323100  0.26612025  1
  Te  Te160  1  0.26845900  0.74111687  0.58251036  1
  Te  Te161  1  0.25237925  0.76682368  0.93866651  1
  Te  Te162  1  0.60625700  0.08387505  0.25686381  1
  Te  Te163  1  0.60864129  0.08210983  0.57670923  1
  Te  Te164  1  0.59448738  0.05529902  0.92020856  1
  Te  Te165  1  0.56782605  0.41165454  0.22995043  1
  Te  Te166  1  0.56154413  0.41404225  0.56974586  1
  Te  Te167  1  0.54373352  0.43728359  0.90764253  1
  Te  Te168  1  0.62588429  0.71278544  0.25056431  1
  Te  Te169  1  0.53688286  0.74321859  0.58503591  1
  Te  Te170  1  0.59863736  0.76207475  0.90770232  1
  Te  Te171  1  0.94840740  0.09030894  0.25352971  1
  Te  Te172  1  0.93158745  0.07026033  0.60127339  1
  Te  Te173  1  0.90107125  0.06363578  0.89510523  1
  Te  Te174  1  0.90095455  0.45566473  0.21509597  1
  Te  Te175  1  0.92074488  0.43520673  0.58410613  1
  Te  Te176  1  0.91309934  0.39678959  0.94271225  1
  Te  Te177  1  0.89341626  0.73429230  0.24577110  1
  Te  Te178  1  0.93732554  0.74403752  0.56794067  1
  Te  Te179  1  0.92474846  0.76030650  0.92439612  1
