# generated using pymatgen
data_In2Te3
_symmetry_space_group_name_H-M   'P 1'
_cell_length_a   19.01372289
_cell_length_b   18.96840885
_cell_length_c   18.97977908
_cell_angle_alpha   90.08455037
_cell_angle_beta   89.98890772
_cell_angle_gamma   89.81942024
_symmetry_Int_Tables_number   1
_chemical_formula_structural   In2Te3
_chemical_formula_sum   'In72 Te108'
_cell_volume   6845.20685602
_cell_formula_units_Z   36
loop_
 _symmetry_equiv_pos_site_id
 _symmetry_equiv_pos_as_xyz
  1  'x, y, z'
loop_
 _atom_site_type_symbol
 _atom_site_label
 _atom_site_symmetry_multiplicity
 _atom_site_fract_x
 _atom_site_fract_y
 _atom_site_fract_z
 _atom_site_occupancy
  In  In0  1  0.69183346  0.82717115  0.23448808  1
  In  In1  1  0.52705029  0.33066942  0.48401940  1
  In  In2  1  -0.01426025  0.00361262  0.69132923  1
  In  In3  1  0.65009142  0.67417561  0.62636401  1
  In  In4  1  0.83821207  0.16139987  0.64984401  1
  In  In5  1  0.18759083  0.32539840  0.49234105  1
  In  In6  1  0.12534230  0.84097053  0.01121979  1
  In  In7  1  0.65425538  0.50691184  0.48761041  1
  In  In8  1  0.50822788  0.30879178  0.16948730  1
  In  In9  1  0.81104483  0.18108524  0.34059887  1
  In  In10  1  0.16418316  0.49428177  0.64615588  1
  In  In11  1  0.82617293  0.67126976  0.20166641  1
  In  In12  1  0.12476356  0.48402065  -0.01031564  1
  In  In13  1  -0.00489441  0.50772431  0.16044885  1
  In  In14  1  0.82289103  0.67067610  0.83164488  1
  In  In15  1  0.41610932  0.04144376  0.57926522  1
  In  In16  1  0.15009786  0.17352209  0.02050461  1
  In  In17  1  0.80797015  0.16316120  0.00891837  1
  In  In18  1  0.81762318  0.50534318  0.34588813  1
  In  In19  1  0.17670009  0.32969807  0.18111784  1
  In  In20  1  0.83669701  0.84966214  0.63853590  1
  In  In21  1  0.50455549  0.52239969  0.00682426  1
  In  In22  1  -0.01083070  -0.03598668  0.34115010  1
  In  In23  1  0.68167548  0.33429635  0.02282488  1
  In  In24  1  0.00521538  0.83147922  0.49410954  1
  In  In25  1  0.50423003  0.01583062  0.83726806  1
  In  In26  1  0.13786024  0.67143339  0.17294400  1
  In  In27  1  0.81212554  0.02249802  0.83185391  1
  In  In28  1  0.20696015  0.15862686  0.34074646  1
  In  In29  1  0.33528940  0.32170297  0.02738223  1
  In  In30  1  0.79806341  0.52582232  0.67698815  1
  In  In31  1  0.83905159  0.32077791  0.17175471  1
  In  In32  1  0.16442420  0.00074566  0.84344828  1
  In  In33  1  0.83757411  0.84910942  0.02479839  1
  In  In34  1  0.66426756  0.49144790  0.83300766  1
  In  In35  1  -0.00445640  0.33985358  0.67672108  1
  In  In36  1  0.15077163  0.32456183  0.82111911  1
  In  In37  1  0.35364161  0.33668597  0.65555588  1
  In  In38  1  0.35182880  0.67899399  0.34487353  1
  In  In39  1  0.01341812  0.15505171  0.50906605  1
  In  In40  1  -0.01423318  0.14420201  0.16743536  1
  In  In41  1  0.34340394  0.68219808  0.61731197  1
  In  In42  1  0.32167148  0.49248440  0.20271973  1
  In  In43  1  0.52724853  0.85840509  0.61907566  1
  In  In44  1  0.33652749  0.81797616  0.80891528  1
  In  In45  1  0.34913453  0.83873922  0.15326062  1
  In  In46  1  0.78316294  -0.01129288  0.44362678  1
  In  In47  1  0.53559412  -0.01481658  0.26741524  1
  In  In48  1  0.48742236  0.14346817  -0.01484754  1
  In  In49  1  0.15526769  0.82395741  0.68604617  1
  In  In50  1  0.14814085  0.64793243  0.83899913  1
  In  In51  1  0.33024378  -0.01393907  -0.02540550  1
  In  In52  1  0.29812068  0.48333719  0.80759111  1
  In  In53  1  0.35102088  0.18031758  0.81439910  1
  In  In54  1  0.46957838  0.65261329  0.82901064  1
  In  In55  1  0.64419842  0.82580443  0.82765513  1
  In  In56  1  0.02013659  0.33185106  0.35187826  1
  In  In57  1  0.52862355  0.69071472  0.15890801  1
  In  In58  1  0.28339795  0.65729946  0.00789811  1
  In  In59  1  0.19125912  -0.00360328  0.50352481  1
  In  In60  1  0.66073244  0.01359539  0.01522228  1
  In  In61  1  0.48045528  0.50857840  0.65422960  1
  In  In62  1  0.53216914  0.83532029  0.02682466  1
  In  In63  1  -0.01291435  0.14402344  0.84424745  1
  In  In64  1  0.17059422  0.84504448  0.33542290  1
  In  In65  1  0.40562941  0.12030971  0.23096432  1
  In  In66  1  0.81130823  0.34380313  0.51640794  1
  In  In67  1  0.58999452  0.17934158  0.63904122  1
  In  In68  1  0.18374940  0.65608333  0.48509419  1
  In  In69  1  0.51522692  0.48645263  0.32105634  1
  In  In70  1  -0.00661046  0.53496604  0.49112153  1
  In  In71  1  0.70057994  0.65499963  -0.00395037  1
  Te  Te72  1  0.08382878  0.06550873  0.09142734  1
  Te  Te73  1  0.09045425  0.07210399  0.40871303  1
  Te  Te74  1  0.09221726  0.09569498  0.74563949  1
  Te  Te75  1  0.06740598  0.38768504  0.09728921  1
  Te  Te76  1  0.09463859  0.43222148  0.43442331  1
  Te  Te77  1  0.07679936  0.44105384  0.75754188  1
  Te  Te78  1  0.05519845  0.72149434  0.06184826  1
  Te  Te79  1  0.08710008  0.73987580  0.40285818  1
  Te  Te80  1  0.06756784  0.75408350  0.77839053  1
  Te  Te81  1  0.40476393  0.06452249  0.08099194  1
  Te  Te82  1  0.44933084  0.07812901  0.37892763  1
  Te  Te83  1  0.40659503  0.06573450  0.73491629  1
  Te  Te84  1  0.42036803  0.42784633  0.09433665  1
  Te  Te85  1  0.43473588  0.42968643  0.42856830  1
  Te  Te86  1  0.42634756  0.41691135  0.76325125  1
  Te  Te87  1  0.41171318  0.73530889  0.05786922  1
  Te  Te88  1  0.40424192  0.74145651  0.46980934  1
  Te  Te89  1  0.44421391  0.75768743  0.71930583  1
  Te  Te90  1  0.76223183  0.06343231  0.10575506  1
  Te  Te91  1  0.73220557  0.12599951  0.45116059  1
  Te  Te92  1  0.74262296  0.06875585  0.71239801  1
  Te  Te93  1  0.77379363  0.42802552  0.09217068  1
  Te  Te94  1  0.72551312  0.39730152  0.40634340  1
  Te  Te95  1  0.74313138  0.40731581  0.74126317  1
  Te  Te96  1  0.73006688  0.76722492  0.09840233  1
  Te  Te97  1  0.75710613  0.80714861  0.36841395  1
  Te  Te98  1  0.73301778  0.75204359  0.72989372  1
  Te  Te99  1  0.08456636  0.22841306  0.26160147  1
  Te  Te100  1  0.08992517  0.25858976  0.58848475  1
  Te  Te101  1  0.06551893  0.24966791  0.92024215  1
  Te  Te102  1  0.07796621  0.57286544  0.26128790  1
  Te  Te103  1  0.08324280  0.60724456  0.59119681  1
  Te  Te104  1  0.03890526  0.60055541  0.93571685  1
  Te  Te105  1  0.08537367  0.91775781  0.24025206  1
  Te  Te106  1  0.07960248  0.92825131  0.59121257  1
  Te  Te107  1  0.06043470  0.92524144  0.91101786  1
  Te  Te108  1  0.40560476  0.26574725  0.26680297  1
  Te  Te109  1  0.45740869  0.24919554  0.59229596  1
  Te  Te110  1  0.42313026  0.26468018  0.91773373  1
  Te  Te111  1  0.42515529  0.60023999  0.22975321  1
  Te  Te112  1  0.45200367  0.60825485  0.54685544  1
  Te  Te113  1  0.37954063  0.56794659  0.91864883  1
  Te  Te114  1  0.42802263  0.87599380  0.27224283  1
  Te  Te115  1  0.40348738  0.89682803  0.54815812  1
  Te  Te116  1  0.43302294  0.89448779  0.90737469  1
  Te  Te117  1  0.73032989  0.24629431  0.23731444  1
  Te  Te118  1  0.72519927  0.24886315  0.59479663  1
  Te  Te119  1  0.76060446  0.26748586  0.91841570  1
  Te  Te120  1  0.72273933  0.60317307  0.28369214  1
  Te  Te121  1  0.75818078  0.59837736  0.55037051  1
  Te  Te122  1  0.77514623  0.55106681  0.91632771  1
  Te  Te123  1  0.74394893  0.95370035  0.30282477  1
  Te  Te124  1  0.73026682  0.90753761  0.55492612  1
  Te  Te125  1  0.72611030  0.91419333  0.91929878  1
  Te  Te126  1  0.26090272  0.22303123  0.11205589  1
  Te  Te127  1  0.28398086  0.22062296  0.45036581  1
  Te  Te128  1  0.24942880  0.25450141  0.72924088  1
  Te  Te129  1  0.22648710  0.54783585  0.09501029  1
  Te  Te130  1  0.26895065  0.57262641  0.40042461  1
  Te  Te131  1  0.25901382  0.60606553  0.73004341  1
  Te  Te132  1  0.24234609  0.91493072  0.07559359  1
  Te  Te133  1  0.27009596  0.93759918  0.39287382  1
  Te  Te134  1  0.25319814  0.92553827  0.74299015  1
  Te  Te135  1  0.58347265  0.22372212  0.07004335  1
  Te  Te136  1  0.53072209  0.22107669  0.37560408  1
  Te  Te137  1  0.56352363  0.20695711  0.78023376  1
  Te  Te138  1  0.61263234  0.58043031  0.09492764  1
  Te  Te139  1  0.59236269  0.59678771  0.38663306  1
  Te  Te140  1  0.58314210  0.58974320  0.74589452  1
  Te  Te141  1  0.56696159  0.95026443  0.11484239  1
  Te  Te142  1  0.55798617  0.98064306  0.41741912  1
  Te  Te143  1  0.58696984  0.93284742  0.73866964  1
  Te  Te144  1  0.92206461  0.24265221  0.07291291  1
  Te  Te145  1  0.92089310  0.25533977  0.43949170  1
  Te  Te146  1  0.91013756  0.24332802  0.75511419  1
  Te  Te147  1  0.87157474  0.56744110  0.10508004  1
  Te  Te148  1  0.91694937  0.60490670  0.38870859  1
  Te  Te149  1  0.90899881  0.58748888  0.74604022  1
  Te  Te150  1  0.91848469  0.90169710  0.13409009  1
  Te  Te151  1  0.90817586  0.83839386  0.37180178  1
  Te  Te152  1  0.89477319  0.90995484  0.76475888  1
  Te  Te153  1  0.27402334  0.05534359  0.26024197  1
  Te  Te154  1  0.27623113  0.09788173  0.56913289  1
  Te  Te155  1  0.25442751  0.10894596  0.91501168  1
  Te  Te156  1  0.25196522  0.39613932  0.28734220  1
  Te  Te157  1  0.27484902  0.43162976  0.56742304  1
  Te  Te158  1  0.24464974  0.39077115  0.92433323  1
  Te  Te159  1  0.25519472  0.74376403  0.23406648  1
  Te  Te160  1  0.23458095  0.77473458  0.56731079  1
  Te  Te161  1  0.23562947  0.76402472  0.90928356  1
  Te  Te162  1  0.58617481  0.12877360  0.26718631  1
  Te  Te163  1  0.56555311  0.05530642  0.55902874  1
  Te  Te164  1  0.61071434  0.10999805  0.89191935  1
  Te  Te165  1  0.59763084  0.40676403  0.23041277  1
  Te  Te166  1  0.58826887  0.42302604  0.59381865  1
  Te  Te167  1  0.58091988  0.41615234  0.93347390  1
  Te  Te168  1  0.55626304  0.77690337  0.27704178  1
  Te  Te169  1  0.61149091  0.77685359  0.52828261  1
  Te  Te170  1  0.58139772  0.72029594  0.91800516  1
  Te  Te171  1  0.90862828  0.08126302  0.28040585  1
  Te  Te172  1  0.91490716  0.05577954  0.56630680  1
  Te  Te173  1  0.90766102  0.06148271  0.94052523  1
  Te  Te174  1  0.91813255  0.41007050  0.27270187  1
  Te  Te175  1  0.92184976  0.42707836  0.57709019  1
  Te  Te176  1  0.98890360  0.45785463  0.94130097  1
  Te  Te177  1  0.93063661  0.77607765  0.21302839  1
  Te  Te178  1  0.92305883  0.74769463  0.58095049  1
  Te  Te179  1  0.89517788  0.75557266  0.92808810  1
