# generated using pymatgen
data_In2Te3
_symmetry_space_group_name_H-M   'P 1'
_cell_length_a   18.98487049
_cell_length_b   19.01113088
_cell_length_c   18.98712376
_cell_angle_alpha   90.08951326
_cell_angle_beta   89.98172395
_cell_angle_gamma   90.03660245
_symmetry_Int_Tables_number   1
_chemical_formula_structural   In2Te3
_chemical_formula_sum   'In72 Te108'
_cell_volume   6852.89584633
_cell_formula_units_Z   36
loop_
 _symmetry_equiv_pos_site_id
 _symmetry_equiv_pos_as_xyz
  1  'x, y, z'
loop_
 _atom_site_type_symbol
 _atom_site_label
 _atom_site_symmetry_multiplicity
 _atom_site_fract_x
 _atom_site_fract_y
 _atom_site_fract_z
 _atom_site_occupancy
  In  In0  1  0.80752021  0.16983913  0.68058291  1
  In  In1  1  0.15987763  0.81641290  -0.01644250  1
  In  In2  1  -0.02925090  0.16906585  0.84212145  1
  In  In3  1  0.32911131  0.15020762  0.84913526  1
  In  In4  1  0.53793780  0.17267626  -0.01034286  1
  In  In5  1  0.00526604  0.17712171  0.49677535  1
  In  In6  1  0.81017666  0.00406982  0.20614650  1
  In  In7  1  -0.00705904  0.83639577  0.16679589  1
  In  In8  1  0.64642396  0.02849480  -0.02464334  1
  In  In9  1  0.51692247  0.35515886  0.17519716  1
  In  In10  1  0.34100792  0.32277065  0.33009973  1
  In  In11  1  0.82696043  0.87027636  0.63956271  1
  In  In12  1  0.78847544  0.58888314  0.16485031  1
  In  In13  1  0.46847888  0.66159244  0.17979264  1
  In  In14  1  0.00302089  0.48562475  0.47867123  1
  In  In15  1  0.33299629  0.67510112  0.68431363  1
  In  In16  1  0.34839556  0.34983275  0.64602033  1
  In  In17  1  0.15905769  0.82053117  0.66852646  1
  In  In18  1  0.32708166  0.02697966  0.64505592  1
  In  In19  1  0.19461196  0.35529164  0.80879006  1
  In  In20  1  0.14208813  0.16351993  0.00813455  1
  In  In21  1  0.32148278  -0.00879067  0.33600504  1
  In  In22  1  0.80235836  0.18493828  -0.01513743  1
  In  In23  1  0.16650196  0.50385786  0.64685196  1
  In  In24  1  0.17459092  0.17325138  0.32724359  1
  In  In25  1  0.35219522  0.50184531  0.83386000  1
  In  In26  1  0.15801283  0.17355987  0.64481593  1
  In  In27  1  0.19377548  0.79969374  0.31542647  1
  In  In28  1  0.65895056  0.36375127  0.33252174  1
  In  In29  1  -0.00289981  0.50890709  0.84014959  1
  In  In30  1  -0.00009262  0.34322954  0.31728003  1
  In  In31  1  0.81882188  0.65682406  0.84709795  1
  In  In32  1  -0.00694099  0.00797707  0.66071323  1
  In  In33  1  0.52837881  0.20467507  0.66920332  1
  In  In34  1  -0.01600295  0.01599211  0.32972065  1
  In  In35  1  0.65184312  0.83119047  0.83387396  1
  In  In36  1  -0.00809255  0.30565446  -0.01190083  1
  In  In37  1  0.49994674  0.65490738  0.50237003  1
  In  In38  1  0.66746817  0.48487982  0.83682263  1
  In  In39  1  0.83469722  0.32249602  0.51121554  1
  In  In40  1  -0.00053640  0.82997738  0.81809431  1
  In  In41  1  0.52485255  0.80861078  0.01332422  1
  In  In42  1  0.15875708  -0.03011111  0.82963190  1
  In  In43  1  0.49583292  0.50149826  0.00610811  1
  In  In44  1  0.02865907  0.83347860  0.49936809  1
  In  In45  1  0.48388152  0.83814347  0.34846857  1
  In  In46  1  0.51217722  0.18182988  0.33869957  1
  In  In47  1  0.85145848  0.67052065  0.51121332  1
  In  In48  1  0.36038336  0.33378799  0.00190778  1
  In  In49  1  0.51351625  0.02090117  0.51178823  1
  In  In50  1  0.34124144  -0.02208804  0.02624510  1
  In  In51  1  0.15692673  0.51935339  0.06652488  1
  In  In52  1  0.53020070  0.01115725  0.84323547  1
  In  In53  1  0.66746848  0.49644880  0.50378922  1
  In  In54  1  0.00895732  0.63447608  0.29105234  1
  In  In55  1  0.53022161  0.48381959  0.66612492  1
  In  In56  1  0.15571936  0.00931397  0.17131232  1
  In  In57  1  -0.01514402  0.64691969  0.02983551  1
  In  In58  1  0.66795369  0.66725706  0.67728428  1
  In  In59  1  0.80529857  0.36877508  0.15905568  1
  In  In60  1  0.79612521  0.02257361  0.47297778  1
  In  In61  1  0.66918914  0.81992225  0.17367252  1
  In  In62  1  0.35352492  0.49598584  0.47790351  1
  In  In63  1  0.81598094  0.82428651  0.01464648  1
  In  In64  1  0.17353265  0.64249187  0.48659296  1
  In  In65  1  0.83260680  0.34435762  0.80451381  1
  In  In66  1  0.32851247  0.82062183  0.85859001  1
  In  In67  1  0.50090667  0.01450863  0.18212133  1
  In  In68  1  0.48079757  0.84351752  0.66373072  1
  In  In69  1  0.64532334  0.17931685  0.17774739  1
  In  In70  1  0.85478627  0.80660125  0.35244278  1
  In  In71  1  0.18621692  0.32124159  0.16814870  1
  Te  Te72  1  0.05704975  0.07884110  0.08918396  1
  Te  Te73  1  0.08997770  0.08120844  0.41515918  1
  Te  Te74  1  0.08837633  0.08164809  0.75585654  1
  Te  Te75  1  0.08051109  0.38698189  0.07993740  1
  Te  Te76  1  0.10192186  0.42685459  0.38482666  1
  Te  Te77  1  0.07948037  0.42168236  0.74122853  1
  Te  Te78  1  0.08505604  0.74234377  0.09400731  1
  Te  Te79  1  0.07551892  0.73137949  0.39629548  1
  Te  Te80  1  0.10168782  0.73713532  0.77249323  1
  Te  Te81  1  0.43540954  0.09124551  0.06859914  1
  Te  Te82  1  0.42152837  0.08296515  0.40765407  1
  Te  Te83  1  0.42213708  0.07680113  0.75227667  1
  Te  Te84  1  0.40139178  0.42848543  0.11113804  1
  Te  Te85  1  0.43877618  0.41425342  0.39239770  1
  Te  Te86  1  0.43652667  0.40343003  0.75606990  1
  Te  Te87  1  0.40864552  0.75994924  0.08543439  1
  Te  Te88  1  0.40170479  0.73898275  0.42762492  1
  Te  Te89  1  0.43169081  0.74906965  0.77177477  1
  Te  Te90  1  0.73192444  0.08799227  0.09203095  1
  Te  Te91  1  0.73226901  0.09649658  0.36742397  1
  Te  Te92  1  0.76891633  0.06012755  0.76712041  1
  Te  Te93  1  0.73888444  0.47444467  0.07948088  1
  Te  Te94  1  0.76901650  0.42407928  0.41741478  1
  Te  Te95  1  0.73461406  0.41752692  0.72359904  1
  Te  Te96  1  0.74184051  0.71797665  0.08914263  1
  Te  Te97  1  0.75156855  0.73837472  0.42953138  1
  Te  Te98  1  0.76489589  0.76590118  0.74451232  1
  Te  Te99  1  0.07626146  0.23986087  0.23443355  1
  Te  Te100  1  0.08476289  0.27459734  0.57121267  1
  Te  Te101  1  0.10248919  0.25313593  0.89091452  1
  Te  Te102  1  0.11291804  0.56933152  0.20696297  1
  Te  Te103  1  0.06673089  0.59274619  0.57863334  1
  Te  Te104  1  0.08607625  0.57679443  0.94146671  1
  Te  Te105  1  0.08040528  0.90812632  0.26782206  1
  Te  Te106  1  0.10245072  0.93407344  0.58558345  1
  Te  Te107  1  0.05919717  0.91771942  0.92907550  1
  Te  Te108  1  0.43058256  0.24342446  0.22907199  1
  Te  Te109  1  0.42218645  0.24464769  0.57814032  1
  Te  Te110  1  0.43479220  0.24449167  0.90365275  1
  Te  Te111  1  0.39083182  0.63381875  0.30640524  1
  Te  Te112  1  0.41279924  0.57197172  0.60455725  1
  Te  Te113  1  0.40361208  0.59310681  0.93516269  1
  Te  Te114  1  0.40690140  0.91150172  0.23809970  1
  Te  Te115  1  0.40152867  0.92337557  0.56447321  1
  Te  Te116  1  0.43443057  0.91871366  0.92079982  1
  Te  Te117  1  0.74375179  0.26550070  0.25324023  1
  Te  Te118  1  0.73316604  0.23133946  0.57052365  1
  Te  Te119  1  0.73130426  0.27825500  0.89457520  1
  Te  Te120  1  0.70470764  0.57098110  0.28684935  1
  Te  Te121  1  0.75786122  0.58107499  0.59335834  1
  Te  Te122  1  0.75898262  0.55461329  0.93318156  1
  Te  Te123  1  0.74662651  0.89169718  0.28180735  1
  Te  Te124  1  0.72297080  0.92085620  0.55058541  1
  Te  Te125  1  0.73899206  0.91650750  0.92379851  1
  Te  Te126  1  0.26043008  0.23516055  0.06697496  1
  Te  Te127  1  0.26252296  0.23979344  0.42350196  1
  Te  Te128  1  0.26783788  0.24079423  0.74135896  1
  Te  Te129  1  0.25768021  0.59604033  0.14170661  1
  Te  Te130  1  0.26038804  0.57366057  0.38906959  1
  Te  Te131  1  0.24347688  0.57647881  0.75581273  1
  Te  Te132  1  0.22965598  0.90275991  0.09244786  1
  Te  Te133  1  0.24072585  0.89704057  0.41391586  1
  Te  Te134  1  0.26954023  0.91083332  0.74528472  1
  Te  Te135  1  0.60322983  0.28055694  0.07314760  1
  Te  Te136  1  0.58387328  0.27615452  0.42610008  1
  Te  Te137  1  0.62444457  0.25807168  0.76826777  1
  Te  Te138  1  0.57043956  0.58131831  0.10713954  1
  Te  Te139  1  0.59322401  0.58608259  0.40980731  1
  Te  Te140  1  0.57562597  0.58873445  0.76519251  1
  Te  Te141  1  0.59123541  0.92672516  0.09337410  1
  Te  Te142  1  0.57884106  0.91350982  0.43326720  1
  Te  Te143  1  0.58993396  0.92337966  0.73162596  1
  Te  Te144  1  0.88751533  0.25865086  0.08603230  1
  Te  Te145  1  0.91441248  0.25059271  0.40182821  1
  Te  Te146  1  0.92788705  0.25137761  0.72614468  1
  Te  Te147  1  0.91894518  0.53902783  0.10585304  1
  Te  Te148  1  0.91791213  0.58478515  0.40169555  1
  Te  Te149  1  0.91146468  0.59134652  0.75618520  1
  Te  Te150  1  0.89095545  0.92411060  0.09970719  1
  Te  Te151  1  0.92116098  0.91991555  0.43269394  1
  Te  Te152  1  0.90606053  0.93340844  0.75896304  1
  Te  Te153  1  0.26500536  0.09038983  0.23579489  1
  Te  Te154  1  0.24768800  0.10441550  0.55012482  1
  Te  Te155  1  0.24295808  0.05409950  0.92975352  1
  Te  Te156  1  0.23427028  0.41094379  0.27496345  1
  Te  Te157  1  0.24642734  0.41460347  0.55574043  1
  Te  Te158  1  0.25746647  0.42005930  0.92900715  1
  Te  Te159  1  0.28605732  0.72485613  0.22613152  1
  Te  Te160  1  0.24913238  0.74069015  0.57675659  1
  Te  Te161  1  0.26054002  0.71918613  0.93797343  1
  Te  Te162  1  0.60557991  0.06532336  0.28142652  1
  Te  Te163  1  0.60693243  0.10738005  0.58956460  1
  Te  Te164  1  0.64253049  0.11642620  0.83172205  1
  Te  Te165  1  0.60185466  0.46657112  0.23422759  1
  Te  Te166  1  0.57074789  0.39570087  0.55550640  1
  Te  Te167  1  0.56819302  0.41062744  0.91607743  1
  Te  Te168  1  0.57116084  0.74803290  0.25977829  1
  Te  Te169  1  0.57797841  0.75129954  0.58948688  1
  Te  Te170  1  0.60530176  0.72671860  0.92447210  1
  Te  Te171  1  0.90269353  0.10673050  0.25139149  1
  Te  Te172  1  0.90261566  0.08748603  0.57075385  1
  Te  Te173  1  0.89184965  0.08313226  0.92729571  1
  Te  Te174  1  0.91298232  0.43624843  0.23878963  1
  Te  Te175  1  0.92311174  0.41750745  0.57959132  1
  Te  Te176  1  0.91084944  0.41074420  0.91696318  1
  Te  Te177  1  0.90539680  0.73102257  0.23130279  1
  Te  Te178  1  0.93269900  0.76991569  0.59720695  1
  Te  Te179  1  0.92049249  0.74962369  0.93106878  1
