# generated using pymatgen
data_In2Te3
_symmetry_space_group_name_H-M   'P 1'
_cell_length_a   18.75507693
_cell_length_b   18.76691485
_cell_length_c   18.76894041
_cell_angle_alpha   89.98306871
_cell_angle_beta   89.96131674
_cell_angle_gamma   90.00108120
_symmetry_Int_Tables_number   1
_chemical_formula_structural   In2Te3
_chemical_formula_sum   'In72 Te108'
_cell_volume   6606.19472358
_cell_formula_units_Z   36
loop_
 _symmetry_equiv_pos_site_id
 _symmetry_equiv_pos_as_xyz
  1  'x, y, z'
loop_
 _atom_site_type_symbol
 _atom_site_label
 _atom_site_symmetry_multiplicity
 _atom_site_fract_x
 _atom_site_fract_y
 _atom_site_fract_z
 _atom_site_occupancy
  In  In0  1  0.82444304  -0.01217185  0.15374251  1
  In  In1  1  0.71039760  0.52713528  0.49157413  1
  In  In2  1  0.35555751  -0.02123191  -0.02409552  1
  In  In3  1  0.67358681  0.16372910  0.15489824  1
  In  In4  1  0.14950397  0.34286854  0.50886123  1
  In  In5  1  0.31747418  0.33225180  0.29927681  1
  In  In6  1  -0.00475685  -0.03198919  0.66512615  1
  In  In7  1  0.68186489  -0.02245778  0.29669414  1
  In  In8  1  0.51816072  0.67284761  0.52559934  1
  In  In9  1  0.16013618  0.37060930  0.13546101  1
  In  In10  1  0.49994563  0.33451836  0.50286720  1
  In  In11  1  0.68445201  0.67533966  0.33575237  1
  In  In12  1  -0.00987449  0.32993043  0.69085369  1
  In  In13  1  0.84531269  -0.00817619  0.50459927  1
  In  In14  1  0.32680380  0.50820599  0.14053783  1
  In  In15  1  0.48014147  -0.01151430  0.52107373  1
  In  In16  1  0.65022198  -0.04432333  0.70415631  1
  In  In17  1  0.49392648  0.49336513  0.70114421  1
  In  In18  1  0.33911649  0.68551799  0.01805235  1
  In  In19  1  0.65354050  0.52216671  0.15299290  1
  In  In20  1  0.34494326  0.15744537  0.83319960  1
  In  In21  1  0.84279806  0.51687520  -0.01203272  1
  In  In22  1  0.48909841  0.33202156  0.83227102  1
  In  In23  1  0.84389761  0.33993294  0.85131659  1
  In  In24  1  0.15041268  0.81606924  0.31956437  1
  In  In25  1  0.32091986  0.17878808  0.16499857  1
  In  In26  1  0.49941102  0.14244768  0.69266516  1
  In  In27  1  0.82219151  0.34373590  0.48230663  1
  In  In28  1  0.49762937  -0.02757451  0.16207452  1
  In  In29  1  0.01014147  -0.02192801  0.35134557  1
  In  In30  1  0.16601807  -0.00802762  0.51744620  1
  In  In31  1  0.18360150  0.15368939  0.65848069  1
  In  In32  1  0.31340508  0.13558491  0.49256347  1
  In  In33  1  0.49016356  0.50678297  0.30627080  1
  In  In34  1  0.49392162  0.50619204  0.01508819  1
  In  In35  1  0.81925032  0.51293222  0.65110865  1
  In  In36  1  0.16618790  0.66794683  0.84718626  1
  In  In37  1  0.17575129  -0.00535055  0.15457567  1
  In  In38  1  0.15194688  0.15420236  0.32571275  1
  In  In39  1  0.17993773  -0.01673980  0.84115865  1
  In  In40  1  0.64327653  0.52542710  0.85908222  1
  In  In41  1  0.82631445  0.83128664  0.00066532  1
  In  In42  1  0.67767195  0.14133162  0.84274043  1
  In  In43  1  0.49913131  0.83822480  0.32635252  1
  In  In44  1  0.49784563  0.69534228  0.82827743  1
  In  In45  1  0.16642438  0.81851687  0.00474083  1
  In  In46  1  0.49678692  0.17652622  0.35513993  1
  In  In47  1  0.17993394  0.35422449  0.87331025  1
  In  In48  1  -0.01043246  0.52111149  0.84766144  1
  In  In49  1  0.82839272  0.15714841  0.01032994  1
  In  In50  1  0.33895670  0.52810553  0.49515934  1
  In  In51  1  0.51187745  0.17213217  -0.00902229  1
  In  In52  1  0.01280701  0.17613073  0.84629558  1
  In  In53  1  0.65698716  0.18012768  0.49756001  1
  In  In54  1  0.32240896  0.84195744  0.51246980  1
  In  In55  1  -0.02665948  0.51934687  0.45829717  1
  In  In56  1  0.83365338  0.17452725  0.33887218  1
  In  In57  1  0.67355968  0.83519850  0.14682484  1
  In  In58  1  0.32613998  0.67437377  0.31947164  1
  In  In59  1  0.68199554  0.35064386  0.65489598  1
  In  In60  1  0.80976582  0.68467439  0.81450007  1
  In  In61  1  0.01577986  0.84151604  0.82801253  1
  In  In62  1  0.01419708  0.15426393  0.17190234  1
  In  In63  1  0.16245198  0.84856753  0.67135391  1
  In  In64  1  -0.02479501  0.34976562  0.32894975  1
  In  In65  1  0.66586486  0.81620671  0.49345982  1
  In  In66  1  0.82988851  -0.00922023  0.83555977  1
  In  In67  1  0.16633490  0.52621833  0.66445416  1
  In  In68  1  0.35798081  0.33065675  0.67571368  1
  In  In69  1  0.15136412  0.67919228  0.49361460  1
  In  In70  1  0.00878334  0.66071935  0.01501285  1
  In  In71  1  0.84306965  0.35963147  0.15896703  1
  Te  Te72  1  0.09443216  0.08485739  0.07019996  1
  Te  Te73  1  0.07442033  0.08711637  0.43777915  1
  Te  Te74  1  0.08723896  0.07206759  0.75015655  1
  Te  Te75  1  0.06472273  0.44543140  0.05263803  1
  Te  Te76  1  0.08634697  0.43031708  0.40258159  1
  Te  Te77  1  0.08783230  0.42607752  0.75947050  1
  Te  Te78  1  0.09167145  0.74213689  0.10962570  1
  Te  Te79  1  0.04912496  0.74468285  0.40512507  1
  Te  Te80  1  0.08067459  0.73464386  0.73914247  1
  Te  Te81  1  0.41429622  0.08280028  0.08297350  1
  Te  Te82  1  0.40982933  0.05854554  0.40316025  1
  Te  Te83  1  0.40858583  0.04680817  0.75778674  1
  Te  Te84  1  0.40691532  0.40225653  0.07718800  1
  Te  Te85  1  0.40357676  0.41549095  0.41077799  1
  Te  Te86  1  0.37737441  0.43689208  0.79184267  1
  Te  Te87  1  0.45228543  0.72432793  0.10704083  1
  Te  Te88  1  0.41534732  0.74471023  0.42556452  1
  Te  Te89  1  0.41980774  0.77679691  0.73230913  1
  Te  Te90  1  0.72449190  0.05508030  0.06001897  1
  Te  Te91  1  0.73675273  0.08013587  0.41130499  1
  Te  Te92  1  0.75132407  0.07154051  0.73061184  1
  Te  Te93  1  0.74572031  0.42558429  0.06376626  1
  Te  Te94  1  0.75893961  0.43560745  0.38645544  1
  Te  Te95  1  0.75176398  0.43297661  0.77154292  1
  Te  Te96  1  0.76826354  0.73359004  0.09557317  1
  Te  Te97  1  0.78055730  0.74159550  0.43127183  1
  Te  Te98  1  0.71591228  0.74368275  0.71707108  1
  Te  Te99  1  0.08726813  0.26882654  0.24826349  1
  Te  Te100  1  0.07526594  0.24146713  0.59529290  1
  Te  Te101  1  0.09666554  0.25231052  0.94146744  1
  Te  Te102  1  0.03383787  0.58145947  0.26047579  1
  Te  Te103  1  0.05908302  0.58396878  0.57219823  1
  Te  Te104  1  0.10867852  0.56036338  0.94004215  1
  Te  Te105  1  0.06853221  0.91176254  0.22812645  1
  Te  Te106  1  0.06172707  0.88071859  0.55141008  1
  Te  Te107  1  0.07859475  0.92519125  0.93977288  1
  Te  Te108  1  0.43355830  0.25564623  0.23891388  1
  Te  Te109  1  0.41919352  0.22298524  0.57398765  1
  Te  Te110  1  0.39903452  0.25869123  0.93228515  1
  Te  Te111  1  0.42530886  0.61401534  0.21754016  1
  Te  Te112  1  0.41557325  0.59283131  0.60854246  1
  Te  Te113  1  0.41938456  0.60017308  0.91723201  1
  Te  Te114  1  0.39617180  0.89728534  0.23952389  1
  Te  Te115  1  0.43472156  0.87644566  0.61072622  1
  Te  Te116  1  0.45369604  0.87395242  0.92910418  1
  Te  Te117  1  0.75541586  0.26054073  0.24218198  1
  Te  Te118  1  0.76539727  0.24356103  0.58533046  1
  Te  Te119  1  0.74178272  0.25157707  0.92602066  1
  Te  Te120  1  0.75552264  0.58105870  0.24557750  1
  Te  Te121  1  0.77176872  0.63410693  0.57669363  1
  Te  Te122  1  0.73972033  0.61657803  0.93259750  1
  Te  Te123  1  0.78458203  0.87661988  0.25343933  1
  Te  Te124  1  0.74310807  0.91297344  0.58570408  1
  Te  Te125  1  0.73589387  0.89561882  0.90062674  1
  Te  Te126  1  0.23328759  0.25651599  0.07461287  1
  Te  Te127  1  0.24796911  0.25290965  0.41831526  1
  Te  Te128  1  0.24340307  0.25516424  0.75607180  1
  Te  Te129  1  0.23051281  0.60457812  0.08328923  1
  Te  Te130  1  0.23228218  0.58556193  0.40265806  1
  Te  Te131  1  0.25866497  0.59987176  0.75133939  1
  Te  Te132  1  0.27284627  0.90187907  0.08008562  1
  Te  Te133  1  0.23734605  0.91251989  0.40756353  1
  Te  Te134  1  0.26882397  0.88855900  0.76789176  1
  Te  Te135  1  0.59031388  0.25939585  0.07995102  1
  Te  Te136  1  0.60098435  0.28298842  0.39925470  1
  Te  Te137  1  0.59141807  0.25830564  0.74107160  1
  Te  Te138  1  0.57579572  0.62129724  0.06881448  1
  Te  Te139  1  0.57516518  0.58194812  0.41360960  1
  Te  Te140  1  0.59800364  0.59820843  0.73605299  1
  Te  Te141  1  0.57135868  0.89793008  0.05579939  1
  Te  Te142  1  0.58637722  0.92607433  0.41782735  1
  Te  Te143  1  0.55820684  0.89646695  0.81083100  1
  Te  Te144  1  0.92269875  0.24731430  0.08929095  1
  Te  Te145  1  0.93081122  0.24509169  0.43202222  1
  Te  Te146  1  0.89699314  0.22975961  0.75943685  1
  Te  Te147  1  0.91136167  0.58645952  0.10132963  1
  Te  Te148  1  0.89066649  0.61023089  0.37517322  1
  Te  Te149  1  0.91503505  0.59669149  0.74080338  1
  Te  Te150  1  0.92480839  0.91025432  0.07871801  1
  Te  Te151  1  0.90033839  0.89556120  0.40571738  1
  Te  Te152  1  0.88671086  0.87847753  0.73649004  1
  Te  Te153  1  0.25989630  0.07330822  0.25821199  1
  Te  Te154  1  0.27749433  0.04347844  0.60998233  1
  Te  Te155  1  0.25168425  0.08373967  0.93054058  1
  Te  Te156  1  0.23412384  0.44717574  0.24836477  1
  Te  Te157  1  0.26082152  0.41873527  0.58363334  1
  Te  Te158  1  0.29076296  0.43498355  0.92359026  1
  Te  Te159  1  0.22753404  0.73116455  0.22214460  1
  Te  Te160  1  0.24689563  0.73929855  0.59531020  1
  Te  Te161  1  0.26809296  0.76643923  0.90345769  1
  Te  Te162  1  0.57701847  0.08432171  0.25205958  1
  Te  Te163  1  0.59169952  0.07272236  0.58867170  1
  Te  Te164  1  0.56378661  0.06766038  0.89915855  1
  Te  Te165  1  0.57784017  0.41816116  0.22945897  1
  Te  Te166  1  0.58435238  0.43939788  0.57795366  1
  Te  Te167  1  0.58154426  0.40650143  0.92825115  1
  Te  Te168  1  0.58807129  0.74773174  0.24325307  1
  Te  Te169  1  0.59370551  0.76498732  0.61852141  1
  Te  Te170  1  0.59335447  0.77803517  0.91137352  1
  Te  Te171  1  0.91303123  0.07267105  0.25692880  1
  Te  Te172  1  0.92869314  0.07717798  0.59067293  1
  Te  Te173  1  0.92259227  0.07416479  0.92265636  1
  Te  Te174  1  0.94362333  0.45454041  0.22442134  1
  Te  Te175  1  0.92118854  0.41707949  0.58315826  1
  Te  Te176  1  0.94737261  0.40341953  0.94306045  1
  Te  Te177  1  0.95620234  0.70703962  0.26986597  1
  Te  Te178  1  0.94929447  0.79740663  0.62326705  1
  Te  Te179  1  0.93010507  0.73997119  0.90819383  1
