# generated using pymatgen
data_In2Te3
_symmetry_space_group_name_H-M   'P 1'
_cell_length_a   18.78514920
_cell_length_b   18.78994605
_cell_length_c   18.79266936
_cell_angle_alpha   89.90733063
_cell_angle_beta   89.97428567
_cell_angle_gamma   89.96316408
_symmetry_Int_Tables_number   1
_chemical_formula_structural   In2Te3
_chemical_formula_sum   'In72 Te108'
_cell_volume   6633.27424722
_cell_formula_units_Z   36
loop_
 _symmetry_equiv_pos_site_id
 _symmetry_equiv_pos_as_xyz
  1  'x, y, z'
loop_
 _atom_site_type_symbol
 _atom_site_label
 _atom_site_symmetry_multiplicity
 _atom_site_fract_x
 _atom_site_fract_y
 _atom_site_fract_z
 _atom_site_occupancy
  In  In0  1  0.19089737  0.49864827  0.34445747  1
  In  In1  1  0.86313707  0.19633066  0.36258321  1
  In  In2  1  0.33969931  0.18827190  0.85214678  1
  In  In3  1  0.02523218  0.66277244  -0.05590570  1
  In  In4  1  -0.00364119  0.33338973  -0.01451159  1
  In  In5  1  0.17629399  0.34072281  0.51369484  1
  In  In6  1  0.50183585  0.82976432  0.66020968  1
  In  In7  1  0.19295067  0.00405487  0.81853471  1
  In  In8  1  0.15302404  0.33816959  0.83427280  1
  In  In9  1  0.33951307  0.00516189  0.00723589  1
  In  In10  1  0.01214732  0.50328641  0.52526895  1
  In  In11  1  0.81587215  0.66581079  0.16696125  1
  In  In12  1  0.66684646  0.00367223  0.34535274  1
  In  In13  1  0.64818503  -0.01016233  0.01910575  1
  In  In14  1  0.16274516  0.49130274  -0.02413646  1
  In  In15  1  0.66010172  0.32915484  0.34453046  1
  In  In16  1  0.82173269  0.18802402  0.66395292  1
  In  In17  1  0.65793270  0.83295433  0.81935272  1
  In  In18  1  0.64019978  0.35423424  0.63526450  1
  In  In19  1  0.84335937  0.65723916  0.84096996  1
  In  In20  1  0.33209620  0.65689959  0.66449077  1
  In  In21  1  0.50481839  0.65225902  0.82282905  1
  In  In22  1  0.50824501  0.49273864  -0.00546471  1
  In  In23  1  0.37207637  0.82646122  0.20727517  1
  In  In24  1  0.16262475  -0.02109619  0.48514735  1
  In  In25  1  0.82175141  0.48532853  0.32829579  1
  In  In26  1  0.68278310  0.65044894  0.00299542  1
  In  In27  1  0.82206708  0.48001261  -0.01050742  1
  In  In28  1  0.34301785  -0.02685236  0.67044563  1
  In  In29  1  0.35626927  0.36411935  0.34131623  1
  In  In30  1  -0.01812197  0.34686950  0.67598842  1
  In  In31  1  0.82448552  0.34859885  0.16663999  1
  In  In32  1  0.80790621  0.00206906  0.51724139  1
  In  In33  1  0.51396166  0.17562941  0.33552773  1
  In  In34  1  0.16768583  0.16093772  0.31560427  1
  In  In35  1  0.50326239  -0.02195342  0.84651856  1
  In  In36  1  -0.01246888  0.49998959  0.15442607  1
  In  In37  1  0.48191038  0.34244397  0.83963307  1
  In  In38  1  0.82024555  0.81747730  0.01189647  1
  In  In39  1  0.34953147  0.51619323  0.18967244  1
  In  In40  1  0.64304594  0.50919251  0.19376647  1
  In  In41  1  0.85425649  0.00212719  0.82370284  1
  In  In42  1  0.36840757  0.50651269  0.49394199  1
  In  In43  1  0.33011740  0.68519561  -0.01171545  1
  In  In44  1  0.66003127  0.64944747  0.67142265  1
  In  In45  1  0.18499031  0.84059841  0.32450942  1
  In  In46  1  0.80826115  -0.00123720  0.16937931  1
  In  In47  1  0.83186818  0.67853962  0.52032559  1
  In  In48  1  0.83679516  0.33683841  0.83512696  1
  In  In49  1  0.17385515  0.68443499  0.14841503  1
  In  In50  1  0.16909909  0.65085176  0.51401191  1
  In  In51  1  0.82588345  0.50856234  0.65520755  1
  In  In52  1  0.33791811  0.16570329  0.51357440  1
  In  In53  1  0.32283174  0.33573111  0.02043498  1
  In  In54  1  0.50489788  0.00552808  0.50406685  1
  In  In55  1  0.64781979  0.18923645  0.14115465  1
  In  In56  1  -0.00550893  0.17694998  0.17481812  1
  In  In57  1  0.68438969  0.17198717  0.83751480  1
  In  In58  1  0.48459272  0.84125830  0.00984876  1
  In  In59  1  0.34522081  0.36434294  0.65854869  1
  In  In60  1  -0.01184627  0.00682704  -0.00635051  1
  In  In61  1  0.50320095  0.15774598  0.65663530  1
  In  In62  1  0.16704640  0.82477781  -0.01735604  1
  In  In63  1  0.03300632  0.00214350  0.32386654  1
  In  In64  1  0.64860437  0.83871064  0.49291508  1
  In  In65  1  0.83492760  0.82964626  0.34585087  1
  In  In66  1  -0.00274978  0.66363536  0.32817852  1
  In  In67  1  0.33539943  0.16153201  0.15862843  1
  In  In68  1  -0.00684283  0.83367587  0.51391330  1
  In  In69  1  0.00265203  0.00087658  0.65665072  1
  In  In70  1  0.17579178  -0.00653337  0.15679206  1
  In  In71  1  0.14940232  0.17260029  0.66670638  1
  Te  Te72  1  0.08235282  0.08871118  0.08447295  1
  Te  Te73  1  0.08523052  0.09866128  0.42930042  1
  Te  Te74  1  0.07390594  0.08518716  0.76406568  1
  Te  Te75  1  0.08762978  0.40946034  0.08297210  1
  Te  Te76  1  0.08425441  0.41971593  0.41782875  1
  Te  Te77  1  0.10578725  0.41557967  0.71797582  1
  Te  Te78  1  0.06438062  0.74792916  0.06710695  1
  Te  Te79  1  0.08477064  0.75464651  0.41369384  1
  Te  Te80  1  0.06250645  0.72922394  0.81612915  1
  Te  Te81  1  0.43595290  0.07278105  0.09434836  1
  Te  Te82  1  0.41361543  0.08453238  0.41070863  1
  Te  Te83  1  0.41114559  0.08249370  0.76096139  1
  Te  Te84  1  0.42443022  0.41784593  0.09972538  1
  Te  Te85  1  0.46982999  0.41336712  0.42892066  1
  Te  Te86  1  0.42957548  0.44795841  0.74772503  1
  Te  Te87  1  0.42449409  0.73040631  0.09842724  1
  Te  Te88  1  0.44942555  0.72146434  0.39067163  1
  Te  Te89  1  0.41565638  0.75634075  0.75922293  1
  Te  Te90  1  0.74792751  0.09543515  0.06905770  1
  Te  Te91  1  0.75027062  0.10440838  0.42087410  1
  Te  Te92  1  0.74873399  0.07505422  0.73896466  1
  Te  Te93  1  0.71970719  0.42229285  0.08635091  1
  Te  Te94  1  0.73647563  0.42316133  0.43021768  1
  Te  Te95  1  0.74486781  0.40857040  0.73691482  1
  Te  Te96  1  0.71297037  0.76041101  0.10573163  1
  Te  Te97  1  0.73635916  0.73825625  0.41514266  1
  Te  Te98  1  0.75429326  0.74377324  0.74477905  1
  Te  Te99  1  0.08347892  0.26378112  0.25348454  1
  Te  Te100  1  0.06315709  0.25330284  0.57137437  1
  Te  Te101  1  0.08524335  0.23776533  0.91587843  1
  Te  Te102  1  0.09348588  0.58046782  0.24180907  1
  Te  Te103  1  0.06807428  0.60838305  0.61392061  1
  Te  Te104  1  0.10849451  0.56764451  0.85549483  1
  Te  Te105  1  0.08015928  0.89561380  0.22726849  1
  Te  Te106  1  0.10267514  0.89766039  0.59969752  1
  Te  Te107  1  0.08728196  0.92933283  0.90597971  1
  Te  Te108  1  0.41658477  0.25642888  0.25002401  1
  Te  Te109  1  0.43114221  0.26706179  0.57611629  1
  Te  Te110  1  0.43834978  0.23939187  0.95774547  1
  Te  Te111  1  0.44226108  0.58656932  0.28305569  1
  Te  Te112  1  0.44603030  0.58670299  0.59362620  1
  Te  Te113  1  0.40785899  0.57672685  0.91420466  1
  Te  Te114  1  0.44854660  0.93077208  0.27422004  1
  Te  Te115  1  0.41033322  0.89651596  0.55731313  1
  Te  Te116  1  0.38771592  0.90005701  0.90648294  1
  Te  Te117  1  0.75656820  0.24077581  0.25144396  1
  Te  Te118  1  0.73388283  0.26057438  0.56753331  1
  Te  Te119  1  0.74908518  0.26569318  0.93094386  1
  Te  Te120  1  0.73406148  0.59991537  0.27660612  1
  Te  Te121  1  0.72723720  0.57225289  0.55694491  1
  Te  Te122  1  0.73481296  0.56233368  0.89214467  1
  Te  Te123  1  0.73180102  0.89790157  0.25498135  1
  Te  Te124  1  0.75436883  0.88509225  0.58701565  1
  Te  Te125  1  0.74072159  0.91737305  0.91848320  1
  Te  Te126  1  0.23302980  0.23834296  0.08474248  1
  Te  Te127  1  0.26119881  0.25754246  0.41498816  1
  Te  Te128  1  0.26339387  0.25111202  0.73337303  1
  Te  Te129  1  0.25103648  0.57269300  0.07446981  1
  Te  Te130  1  0.27598217  0.60027626  0.41456153  1
  Te  Te131  1  0.24844900  0.61063714  0.77822197  1
  Te  Te132  1  0.26317564  0.88952527  0.08668885  1
  Te  Te133  1  0.27461461  0.91503840  0.41406156  1
  Te  Te134  1  0.24425363  0.88920619  0.74099210  1
  Te  Te135  1  0.55394154  0.26702115  0.06154829  1
  Te  Te136  1  0.59354535  0.23812228  0.44309412  1
  Te  Te137  1  0.57873541  0.25334746  0.75072774  1
  Te  Te138  1  0.57043478  0.59556708  0.09051382  1
  Te  Te139  1  0.55348309  0.60865879  0.39182029  1
  Te  Te140  1  0.57973189  0.54918734  0.74729581  1
  Te  Te141  1  0.56132739  0.91414683  0.11332394  1
  Te  Te142  1  0.55403476  0.90465895  0.38712119  1
  Te  Te143  1  0.58943023  0.93472740  0.72792014  1
  Te  Te144  1  0.90371653  0.25323805  0.07781694  1
  Te  Te145  1  0.93803902  0.27974467  0.45403414  1
  Te  Te146  1  0.92717078  0.23607502  0.76437367  1
  Te  Te147  1  0.90210495  0.59073198  0.06561679  1
  Te  Te148  1  0.91409225  0.57996422  0.42312917  1
  Te  Te149  1  0.92140206  0.57648761  0.74458026  1
  Te  Te150  1  0.90861396  0.91545157  0.08955180  1
  Te  Te151  1  0.92341265  0.93191329  0.41822740  1
  Te  Te152  1  0.91448722  0.90682722  0.72984320  1
  Te  Te153  1  0.26465186  0.06017077  0.25956902  1
  Te  Te154  1  0.24425716  0.07448903  0.59279224  1
  Te  Te155  1  0.24524196  0.09694157  0.92977264  1
  Te  Te156  1  0.25024869  0.40869777  0.23783939  1
  Te  Te157  1  0.24794539  0.45500631  0.58304484  1
  Te  Te158  1  0.27044345  0.41222036  0.89898543  1
  Te  Te159  1  0.26611727  0.72786465  0.26081794  1
  Te  Te160  1  0.26210721  0.74941155  0.57112556  1
  Te  Te161  1  0.23383704  0.73161272  0.88076090  1
  Te  Te162  1  0.59073559  0.08580759  0.23862693  1
  Te  Te163  1  0.60467021  0.07968448  0.58258685  1
  Te  Te164  1  0.58169721  0.08483415  0.91787257  1
  Te  Te165  1  0.56467919  0.40041219  0.25558646  1
  Te  Te166  1  0.54564842  0.44596090  0.56343286  1
  Te  Te167  1  0.59464304  0.40260123  0.91556446  1
  Te  Te168  1  0.54431065  0.71826722  0.27658390  1
  Te  Te169  1  0.57364477  0.73006748  0.57217650  1
  Te  Te170  1  0.58314280  0.74896903  0.92327297  1
  Te  Te171  1  0.90915756  0.07463385  0.25871367  1
  Te  Te172  1  0.91205016  0.09466431  0.57771565  1
  Te  Te173  1  0.89901566  0.10059868  0.92263918  1
  Te  Te174  1  0.93162903  0.40417684  0.26044929  1
  Te  Te175  1  0.89722831  0.40361489  0.56042749  1
  Te  Te176  1  0.93511020  0.43934210  0.89493508  1
  Te  Te177  1  0.91688582  0.75631410  0.23820555  1
  Te  Te178  1  0.93505086  0.73612946  0.60975215  1
  Te  Te179  1  0.91680616  0.77802032  0.90089711  1
