# generated using pymatgen
data_In2Te3
_symmetry_space_group_name_H-M   'P 1'
_cell_length_a   18.81034157
_cell_length_b   18.82116775
_cell_length_c   18.81765491
_cell_angle_alpha   89.88564462
_cell_angle_beta   89.97215179
_cell_angle_gamma   90.07676143
_symmetry_Int_Tables_number   1
_chemical_formula_structural   In2Te3
_chemical_formula_sum   'In72 Te108'
_cell_volume   6662.04313823
_cell_formula_units_Z   36
loop_
 _symmetry_equiv_pos_site_id
 _symmetry_equiv_pos_as_xyz
  1  'x, y, z'
loop_
 _atom_site_type_symbol
 _atom_site_label
 _atom_site_symmetry_multiplicity
 _atom_site_fract_x
 _atom_site_fract_y
 _atom_site_fract_z
 _atom_site_occupancy
  In  In0  1  0.33200435  0.83288461  0.16269891  1
  In  In1  1  -0.02484616  0.33575099  0.34048606  1
  In  In2  1  0.30424546  0.48924652  0.51465744  1
  In  In3  1  0.66290602  0.65741878  -0.00183582  1
  In  In4  1  0.83294937  0.35992997  0.17401992  1
  In  In5  1  0.00600003  0.16531255  0.86144818  1
  In  In6  1  0.86188246  0.67381618  0.80534060  1
  In  In7  1  0.17160347  -0.00155456  0.83563756  1
  In  In8  1  0.50279767  0.50628872  0.31331413  1
  In  In9  1  0.16092979  0.50278804  0.33013614  1
  In  In10  1  0.48393162  0.01047156  0.46250747  1
  In  In11  1  -0.00270826  0.85586364  0.82985044  1
  In  In12  1  0.18258934  0.82516972  0.00860741  1
  In  In13  1  0.01500424  0.67750076  -0.00250299  1
  In  In14  1  0.50094400  0.79932520  0.66415718  1
  In  In15  1  0.82902487  0.17656926  0.34442200  1
  In  In16  1  0.50966777  0.00434838  0.84877865  1
  In  In17  1  0.66269636  0.82850592  0.16487406  1
  In  In18  1  0.64768658  0.35562081  0.37250672  1
  In  In19  1  0.49221395  0.49206221  -0.00327861  1
  In  In20  1  0.83635588  0.15074735  0.65837812  1
  In  In21  1  0.83530084  0.17552907  -0.00554968  1
  In  In22  1  0.84540671  0.68182837  0.19447368  1
  In  In23  1  0.02978059  0.31128523  0.00999709  1
  In  In24  1  0.82079467  0.35115017  0.82625116  1
  In  In25  1  -0.01022610  -0.00721102  0.34389863  1
  In  In26  1  0.49222560  -0.02075384  0.16204680  1
  In  In27  1  0.50433606  0.83790143  0.32501112  1
  In  In28  1  0.68660347  0.33307785  -0.00415389  1
  In  In29  1  0.84485279  -0.02066823  0.51080031  1
  In  In30  1  0.65079436  0.17500557  0.16747963  1
  In  In31  1  0.00657984  0.66383614  0.65176455  1
  In  In32  1  0.30356652  0.83501005  0.49293291  1
  In  In33  1  0.50118035  0.64885404  0.51671056  1
  In  In34  1  0.83989196  0.50019979  0.00766515  1
  In  In35  1  0.31354366  0.18126646  0.18907273  1
  In  In36  1  0.33358991  0.34045412  -0.01701674  1
  In  In37  1  0.34648736  0.64793192  0.32976584  1
  In  In38  1  0.17313798  0.15400216  0.67533526  1
  In  In39  1  0.66468541  0.50497067  0.81101744  1
  In  In40  1  -0.00751697  0.50982077  0.81932094  1
  In  In41  1  0.16505571  0.66218083  0.15715355  1
  In  In42  1  0.49782545  0.46964161  0.68140309  1
  In  In43  1  0.14751453  0.68061291  0.53827964  1
  In  In44  1  0.17626532  0.34634283  0.16459934  1
  In  In45  1  0.53267736  0.82718793  0.00295903  1
  In  In46  1  0.52018284  0.21042034  0.69061369  1
  In  In47  1  0.31262229  -0.00226993  -0.00031730  1
  In  In48  1  0.03912616  0.14292077  0.14794179  1
  In  In49  1  0.00921631  0.34400175  0.66508568  1
  In  In50  1  0.35356150  0.66240293  -0.01356998  1
  In  In51  1  0.69303069  0.84696699  0.86222802  1
  In  In52  1  0.84636961  -0.01382268  0.16528235  1
  In  In53  1  0.70101505  0.52075001  0.52280963  1
  In  In54  1  0.51155475  0.15782252  -0.01483667  1
  In  In55  1  0.14181347  0.84959618  0.34300645  1
  In  In56  1  0.18953176  0.31652017  0.50477647  1
  In  In57  1  0.65486585  0.17391352  0.51102020  1
  In  In58  1  0.15190096  0.15934835  0.35295360  1
  In  In59  1  0.48474416  0.33056592  0.50826152  1
  In  In60  1  0.69594080  0.68523505  0.34700529  1
  In  In61  1  -0.01283180  0.53055280  0.47956184  1
  In  In62  1  0.11284481  0.83760140  0.63734425  1
  In  In63  1  0.67178489  -0.01003933  0.31224188  1
  In  In64  1  0.66317316  0.00884781  0.67004654  1
  In  In65  1  0.32491082  0.17396269  0.82978580  1
  In  In66  1  0.16978225  0.47731946  -0.01026049  1
  In  In67  1  0.32768403  -0.01360215  0.65520531  1
  In  In68  1  0.31726607  0.32660311  0.32691682  1
  In  In69  1  0.34646009  0.81831302  0.81852816  1
  In  In70  1  0.84867859  0.83103411  0.66677130  1
  In  In71  1  0.81993513  0.32353272  0.49698138  1
  Te  Te72  1  0.07312055  0.07031554  0.02833422  1
  Te  Te73  1  0.08126541  0.06023840  0.44288587  1
  Te  Te74  1  0.06892735  0.07329092  0.75411705  1
  Te  Te75  1  0.06951094  0.43136242  0.09597904  1
  Te  Te76  1  0.09013101  0.40871851  0.42684811  1
  Te  Te77  1  0.08951446  0.40521377  0.77553677  1
  Te  Te78  1  0.07267441  0.77145805  0.10253133  1
  Te  Te79  1  0.07070243  0.74387431  0.42068849  1
  Te  Te80  1  0.07781900  0.74781495  0.75862025  1
  Te  Te81  1  0.41231315  0.08310942  0.08085219  1
  Te  Te82  1  0.39229559  0.10432929  0.40195310  1
  Te  Te83  1  0.41072890  0.07173261  0.75441776  1
  Te  Te84  1  0.41000049  0.40920920  0.08791870  1
  Te  Te85  1  0.40565146  0.42931580  0.41498604  1
  Te  Te86  1  0.39919864  0.44113855  0.79052440  1
  Te  Te87  1  0.43228899  0.74733964  0.08729784  1
  Te  Te88  1  0.41867626  0.74884757  0.42195934  1
  Te  Te89  1  0.42210806  0.71006561  0.75360265  1
  Te  Te90  1  0.75557625  0.09199860  0.09754027  1
  Te  Te91  1  0.74284907  0.08028822  0.42587190  1
  Te  Te92  1  0.76050540  0.07255773  0.75920765  1
  Te  Te93  1  0.73007753  0.44123350  0.09511980  1
  Te  Te94  1  0.76898380  0.43887824  0.41075205  1
  Te  Te95  1  0.75048746  0.42418525  0.72000356  1
  Te  Te96  1  0.75615439  0.74496280  0.07956945  1
  Te  Te97  1  0.79762051  0.74345915  0.43856278  1
  Te  Te98  1  0.74432554  0.75454236  0.75225411  1
  Te  Te99  1  0.08387614  0.26420067  0.25598091  1
  Te  Te100  1  0.08263709  0.23929341  0.58230479  1
  Te  Te101  1  0.10527108  0.27383273  0.88797048  1
  Te  Te102  1  0.07255224  0.59460675  0.25393367  1
  Te  Te103  1  0.09327297  0.53995790  0.59758533  1
  Te  Te104  1  0.09369058  0.58396786  0.90727904  1
  Te  Te105  1  0.06480342  0.92091610  0.23858831  1
  Te  Te106  1  0.04761461  0.93842002  0.55400765  1
  Te  Te107  1  0.08442281  0.92451680  0.93934874  1
  Te  Te108  1  0.42098696  0.26711665  0.24062314  1
  Te  Te109  1  0.40812377  0.24921034  0.60547583  1
  Te  Te110  1  0.43169888  0.25545206  0.89941645  1
  Te  Te111  1  0.41912577  0.58510998  0.21964505  1
  Te  Te112  1  0.40459080  0.56692940  0.59931445  1
  Te  Te113  1  0.41976132  0.56914527  0.88723592  1
  Te  Te114  1  0.39504480  0.92635642  0.26731195  1
  Te  Te115  1  0.42743346  0.90676411  0.57167842  1
  Te  Te116  1  0.41163498  0.90316135  0.93214045  1
  Te  Te117  1  0.73865388  0.26453407  0.26040596  1
  Te  Te118  1  0.73682441  0.25671914  0.60735917  1
  Te  Te119  1  0.73934497  0.23590274  0.88950930  1
  Te  Te120  1  0.74168060  0.58977674  0.24484970  1
  Te  Te121  1  0.79553795  0.61156952  0.59050893  1
  Te  Te122  1  0.77120371  0.58543666  0.90175565  1
  Te  Te123  1  0.77040524  0.88788000  0.25708546  1
  Te  Te124  1  0.73567161  0.90515406  0.58666902  1
  Te  Te125  1  0.78923998  0.92289966  0.94352524  1
  Te  Te126  1  0.24278170  0.24886942  0.07090629  1
  Te  Te127  1  0.28243285  0.21584620  0.42969889  1
  Te  Te128  1  0.25607465  0.26425333  0.73419556  1
  Te  Te129  1  0.25568824  0.57719502  0.06941612  1
  Te  Te130  1  0.23845730  0.60130798  0.43016985  1
  Te  Te131  1  0.19921072  0.62063420  0.67525333  1
  Te  Te132  1  0.22993426  0.93242213  0.10938784  1
  Te  Te133  1  0.24032625  0.93798306  0.41175498  1
  Te  Te134  1  0.23449113  0.89715170  0.74129709  1
  Te  Te135  1  0.57284273  0.26619296  0.07468158  1
  Te  Te136  1  0.55926848  0.23671807  0.41165574  1
  Te  Te137  1  0.59871935  0.28126494  0.78817649  1
  Te  Te138  1  0.57301274  0.58030569  0.08460147  1
  Te  Te139  1  0.59398770  0.57720060  0.41722354  1
  Te  Te140  1  0.58209120  0.58684798  0.71996038  1
  Te  Te141  1  0.60931990  0.93851905  0.07319580  1
  Te  Te142  1  0.59734080  0.91128063  0.42002113  1
  Te  Te143  1  0.57812809  0.90475898  0.75627634  1
  Te  Te144  1  0.91670907  0.25395220  0.09947136  1
  Te  Te145  1  0.92976798  0.23014260  0.44361837  1
  Te  Te146  1  0.91920769  0.24937285  0.75211641  1
  Te  Te147  1  0.92507801  0.59460002  0.08880695  1
  Te  Te148  1  0.89936489  0.62461159  0.40025621  1
  Te  Te149  1  0.89716192  0.56011770  0.70782947  1
  Te  Te150  1  0.89736231  0.90869833  0.05280838  1
  Te  Te151  1  0.89280315  0.89335626  0.40025564  1
  Te  Te152  1  0.90705361  0.93942203  0.74850291  1
  Te  Te153  1  0.22062680  0.08295018  0.24684386  1
  Te  Te154  1  0.23731122  0.06699528  0.57318567  1
  Te  Te155  1  0.23092681  0.10469768  0.92818049  1
  Te  Te156  1  0.26643361  0.44302851  0.23884349  1
  Te  Te157  1  0.25595366  0.39156053  0.61610608  1
  Te  Te158  1  0.26899511  0.43545277  0.88284473  1
  Te  Te159  1  0.24916484  0.74808282  0.26015468  1
  Te  Te160  1  0.26855245  0.74678902  0.60968255  1
  Te  Te161  1  0.24666008  0.73582468  0.90382599  1
  Te  Te162  1  0.56554971  0.08122993  0.25314799  1
  Te  Te163  1  0.55731566  0.08461499  0.58795106  1
  Te  Te164  1  0.61515114  0.07182496  0.92475347  1
  Te  Te165  1  0.58378234  0.40132681  0.24857157  1
  Te  Te166  1  0.59255044  0.41635151  0.57098458  1
  Te  Te167  1  0.58913627  0.40632340  0.90060288  1
  Te  Te168  1  0.58127077  0.73234950  0.25007484  1
  Te  Te169  1  0.60258812  0.73717303  0.57683944  1
  Te  Te170  1  0.58335111  0.73616509  0.89507474  1
  Te  Te171  1  0.91997730  0.10173079  0.24918975  1
  Te  Te172  1  0.93893134  0.06529276  0.58818599  1
  Te  Te173  1  0.90872426  0.06914133  0.92097305  1
  Te  Te174  1  0.91861552  0.44418323  0.25892927  1
  Te  Te175  1  0.92089402  0.41743219  0.56329443  1
  Te  Te176  1  0.92486057  0.40261660  0.92670602  1
  Te  Te177  1  0.95751612  0.71888489  0.28988217  1
  Te  Te178  1  0.90623664  0.73689602  0.56142275  1
  Te  Te179  1  0.91429979  0.76039084  0.91862799  1
