# generated using pymatgen
data_In2Te3
_symmetry_space_group_name_H-M   'P 1'
_cell_length_a   18.82486149
_cell_length_b   18.81782873
_cell_length_c   18.82352366
_cell_angle_alpha   89.93551816
_cell_angle_beta   90.09045647
_cell_angle_gamma   90.10908451
_symmetry_Int_Tables_number   1
_chemical_formula_structural   In2Te3
_chemical_formula_sum   'In72 Te108'
_cell_volume   6668.07726485
_cell_formula_units_Z   36
loop_
 _symmetry_equiv_pos_site_id
 _symmetry_equiv_pos_as_xyz
  1  'x, y, z'
loop_
 _atom_site_type_symbol
 _atom_site_label
 _atom_site_symmetry_multiplicity
 _atom_site_fract_x
 _atom_site_fract_y
 _atom_site_fract_z
 _atom_site_occupancy
  In  In0  1  -0.00344094  0.32813703  0.35132769  1
  In  In1  1  0.83031432  0.16509712  -0.02215692  1
  In  In2  1  0.80969426  0.69580328  0.15922314  1
  In  In3  1  0.66684512  0.82161682  0.49705300  1
  In  In4  1  0.00119182  0.34840682  -0.01710443  1
  In  In5  1  0.65299489  0.17822338  0.83853134  1
  In  In6  1  0.36369126  -0.01438947  0.32927022  1
  In  In7  1  0.00023022  0.17761891  0.50309778  1
  In  In8  1  0.65199945  -0.03337754  0.32435731  1
  In  In9  1  0.66715731  0.81697208  0.81655086  1
  In  In10  1  0.33240116  0.13321602  0.82188520  1
  In  In11  1  0.32520054  0.67632767  0.64856018  1
  In  In12  1  0.15055509  -0.03814198  0.50183523  1
  In  In13  1  0.84735868  0.18492667  0.67779945  1
  In  In14  1  0.50212803  0.82793550  -0.02005071  1
  In  In15  1  0.02631991  0.51336345  0.19264610  1
  In  In16  1  0.48314328  0.53552808  -0.00358651  1
  In  In17  1  0.52652675  0.14946733  0.01916621  1
  In  In18  1  0.67635667  0.52696735  0.79908218  1
  In  In19  1  0.15435394  0.34307992  0.50647808  1
  In  In20  1  0.34484103  0.34236172  -0.01964274  1
  In  In21  1  0.13960148  0.18498084  -0.01338540  1
  In  In22  1  0.31128081  0.52978558  0.82058923  1
  In  In23  1  0.16455692  0.35802463  0.83346258  1
  In  In24  1  0.50406669  0.80973297  0.65211864  1
  In  In25  1  0.63426299  0.50711371  0.17988317  1
  In  In26  1  0.49053245  0.35508254  0.20023221  1
  In  In27  1  0.68152006  0.15381375  0.18731942  1
  In  In28  1  0.84525940  0.15421236  0.35919196  1
  In  In29  1  0.00247243  0.54098398  0.51991180  1
  In  In30  1  0.34032586  0.19276435  0.16248776  1
  In  In31  1  0.35388854  0.16889785  0.52972393  1
  In  In32  1  0.29983807  0.54200723  0.13691573  1
  In  In33  1  0.31944441  0.00119478  0.69535327  1
  In  In34  1  0.84122677  0.50976697  -0.00580190  1
  In  In35  1  -0.00832830  0.00134460  0.33805758  1
  In  In36  1  0.17927135  0.78344020  0.31834364  1
  In  In37  1  0.32733826  0.35483031  0.64746327  1
  In  In38  1  0.49929099  0.66639792  0.16923333  1
  In  In39  1  0.81816736  0.50302595  0.38332886  1
  In  In40  1  0.15885326  -0.01608150  0.82911553  1
  In  In41  1  0.34993381  0.35440512  0.33345781  1
  In  In42  1  0.83133177  -0.02233647  0.82776058  1
  In  In43  1  0.82931476  0.32657931  0.16761417  1
  In  In44  1  0.13479419  0.35692967  0.17332983  1
  In  In45  1  0.66780425  0.20354247  0.48883009  1
  In  In46  1  0.16027965  0.82260272  0.67055445  1
  In  In47  1  0.01695491  -0.01288636  -0.00899766  1
  In  In48  1  -0.01443425  0.79326431  0.52274626  1
  In  In49  1  0.34229028  0.80646217  0.50002863  1
  In  In50  1  0.16793229  -0.01106480  0.14813215  1
  In  In51  1  0.49020971  -0.03700631  0.16169449  1
  In  In52  1  0.67051234  -0.00368972  0.64611277  1
  In  In53  1  0.18017842  0.18533030  0.31835025  1
  In  In54  1  0.66213264  0.65707061  0.34573077  1
  In  In55  1  0.33020415  -0.04458511  -0.00656737  1
  In  In56  1  0.81784372  0.50242062  0.63411792  1
  In  In57  1  0.01357681  0.66366484  -0.00102117  1
  In  In58  1  0.51515440  -0.01123368  0.50539173  1
  In  In59  1  -0.00205944  0.83381894  0.83870941  1
  In  In60  1  0.81476748  -0.02793429  0.17974023  1
  In  In61  1  0.67036316  0.32021722  -0.00990326  1
  In  In62  1  0.19718187  0.54553565  0.35553750  1
  In  In63  1  0.64294169  -0.02310545  -0.00988048  1
  In  In64  1  0.51490118  0.50536793  0.65589832  1
  In  In65  1  0.51302084  0.33339406  0.82960093  1
  In  In66  1  0.16117689  0.16556933  0.67681295  1
  In  In67  1  -0.00332888  0.82653318  0.16700802  1
  In  In68  1  0.84074205  0.66859449  0.81939469  1
  In  In69  1  0.01812368  0.51377835  0.83104205  1
  In  In70  1  0.84346927  -0.01306773  0.49610036  1
  In  In71  1  0.50014652  0.50919248  0.35252370  1
  Te  Te72  1  0.07157130  0.09179606  0.08880143  1
  Te  Te73  1  0.09258897  0.09222257  0.41435209  1
  Te  Te74  1  0.07390222  0.06766092  0.74424783  1
  Te  Te75  1  0.08376338  0.44892402  0.06286847  1
  Te  Te76  1  0.09355735  0.43457147  0.39987781  1
  Te  Te77  1  0.08613096  0.42736983  0.73104515  1
  Te  Te78  1  0.09786992  0.73959075  0.09835457  1
  Te  Te79  1  0.08996908  0.73378536  0.42654622  1
  Te  Te80  1  0.07624566  0.73439803  0.75764501  1
  Te  Te81  1  0.40857123  0.07526614  0.08423176  1
  Te  Te82  1  0.42931541  0.08735227  0.42343679  1
  Te  Te83  1  0.43108941  0.09597274  0.71992089  1
  Te  Te84  1  0.41322665  0.42834146  0.09022325  1
  Te  Te85  1  0.40682612  0.43501458  0.44178469  1
  Te  Te86  1  0.41148795  0.42778292  0.76245121  1
  Te  Te87  1  0.41218472  0.74965818  0.07307030  1
  Te  Te88  1  0.40610144  0.71326767  0.40090173  1
  Te  Te89  1  0.40565039  0.75289423  0.74589181  1
  Te  Te90  1  0.73964548  0.07772193  0.06720490  1
  Te  Te91  1  0.73521406  0.06474897  0.41915620  1
  Te  Te92  1  0.74375615  0.07974418  0.75390251  1
  Te  Te93  1  0.74417712  0.42300740  0.08320070  1
  Te  Te94  1  0.73198412  0.41804027  0.46713739  1
  Te  Te95  1  0.74332980  0.41703334  0.73167949  1
  Te  Te96  1  0.72806254  0.78441252  0.07846734  1
  Te  Te97  1  0.76171250  0.74306445  0.41580179  1
  Te  Te98  1  0.74227203  0.72873354  0.71995710  1
  Te  Te99  1  0.06121829  0.24123905  0.24193944  1
  Te  Te100  1  0.06909972  0.26606394  0.60689203  1
  Te  Te101  1  0.05480951  0.24565961  0.87316683  1
  Te  Te102  1  0.11562496  0.61747130  0.25238465  1
  Te  Te103  1  0.12708474  0.57646001  0.59179999  1
  Te  Te104  1  0.10293725  0.62629392  0.88458501  1
  Te  Te105  1  0.09331201  0.91496690  0.26229511  1
  Te  Te106  1  0.05194378  0.90881205  0.60191893  1
  Te  Te107  1  0.11016531  0.88304327  0.93356783  1
  Te  Te108  1  0.43064797  0.23677995  0.27733691  1
  Te  Te109  1  0.43595272  0.27174804  0.59443911  1
  Te  Te110  1  0.43091637  0.23229807  0.92323760  1
  Te  Te111  1  0.40810375  0.56910292  0.24140979  1
  Te  Te112  1  0.40698478  0.57397985  0.57482248  1
  Te  Te113  1  0.39697608  0.62066825  0.90750706  1
  Te  Te114  1  0.40098326  0.87117021  0.23975273  1
  Te  Te115  1  0.39971433  0.92315520  0.58342762  1
  Te  Te116  1  0.42855759  0.92142504  0.89103185  1
  Te  Te117  1  0.75328745  0.25199319  0.27710715  1
  Te  Te118  1  0.75295512  0.26246488  0.59459971  1
  Te  Te119  1  0.76793122  0.26963940  0.88599043  1
  Te  Te120  1  0.75502086  0.56723205  0.25101670  1
  Te  Te121  1  0.75602701  0.63219020  0.59228376  1
  Te  Te122  1  0.74493167  0.59802903  0.91806156  1
  Te  Te123  1  0.75982028  0.87688743  0.27767039  1
  Te  Te124  1  0.76744082  0.89421388  0.59041624  1
  Te  Te125  1  0.75077691  0.89137869  0.92368509  1
  Te  Te126  1  0.23624962  0.26983445  0.07938025  1
  Te  Te127  1  0.25657154  0.25550986  0.43081028  1
  Te  Te128  1  0.26219394  0.25605403  0.76077379  1
  Te  Te129  1  0.22388155  0.63756477  0.05110521  1
  Te  Te130  1  0.30013856  0.60849818  0.44322090  1
  Te  Te131  1  0.21857112  0.59369611  0.72089770  1
  Te  Te132  1  0.25184707  0.88144789  0.09344950  1
  Te  Te133  1  0.25596111  0.90716162  0.40886907  1
  Te  Te134  1  0.25825213  0.88317296  0.77146330  1
  Te  Te135  1  0.58261421  0.26248045  0.10796535  1
  Te  Te136  1  0.58330917  0.31397153  0.43757410  1
  Te  Te137  1  0.59837037  0.26525481  0.73228255  1
  Te  Te138  1  0.59979197  0.60399120  0.06946259  1
  Te  Te139  1  0.60265157  0.56422280  0.44910294  1
  Te  Te140  1  0.55906303  0.60514372  0.75750616  1
  Te  Te141  1  0.60767946  0.88173999  0.10665740  1
  Te  Te142  1  0.55248964  0.88380345  0.40367401  1
  Te  Te143  1  0.57953839  0.91376916  0.73561326  1
  Te  Te144  1  0.91804062  0.25109214  0.06952266  1
  Te  Te145  1  0.89310882  0.27050741  0.44655539  1
  Te  Te146  1  0.94114033  0.25546721  0.76396679  1
  Te  Te147  1  0.91959324  0.58584368  0.09987861  1
  Te  Te148  1  0.92825332  0.59740664  0.40502028  1
  Te  Te149  1  0.92372003  0.58057053  0.72973308  1
  Te  Te150  1  0.91165963  0.91438043  0.07636133  1
  Te  Te151  1  0.92394004  0.88917456  0.41296680  1
  Te  Te152  1  0.90792818  0.89197652  0.73689289  1
  Te  Te153  1  0.26204299  0.07754620  0.24650776  1
  Te  Te154  1  0.23789541  0.07548611  0.57617301  1
  Te  Te155  1  0.24033811  0.08086070  0.93464796  1
  Te  Te156  1  0.24665836  0.42972952  0.24773539  1
  Te  Te157  1  0.23269694  0.44841279  0.58012299  1
  Te  Te158  1  0.24428514  0.44508555  0.93108080  1
  Te  Te159  1  0.31402068  0.73978617  0.27584579  1
  Te  Te160  1  0.21201268  0.74238428  0.55189445  1
  Te  Te161  1  0.30073947  0.73638044  0.96366995  1
  Te  Te162  1  0.57031681  0.06930128  0.24506008  1
  Te  Te163  1  0.58708898  0.10264138  0.57665435  1
  Te  Te164  1  0.56396571  0.06728429  0.89595511  1
  Te  Te165  1  0.60481139  0.40387511  0.28823746  1
  Te  Te166  1  0.60092672  0.43300424  0.55358427  1
  Te  Te167  1  0.57761462  0.42690348  0.93163185  1
  Te  Te168  1  0.57636684  0.74752264  0.26571444  1
  Te  Te169  1  0.57581810  0.72158749  0.55949070  1
  Te  Te170  1  0.57690119  0.73093115  0.89674470  1
  Te  Te171  1  0.90623954  0.08103059  0.23958427  1
  Te  Te172  1  0.92040449  0.08014668  0.58817477  1
  Te  Te173  1  0.92511902  0.07227510  0.90282017  1
  Te  Te174  1  0.91576559  0.41727541  0.25493799  1
  Te  Te175  1  0.92979008  0.42544723  0.57532342  1
  Te  Te176  1  0.90597143  0.42342915  0.88987304  1
  Te  Te177  1  0.91727567  0.73584546  0.25153264  1
  Te  Te178  1  0.89948415  0.69493984  0.59306658  1
  Te  Te179  1  0.90860205  0.74925307  0.93100798  1
