# generated using pymatgen
data_In2Te3
_symmetry_space_group_name_H-M   'P 1'
_cell_length_a   19.03282682
_cell_length_b   19.06304140
_cell_length_c   19.05186004
_cell_angle_alpha   89.90553755
_cell_angle_beta   90.27647940
_cell_angle_gamma   90.09853690
_symmetry_Int_Tables_number   1
_chemical_formula_structural   In2Te3
_chemical_formula_sum   'In72 Te108'
_cell_volume   6912.36379120
_cell_formula_units_Z   36
loop_
 _symmetry_equiv_pos_site_id
 _symmetry_equiv_pos_as_xyz
  1  'x, y, z'
loop_
 _atom_site_type_symbol
 _atom_site_label
 _atom_site_symmetry_multiplicity
 _atom_site_fract_x
 _atom_site_fract_y
 _atom_site_fract_z
 _atom_site_occupancy
  In  In0  1  0.82172280  0.15737072  0.36020486  1
  In  In1  1  0.33886022  0.49791624  0.15969313  1
  In  In2  1  0.33022406  0.82147483  0.83530422  1
  In  In3  1  0.83839712  0.51468119  0.31495261  1
  In  In4  1  0.82731118  0.83625924  0.64677371  1
  In  In5  1  0.70075257  0.83347096  0.82186651  1
  In  In6  1  0.92732506  0.79004376  0.01290562  1
  In  In7  1  0.38072983  0.52303239  0.52869211  1
  In  In8  1  0.31594013  0.35636641  0.34455402  1
  In  In9  1  0.64779613  0.50487217  0.82947755  1
  In  In10  1  0.65495037  0.84417958  0.17490022  1
  In  In11  1  0.00560499  0.17135874  0.81670608  1
  In  In12  1  -0.00495454  0.49154913  0.50730814  1
  In  In13  1  0.80401236  0.83726941  0.33048403  1
  In  In14  1  0.32033742  0.83579463  0.16203352  1
  In  In15  1  0.65533729  0.00973665  -0.02325104  1
  In  In16  1  0.82347587  0.16378728  0.00891171  1
  In  In17  1  0.68439084  0.66389990  0.34671053  1
  In  In18  1  0.33152943  0.15658813  0.48398771  1
  In  In19  1  0.77742131  0.15356425  0.64093859  1
  In  In20  1  0.17888038  0.65769846  0.50814129  1
  In  In21  1  0.48068447  0.01117968  0.83964492  1
  In  In22  1  0.63564094  0.32585983  -0.00030667  1
  In  In23  1  0.00088906  0.15342236  0.16749074  1
  In  In24  1  0.84042712  0.67639520  0.16829833  1
  In  In25  1  0.47870836  0.32358960  0.16872352  1
  In  In26  1  0.84279901  0.65897512  0.50669984  1
  In  In27  1  0.17704115  0.03773216  0.84215466  1
  In  In28  1  0.01052787  0.51730046  0.15490548  1
  In  In29  1  0.81140222  -0.01304765  0.16036590  1
  In  In30  1  0.67610111  0.65270738  0.00693966  1
  In  In31  1  0.37644641  0.30470525  -0.03581984  1
  In  In32  1  0.62280194  0.20097717  0.83041539  1
  In  In33  1  0.15681448  0.30658439  0.15390330  1
  In  In34  1  0.19445784  0.48415153  -0.02877281  1
  In  In35  1  0.17204247  0.83291082  0.63980073  1
  In  In36  1  0.18725494  0.49106404  0.68639458  1
  In  In37  1  -0.00432817  -0.01463369  0.34765427  1
  In  In38  1  -0.02187294  0.15822839  0.50980982  1
  In  In39  1  0.15032831  0.32282525  0.52056541  1
  In  In40  1  0.83211855  0.49641522  0.67277454  1
  In  In41  1  0.36246634  0.82778157  0.51350369  1
  In  In42  1  -0.00776834  0.33348623  -0.03309923  1
  In  In43  1  0.33741734  0.67694368  -0.00696137  1
  In  In44  1  0.82147614  0.35905061  0.16658973  1
  In  In45  1  0.50482022  0.68274826  0.82455299  1
  In  In46  1  0.63327005  0.48363352  0.13746654  1
  In  In47  1  0.17039286  0.52664985  0.34553435  1
  In  In48  1  0.34017485  0.01710935  0.68394672  1
  In  In49  1  0.49645528  0.49181900  0.31337751  1
  In  In50  1  0.84131008  0.33502798  0.81182564  1
  In  In51  1  0.48657783  0.84228441  -0.01582219  1
  In  In52  1  0.33297638  -0.01172452  0.33766850  1
  In  In53  1  0.01311435  0.83346296  0.82583579  1
  In  In54  1  0.54149605  0.85572637  0.64625725  1
  In  In55  1  0.53499696  0.31238208  0.50398094  1
  In  In56  1  0.18682315  0.31579144  0.84353658  1
  In  In57  1  0.34011723  0.32555347  0.65946355  1
  In  In58  1  0.18324054  0.66238100  0.83029868  1
  In  In59  1  0.65584568  0.47743414  0.50668257  1
  In  In60  1  0.31608806  0.15977014  0.16872787  1
  In  In61  1  0.68269816  0.30630797  0.35843892  1
  In  In62  1  0.81906644  0.30953419  0.52505994  1
  In  In63  1  -0.00448338  0.82541185  0.48465338  1
  In  In64  1  0.00086398  0.00498100  0.00677802  1
  In  In65  1  0.14868481  -0.01619266  0.19373339  1
  In  In66  1  0.49069857  0.04303122  0.22513112  1
  In  In67  1  0.01525839  0.50160468  0.81211310  1
  In  In68  1  0.82117625  0.00072262  0.80503162  1
  In  In69  1  0.17628432  -0.00986304  0.48482304  1
  In  In70  1  0.53258224  0.85187771  0.37156403  1
  In  In71  1  0.16141252  0.70038053  0.16260064  1
  Te  Te72  1  0.10247106  0.08631792  0.08214988  1
  Te  Te73  1  0.07963357  0.08673849  0.41932117  1
  Te  Te74  1  0.08172911  0.07605490  0.73900832  1
  Te  Te75  1  0.08553131  0.41328905  0.06026335  1
  Te  Te76  1  0.08979352  0.41995695  0.41527536  1
  Te  Te77  1  0.09310179  0.39001228  0.74856965  1
  Te  Te78  1  0.05284881  0.75279579  0.07675551  1
  Te  Te79  1  0.10304506  0.74888379  0.42271481  1
  Te  Te80  1  0.09657645  0.74421605  0.73683110  1
  Te  Te81  1  0.42181730  0.08498624  0.10390348  1
  Te  Te82  1  0.42655748  0.06497856  0.42022515  1
  Te  Te83  1  0.45580918  0.09989462  0.72405229  1
  Te  Te84  1  0.41979418  0.41534482  0.06505037  1
  Te  Te85  1  0.43236676  0.40773424  0.42759761  1
  Te  Te86  1  0.44313655  0.41390055  0.71754179  1
  Te  Te87  1  0.42534720  0.75331321  0.08862724  1
  Te  Te88  1  0.44860017  0.74170381  0.42779411  1
  Te  Te89  1  0.43524416  0.78460452  0.73763072  1
  Te  Te90  1  0.72393152  0.08842113  0.09118101  1
  Te  Te91  1  0.74891865  0.10021594  0.47511801  1
  Te  Te92  1  0.71072860  0.09441157  0.76432917  1
  Te  Te93  1  0.74391459  0.42178552  0.05583561  1
  Te  Te94  1  0.77215091  0.42235936  0.41624502  1
  Te  Te95  1  0.73142197  0.40769420  0.74183583  1
  Te  Te96  1  0.74846522  0.76617320  0.08745564  1
  Te  Te97  1  0.74473221  0.75735800  0.44715019  1
  Te  Te98  1  0.73373404  0.74461943  0.71186655  1
  Te  Te99  1  0.07377105  0.24513358  0.25441141  1
  Te  Te100  1  0.07188639  0.22915477  0.59837854  1
  Te  Te101  1  0.09256275  0.22973473  0.92629582  1
  Te  Te102  1  0.08043935  0.60632439  0.25425032  1
  Te  Te103  1  0.09234322  0.56830197  0.59436526  1
  Te  Te104  1  0.08989935  0.58034002  0.91729495  1
  Te  Te105  1  0.07693265  0.88802229  0.27732923  1
  Te  Te106  1  0.07265023  0.92396117  0.57221893  1
  Te  Te107  1  0.09031273  0.93104284  0.91248091  1
  Te  Te108  1  0.39240045  0.25177762  0.26699957  1
  Te  Te109  1  0.42655966  0.23406357  0.57466933  1
  Te  Te110  1  0.37452352  0.20863407  0.84802479  1
  Te  Te111  1  0.41203505  0.58877926  0.24619457  1
  Te  Te112  1  0.47473276  0.60900467  0.60385696  1
  Te  Te113  1  0.40856916  0.59651824  0.89527607  1
  Te  Te114  1  0.43698906  0.90528844  0.25881539  1
  Te  Te115  1  0.42929780  0.94104401  0.58563518  1
  Te  Te116  1  0.38209454  0.93319094  0.92443771  1
  Te  Te117  1  0.76429415  0.24608662  0.24591104  1
  Te  Te118  1  0.69459384  0.26542364  0.58899780  1
  Te  Te119  1  0.74920054  0.25379368  0.91211979  1
  Te  Te120  1  0.72757280  0.57280496  0.22958514  1
  Te  Te121  1  0.74080926  0.57777615  0.58216301  1
  Te  Te122  1  0.74575702  0.58998388  0.89736744  1
  Te  Te123  1  0.71616270  0.94628130  0.27057299  1
  Te  Te124  1  0.70768390  0.92562888  0.60830100  1
  Te  Te125  1  0.76823080  0.92502289  0.92486066  1
  Te  Te126  1  0.26756469  0.26087587  0.06531428  1
  Te  Te127  1  0.23433799  0.25183291  0.41594339  1
  Te  Te128  1  0.25573731  0.23293715  0.74052940  1
  Te  Te129  1  0.24103520  0.58410586  0.07728949  1
  Te  Te130  1  0.28467370  0.58464090  0.42515213  1
  Te  Te131  1  0.27934786  0.58273134  0.75408633  1
  Te  Te132  1  0.23806238  0.93137909  0.09111592  1
  Te  Te133  1  0.25853279  0.88419574  0.41710710  1
  Te  Te134  1  0.24393497  0.91488353  0.74664970  1
  Te  Te135  1  0.58272640  0.24378493  0.10679347  1
  Te  Te136  1  0.57238895  0.21319704  0.39591922  1
  Te  Te137  1  0.52775033  0.30867837  0.79437115  1
  Te  Te138  1  0.56144848  0.59070797  0.07163041  1
  Te  Te139  1  0.58483162  0.56984300  0.41069770  1
  Te  Te140  1  0.58331436  0.59848664  0.73180116  1
  Te  Te141  1  0.57482753  0.92653979  0.07526004  1
  Te  Te142  1  0.61563318  0.91792267  0.47645284  1
  Te  Te143  1  0.58597304  0.92357841  0.77620175  1
  Te  Te144  1  0.91929786  0.25942900  0.07943772  1
  Te  Te145  1  0.91523605  0.26144902  0.41720389  1
  Te  Te146  1  0.89120880  0.22063747  0.73191594  1
  Te  Te147  1  0.90337728  0.58007002  0.07928573  1
  Te  Te148  1  0.93206285  0.58862027  0.40869340  1
  Te  Te149  1  0.92352653  0.58826184  0.73973705  1
  Te  Te150  1  0.92906850  0.91477109  0.10382399  1
  Te  Te151  1  0.88811847  0.91841554  0.42844834  1
  Te  Te152  1  0.92207204  0.91803629  0.73388317  1
  Te  Te153  1  0.23590177  0.08153212  0.27008856  1
  Te  Te154  1  0.24532764  0.08157988  0.58290471  1
  Te  Te155  1  0.28246434  0.10681124  0.91319096  1
  Te  Te156  1  0.22881775  0.42442165  0.23828575  1
  Te  Te157  1  0.26208194  0.42452673  0.56624613  1
  Te  Te158  1  0.29505617  0.41247260  0.88705170  1
  Te  Te159  1  0.26539291  0.73996120  0.25606330  1
  Te  Te160  1  0.27665848  0.73388394  0.59660877  1
  Te  Te161  1  0.23024458  0.76394294  0.93260723  1
  Te  Te162  1  0.60275052  0.09965342  0.29519730  1
  Te  Te163  1  0.63122718  0.04866099  0.56386147  1
  Te  Te164  1  0.55409112  0.11209668  0.93087974  1
  Te  Te165  1  0.59797725  0.39315372  0.25993959  1
  Te  Te166  1  0.56092867  0.41888565  0.60502380  1
  Te  Te167  1  0.55748950  0.41613442  0.91124038  1
  Te  Te168  1  0.58660129  0.74825910  0.26770697  1
  Te  Te169  1  0.54755769  0.73581888  0.55559501  1
  Te  Te170  1  0.59825261  0.76500463  0.92002172  1
  Te  Te171  1  0.90338024  0.07582511  0.25420006  1
  Te  Te172  1  0.87799206  0.06819820  0.57253296  1
  Te  Te173  1  0.90953469  0.08525916  0.91291753  1
  Te  Te174  1  0.93415579  0.42095145  0.24593496  1
  Te  Te175  1  0.91956529  0.39799785  0.59799050  1
  Te  Te176  1  0.90587487  0.43626455  0.90250795  1
  Te  Te177  1  0.90630257  0.75290881  0.27228707  1
  Te  Te178  1  0.93508052  0.73954640  0.59316153  1
  Te  Te179  1  0.90696734  0.74532339  0.87650339  1
