# generated using pymatgen
data_In2Te3
_symmetry_space_group_name_H-M   'P 1'
_cell_length_a   19.00233143
_cell_length_b   19.03009868
_cell_length_c   19.00103795
_cell_angle_alpha   90.14458331
_cell_angle_beta   89.86719713
_cell_angle_gamma   90.02865767
_symmetry_Int_Tables_number   1
_chemical_formula_structural   In2Te3
_chemical_formula_sum   'In72 Te108'
_cell_volume   6871.04276946
_cell_formula_units_Z   36
loop_
 _symmetry_equiv_pos_site_id
 _symmetry_equiv_pos_as_xyz
  1  'x, y, z'
loop_
 _atom_site_type_symbol
 _atom_site_label
 _atom_site_symmetry_multiplicity
 _atom_site_fract_x
 _atom_site_fract_y
 _atom_site_fract_z
 _atom_site_occupancy
  In  In0  1  0.71970995  0.33625597  0.68439149  1
  In  In1  1  0.51261265  -0.00450209  0.49062769  1
  In  In2  1  -0.00682665  0.19258023  0.14877033  1
  In  In3  1  0.50419461  0.14427660  -0.00580223  1
  In  In4  1  0.67941325  0.52879803  0.83060776  1
  In  In5  1  -0.00439926  0.86062252  0.50040088  1
  In  In6  1  0.69888169  0.84126096  0.50470792  1
  In  In7  1  0.49961617  0.81342914  0.31041546  1
  In  In8  1  0.67020870  0.15820423  0.15651109  1
  In  In9  1  0.17510909  0.85300065  0.65662122  1
  In  In10  1  0.30972844  0.51404083  0.52937908  1
  In  In11  1  0.31257777  0.35831330  0.67654777  1
  In  In12  1  0.76399113  0.18439947  0.80177114  1
  In  In13  1  0.52632290  0.50212509  0.67263327  1
  In  In14  1  -0.03342704  0.12955222  0.51593484  1
  In  In15  1  0.67787321  0.80087711  0.86563512  1
  In  In16  1  0.85285028  0.52912431  0.70174100  1
  In  In17  1  0.85394977  -0.01871782  0.82300769  1
  In  In18  1  0.33271248  0.50624871  0.86966908  1
  In  In19  1  -0.01063008  0.00610202  -0.00207139  1
  In  In20  1  0.82619919  0.49358019  0.34032435  1
  In  In21  1  0.32915721  0.32355744  0.33756169  1
  In  In22  1  0.00031559  0.67881549  0.69104947  1
  In  In23  1  0.49845254  0.51196404  0.32102463  1
  In  In24  1  0.15965690  0.80454980  0.00856662  1
  In  In25  1  0.14649368  0.00654609  0.18053056  1
  In  In26  1  0.33885614  0.82504511  0.86616799  1
  In  In27  1  0.68014801  -0.01701095  -0.04043437  1
  In  In28  1  -0.03115182  0.35173578  -0.00088022  1
  In  In29  1  0.81998434  0.66583430  0.51623527  1
  In  In30  1  0.30570917  0.01518622  0.00222049  1
  In  In31  1  0.68068265  0.68935401  0.67721672  1
  In  In32  1  0.15461324  0.70656910  0.50024544  1
  In  In33  1  0.66669613  0.33496968  0.34610095  1
  In  In34  1  0.35171108  0.80714214  0.13381390  1
  In  In35  1  0.51670835  -0.03381154  0.81367754  1
  In  In36  1  0.50040025  0.30666381  0.82630216  1
  In  In37  1  -0.00149568  0.35109953  0.31742328  1
  In  In38  1  0.34149062  0.15143412  0.81597457  1
  In  In39  1  0.31849073  0.18724965  0.51672755  1
  In  In40  1  0.33983225  0.49427043  0.14188761  1
  In  In41  1  0.12729025  0.52549165  0.01772874  1
  In  In42  1  0.35075318  0.65405120  0.70904919  1
  In  In43  1  0.85048185  0.64873453  0.86961803  1
  In  In44  1  0.32899413  -0.02916787  0.32588266  1
  In  In45  1  0.12197656  0.37191603  0.84807521  1
  In  In46  1  -0.02271394  0.01441363  0.33818779  1
  In  In47  1  0.13370584  0.19537636  0.67493395  1
  In  In48  1  0.67908726  0.15566758  0.51849748  1
  In  In49  1  0.31001872  0.17021605  0.16406989  1
  In  In50  1  0.34204084  0.82501561  0.47886508  1
  In  In51  1  0.83073245  -0.03048454  0.14307729  1
  In  In52  1  0.15350848  0.85239987  0.33373959  1
  In  In53  1  0.01790554  0.83274378  0.83525436  1
  In  In54  1  -0.00543068  0.49843504  0.50331567  1
  In  In55  1  0.51011692  0.34563201  0.49015797  1
  In  In56  1  0.69036767  -0.01290966  0.30053904  1
  In  In57  1  0.14479063  0.02558054  0.80759459  1
  In  In58  1  0.68547335  0.80346548  0.11092163  1
  In  In59  1  0.66931414  0.33688453  -0.00768778  1
  In  In60  1  0.66291101  0.47452503  0.15405688  1
  In  In61  1  0.53549625  0.16700901  0.63279792  1
  In  In62  1  0.16875948  0.34099963  0.17879943  1
  In  In63  1  0.84271974  0.18336173  0.33022064  1
  In  In64  1  0.13644398  0.48344501  0.68255615  1
  In  In65  1  0.14748220  0.65577538  0.18656460  1
  In  In66  1  -0.02935639  0.53783670  0.19931450  1
  In  In67  1  0.47847829  0.14501729  0.32271729  1
  In  In68  1  0.64838557  0.66528791  0.33829194  1
  In  In69  1  0.33346336  -0.00441487  0.64062014  1
  In  In70  1  0.50285749  0.50801070  0.00024456  1
  In  In71  1  0.33322378  0.65051663  0.31494729  1
  Te  Te72  1  0.08487624  0.09558040  0.07656699  1
  Te  Te73  1  0.07267262  0.06954002  0.43243744  1
  Te  Te74  1  0.04109300  0.11894364  0.76169173  1
  Te  Te75  1  0.06312656  0.42071847  0.10636728  1
  Te  Te76  1  0.08388602  0.43823306  0.40168027  1
  Te  Te77  1  0.03629934  0.38460972  0.72883245  1
  Te  Te78  1  0.06879665  0.75253678  0.11084147  1
  Te  Te79  1  0.05550394  0.75771183  0.39991714  1
  Te  Te80  1  0.11788103  0.75192363  0.75257318  1
  Te  Te81  1  0.40949800  0.07909730  0.09213450  1
  Te  Te82  1  0.39785139  0.07620772  0.43206807  1
  Te  Te83  1  0.43359653  0.08209257  0.71671137  1
  Te  Te84  1  0.42127108  0.40433060  0.06172306  1
  Te  Te85  1  0.39990622  0.42997910  0.43170527  1
  Te  Te86  1  0.41976907  0.42655703  0.75999644  1
  Te  Te87  1  0.43941718  0.74004262  0.03852155  1
  Te  Te88  1  0.42919358  0.72307297  0.40947795  1
  Te  Te89  1  0.42544529  0.76609532  0.76296286  1
  Te  Te90  1  0.75121272  0.07026994  0.06382149  1
  Te  Te91  1  0.74705182  0.08751335  0.39834646  1
  Te  Te92  1  0.75973753  0.05376023  0.73292635  1
  Te  Te93  1  0.76467037  0.43070895  0.05476105  1
  Te  Te94  1  0.75523814  0.40730523  0.43528433  1
  Te  Te95  1  0.79413843  0.43054908  0.80762808  1
  Te  Te96  1  0.80490939  0.71409512  0.09577219  1
  Te  Te97  1  0.75957520  0.74663078  0.40345796  1
  Te  Te98  1  0.78727244  0.74257134  0.76835458  1
  Te  Te99  1  0.08495282  0.24078020  0.25748287  1
  Te  Te100  1  0.04549030  0.24352772  0.56842793  1
  Te  Te101  1  0.06227391  0.26510309  0.92554887  1
  Te  Te102  1  0.08871360  0.56453129  0.28478653  1
  Te  Te103  1  0.08907964  0.59877543  0.58737395  1
  Te  Te104  1  0.06883347  0.61358135  0.91494787  1
  Te  Te105  1  0.04737466  0.91379741  0.24573072  1
  Te  Te106  1  0.06533457  0.93763523  0.60673132  1
  Te  Te107  1  0.10535428  0.92506952  0.92084921  1
  Te  Te108  1  0.41718359  0.25275291  0.23808176  1
  Te  Te109  1  0.41639776  0.27249362  0.59706292  1
  Te  Te110  1  0.40652386  0.23891562  0.92257329  1
  Te  Te111  1  0.43147849  0.59388065  0.21463055  1
  Te  Te112  1  0.42640256  0.58601446  0.59470623  1
  Te  Te113  1  0.42113962  0.60899369  0.92852702  1
  Te  Te114  1  0.42275267  0.91109058  0.22513426  1
  Te  Te115  1  0.43229831  0.89928125  0.57628117  1
  Te  Te116  1  0.41500830  0.94148688  0.92468009  1
  Te  Te117  1  0.74644348  0.25887519  0.24123253  1
  Te  Te118  1  0.77568872  0.25816575  0.56500421  1
  Te  Te119  1  0.77053264  0.24294362  0.93644222  1
  Te  Te120  1  0.73052809  0.56992076  0.25304643  1
  Te  Te121  1  0.74357357  0.57057756  0.60488995  1
  Te  Te122  1  0.72013786  0.62112118  0.93878819  1
  Te  Te123  1  0.75804773  0.87267415  0.23237341  1
  Te  Te124  1  0.80577909  0.93005869  0.55293850  1
  Te  Te125  1  0.78968759  0.88595650  0.92286993  1
  Te  Te126  1  0.23514645  0.25883454  0.07805801  1
  Te  Te127  1  0.23248516  0.25582112  0.42244535  1
  Te  Te128  1  0.24408511  0.26173618  0.76721544  1
  Te  Te129  1  0.24413924  0.59709234  0.08520034  1
  Te  Te130  1  0.24174980  0.60356349  0.42757110  1
  Te  Te131  1  0.24262561  0.56311060  0.76153017  1
  Te  Te132  1  0.24125190  0.91439559  0.09814581  1
  Te  Te133  1  0.23601987  0.92449615  0.43828482  1
  Te  Te134  1  0.26274376  0.93222954  0.75881447  1
  Te  Te135  1  0.57739509  0.24704148  0.07665363  1
  Te  Te136  1  0.56990261  0.22604441  0.41633642  1
  Te  Te137  1  0.60982837  0.23891092  0.74476484  1
  Te  Te138  1  0.61086478  0.58281079  0.06646447  1
  Te  Te139  1  0.58157518  0.56767675  0.42582667  1
  Te  Te140  1  0.57531787  0.61502936  0.76025399  1
  Te  Te141  1  0.60097487  0.91864987  0.06935999  1
  Te  Te142  1  0.58806774  0.90926291  0.39177231  1
  Te  Te143  1  0.61335200  0.87465591  0.75489825  1
  Te  Te144  1  0.88537763  0.24688792  0.06586445  1
  Te  Te145  1  0.93161738  0.26111908  0.41894461  1
  Te  Te146  1  0.85051387  0.25870353  0.70651881  1
  Te  Te147  1  0.90905308  0.59593363  0.07670308  1
  Te  Te148  1  0.91079825  0.59133868  0.42026619  1
  Te  Te149  1  0.97268606  0.57256409  0.79724039  1
  Te  Te150  1  0.93228295  0.89323309  0.07039957  1
  Te  Te151  1  0.88814214  0.92440762  0.41756729  1
  Te  Te152  1  0.95168906  0.91440064  0.73218435  1
  Te  Te153  1  0.24301693  0.08157167  0.26962377  1
  Te  Te154  1  0.23082911  0.09830373  0.60150120  1
  Te  Te155  1  0.23001350  0.10440844  0.90820077  1
  Te  Te156  1  0.26141878  0.43259754  0.25605402  1
  Te  Te157  1  0.21260404  0.40632604  0.57511906  1
  Te  Te158  1  0.22495029  0.42998896  0.94173791  1
  Te  Te159  1  0.25549368  0.76625642  0.25607785  1
  Te  Te160  1  0.27117823  0.74743882  0.59393131  1
  Te  Te161  1  0.24395091  0.72719204  0.91827008  1
  Te  Te162  1  0.57739265  0.06852144  0.23741992  1
  Te  Te163  1  0.61399300  0.04065901  0.59345883  1
  Te  Te164  1  0.58761004  0.07921322  0.88562198  1
  Te  Te165  1  0.56827799  0.39907274  0.25103414  1
  Te  Te166  1  0.60216935  0.39615037  0.59834465  1
  Te  Te167  1  0.58666909  0.41520377  0.88872121  1
  Te  Te168  1  0.58997319  0.73976792  0.21815876  1
  Te  Te169  1  0.60231774  0.75952830  0.57563213  1
  Te  Te170  1  0.56920460  0.79112764  0.96788330  1
  Te  Te171  1  0.90057584  0.08640170  0.22457280  1
  Te  Te172  1  0.86123645  0.06760315  0.59965310  1
  Te  Te173  1  0.92753181  0.08939499  0.89385303  1
  Te  Te174  1  0.89053610  0.40950103  0.23264106  1
  Te  Te175  1  0.91993427  0.43092965  0.61109787  1
  Te  Te176  1  0.88929439  0.45241175  0.92767541  1
  Te  Te177  1  0.91297484  0.68105860  0.20449945  1
  Te  Te178  1  0.92284348  0.75237710  0.58556116  1
  Te  Te179  1  0.96339199  0.73012808  0.93047977  1
