# generated using pymatgen
data_In2Te3
_symmetry_space_group_name_H-M   'P 1'
_cell_length_a   19.02746363
_cell_length_b   18.97065921
_cell_length_c   18.96878519
_cell_angle_alpha   90.25505615
_cell_angle_beta   90.17276445
_cell_angle_gamma   89.98598242
_symmetry_Int_Tables_number   1
_chemical_formula_structural   In2Te3
_chemical_formula_sum   'In72 Te108'
_cell_volume   6846.94048008
_cell_formula_units_Z   36
loop_
 _symmetry_equiv_pos_site_id
 _symmetry_equiv_pos_as_xyz
  1  'x, y, z'
loop_
 _atom_site_type_symbol
 _atom_site_label
 _atom_site_symmetry_multiplicity
 _atom_site_fract_x
 _atom_site_fract_y
 _atom_site_fract_z
 _atom_site_occupancy
  In  In0  1  0.35499905  0.66166838  0.64614268  1
  In  In1  1  0.01218673  0.82486303  0.86259509  1
  In  In2  1  0.67693353  0.66176597  0.34390906  1
  In  In3  1  0.02555825  0.84269676  0.49685803  1
  In  In4  1  0.47257070  0.32351128  0.85288358  1
  In  In5  1  0.33720221  0.82826046  0.15540749  1
  In  In6  1  0.12682749  0.34164873  0.48380539  1
  In  In7  1  0.17495346  0.15832779  0.64182265  1
  In  In8  1  0.48593040  0.86334507  0.67695146  1
  In  In9  1  0.15035253  0.48271508  0.66716474  1
  In  In10  1  0.82222490  0.84144602  0.65153188  1
  In  In11  1  0.65917161  0.01887578  0.34423865  1
  In  In12  1  0.66008025  0.86728824  0.83158944  1
  In  In13  1  0.88480262  -0.02150054  0.15434406  1
  In  In14  1  0.15854177  0.17456812  0.33544077  1
  In  In15  1  0.82575943  0.14105899  0.00199046  1
  In  In16  1  0.67683894  0.81328234  0.19486137  1
  In  In17  1  0.00369309  0.64339928  0.66978465  1
  In  In18  1  0.81930662  0.00989814  0.49280740  1
  In  In19  1  0.67234343  0.16934569  0.15086098  1
  In  In20  1  0.31476752  0.32760248  0.65114477  1
  In  In21  1  0.64887946  0.48569118  0.49775439  1
  In  In22  1  0.64430193  0.33673856  0.67417917  1
  In  In23  1  0.35594325  0.61314601  0.29574150  1
  In  In24  1  0.47844456  0.15599316  0.67593471  1
  In  In25  1  0.83474790  0.66234723  0.49031619  1
  In  In26  1  -0.02248265  0.23117839  0.50074454  1
  In  In27  1  -0.00305818  0.65075915  0.33644370  1
  In  In28  1  0.31000168  0.48965585  0.82204199  1
  In  In29  1  0.18408299  0.15660895  0.03939095  1
  In  In30  1  0.68320993  0.52759262  0.16037070  1
  In  In31  1  0.54094199  0.49372068  0.00748470  1
  In  In32  1  0.85645312  0.65199626  0.15110531  1
  In  In33  1  0.85640911  0.36443380  0.18576116  1
  In  In34  1  0.13269669  0.48362513  0.01186342  1
  In  In35  1  0.65189576  0.17947332  0.49032223  1
  In  In36  1  0.18864260  0.48542780  0.30109747  1
  In  In37  1  -0.01201398  0.16761289  0.83549326  1
  In  In38  1  0.83899963  -0.01044864  0.84736002  1
  In  In39  1  0.34024433  0.15972856  0.47625312  1
  In  In40  1  0.66294624  0.32418609  0.33420499  1
  In  In41  1  0.35072953  0.46694037  0.44263226  1
  In  In42  1  0.67169183  0.32178111  0.00893322  1
  In  In43  1  0.83671215  0.80937563  0.33886450  1
  In  In44  1  0.32724838  0.30403281  0.01765682  1
  In  In45  1  0.50607132  0.66409185  0.83205512  1
  In  In46  1  0.14867399  0.32183918  0.82131823  1
  In  In47  1  0.31655770  0.87970750  0.43968753  1
  In  In48  1  0.15728061  0.65307399  0.51531743  1
  In  In49  1  0.16604827  0.85564754  0.00073693  1
  In  In50  1  -0.00254346  0.34362894  0.00549327  1
  In  In51  1  0.50062823  0.82633943  0.33919170  1
  In  In52  1  0.49155983  0.32775790  0.16849456  1
  In  In53  1  0.17321588  0.68788138  0.15731572  1
  In  In54  1  0.50323392  0.00884364  0.14578129  1
  In  In55  1  0.48420711  0.01819105  0.48537096  1
  In  In56  1  0.66015625  0.68048663  0.68973035  1
  In  In57  1  0.04312593  0.01417874  0.31935362  1
  In  In58  1  0.18859252  0.85143556  0.68939354  1
  In  In59  1  0.84206832  0.19913054  0.68319085  1
  In  In60  1  0.84013581  0.48196328  0.63191066  1
  In  In61  1  0.15416426  0.65144586  0.86024895  1
  In  In62  1  0.86603417  0.66763290  0.85919806  1
  In  In63  1  0.50856452  0.65655987  0.49744096  1
  In  In64  1  0.00453198  0.00431689  0.66102335  1
  In  In65  1  0.47575112  0.84857311  0.00002080  1
  In  In66  1  0.66802403  0.13746058  0.85796265  1
  In  In67  1  0.35642254  0.88010295  0.85680074  1
  In  In68  1  0.00899674  0.17367866  0.16944952  1
  In  In69  1  0.32720037  0.66430307  -0.00686029  1
  In  In70  1  0.32479688  -0.00097658  0.02473520  1
  In  In71  1  0.68381100  0.52941723  0.81870610  1
  Te  Te72  1  0.09412567  0.06862887  0.11454349  1
  Te  Te73  1  0.05719824  0.11425368  0.43208230  1
  Te  Te74  1  0.08812134  0.09110107  0.75122093  1
  Te  Te75  1  0.07973181  0.39591364  0.11657347  1
  Te  Te76  1  0.06897592  0.42167636  0.37038442  1
  Te  Te77  1  0.07017172  0.43838118  0.77955809  1
  Te  Te78  1  0.07752375  0.76200381  0.07246361  1
  Te  Te79  1  0.09751947  0.74404528  0.40972232  1
  Te  Te80  1  0.08656627  0.74537792  0.74597400  1
  Te  Te81  1  0.39107963  0.09571192  0.11186616  1
  Te  Te82  1  0.40111338  0.07093185  0.37248103  1
  Te  Te83  1  0.41092958  0.04465248  0.74041007  1
  Te  Te84  1  0.42170059  0.42027127  0.05918125  1
  Te  Te85  1  0.45335545  0.37848891  0.38586672  1
  Te  Te86  1  0.40888054  0.40730968  0.74310821  1
  Te  Te87  1  0.42729272  0.72816929  0.08491993  1
  Te  Te88  1  0.40895042  0.75262901  0.43419483  1
  Te  Te89  1  0.40585155  0.75562042  0.76193746  1
  Te  Te90  1  0.75832073  0.05387752  0.10339796  1
  Te  Te91  1  0.75960461  0.11634867  0.40390987  1
  Te  Te92  1  0.76753902  0.08648887  0.75522339  1
  Te  Te93  1  0.75987260  0.42177017  0.08082234  1
  Te  Te94  1  0.74991385  0.41195371  0.41911449  1
  Te  Te95  1  0.75341990  0.41961206  0.74095506  1
  Te  Te96  1  0.76002245  0.74724445  0.09477934  1
  Te  Te97  1  0.73365844  0.76344218  0.44081214  1
  Te  Te98  1  0.76601466  0.75758688  0.76558102  1
  Te  Te99  1  0.06468550  0.26817616  0.26809824  1
  Te  Te100  1  0.07977354  0.27072253  0.60985464  1
  Te  Te101  1  0.09152888  0.23751371  0.93391938  1
  Te  Te102  1  0.09292602  0.58683279  0.23742224  1
  Te  Te103  1  0.05802867  0.54912714  0.56391645  1
  Te  Te104  1  0.04982068  0.59194331  0.94764900  1
  Te  Te105  1  0.09569358  0.89379610  0.25861801  1
  Te  Te106  1  0.11245075  0.93228557  0.58159756  1
  Te  Te107  1  0.10326725  0.93420095  0.89400305  1
  Te  Te108  1  0.39292124  0.28813620  0.27242591  1
  Te  Te109  1  0.41785592  0.24924195  0.57379363  1
  Te  Te110  1  0.39536297  0.21999382  0.91785667  1
  Te  Te111  1  0.39666671  0.50641878  0.20514564  1
  Te  Te112  1  0.41406996  0.55523938  0.55859163  1
  Te  Te113  1  0.41201863  0.57077325  0.90621464  1
  Te  Te114  1  0.42677266  0.91369239  0.24197240  1
  Te  Te115  1  0.40091628  0.91879194  0.56432208  1
  Te  Te116  1  0.46732232  0.97309738  0.91025921  1
  Te  Te117  1  0.76004380  0.25578867  0.23846554  1
  Te  Te118  1  0.73949034  0.25770272  0.58694466  1
  Te  Te119  1  0.76117419  0.24623291  0.91271310  1
  Te  Te120  1  0.77674557  0.58333747  0.26476250  1
  Te  Te121  1  0.73627531  0.59161166  0.58612531  1
  Te  Te122  1  0.75185739  0.60382747  0.92373683  1
  Te  Te123  1  0.75272796  0.91997470  0.27333591  1
  Te  Te124  1  0.73393464  0.93586584  0.58597041  1
  Te  Te125  1  0.73683977  0.93503812  0.93750429  1
  Te  Te126  1  0.23359291  0.26829811  0.12584298  1
  Te  Te127  1  0.24197738  0.26713597  0.42392160  1
  Te  Te128  1  0.25429176  0.23679856  0.75343923  1
  Te  Te129  1  0.23931645  0.57659958  0.07552282  1
  Te  Te130  1  0.24890613  0.58280172  0.40817290  1
  Te  Te131  1  0.24357883  0.59152533  0.73177034  1
  Te  Te132  1  0.23022731  0.92745994  0.11873318  1
  Te  Te133  1  0.20263822  0.94055121  0.35395717  1
  Te  Te134  1  0.28314362  0.95386836  0.74843369  1
  Te  Te135  1  0.56365710  0.23706202  0.06789812  1
  Te  Te136  1  0.55384069  0.24987129  0.40407250  1
  Te  Te137  1  0.57791040  0.23335406  0.76968884  1
  Te  Te138  1  0.60597858  0.60945468  0.06558058  1
  Te  Te139  1  0.57097987  0.56539633  0.39347868  1
  Te  Te140  1  0.56597455  0.56865885  0.73079298  1
  Te  Te141  1  0.58486427  0.89160536  0.09770627  1
  Te  Te142  1  0.58355887  0.91794708  0.42726839  1
  Te  Te143  1  0.59654153  0.94582716  0.72694486  1
  Te  Te144  1  0.89989199  0.24622335  0.08406351  1
  Te  Te145  1  0.88202151  0.31119057  0.42078974  1
  Te  Te146  1  0.91695478  0.28128118  0.77815091  1
  Te  Te147  1  0.93928906  0.55659335  0.07020807  1
  Te  Te148  1  0.91012454  0.56000259  0.41674853  1
  Te  Te149  1  0.90311875  0.56783518  0.74882958  1
  Te  Te150  1  0.95120619  0.88985127  0.06068200  1
  Te  Te151  1  0.91658113  0.91421432  0.42191066  1
  Te  Te152  1  0.92813995  0.90355304  0.74566022  1
  Te  Te153  1  0.25555493  0.07302540  0.29040662  1
  Te  Te154  1  0.25406033  0.07177285  0.55526539  1
  Te  Te155  1  0.23837608  0.07081762  0.93182009  1
  Te  Te156  1  0.28674776  0.39786597  0.22904804  1
  Te  Te157  1  0.24425522  0.42714602  0.56164259  1
  Te  Te158  1  0.23947238  0.40446320  0.92293724  1
  Te  Te159  1  0.27571324  0.73675168  0.25868560  1
  Te  Te160  1  0.24778569  0.75241309  0.58710939  1
  Te  Te161  1  0.25634854  0.76405066  0.90420828  1
  Te  Te162  1  0.57812121  0.09990420  0.24672531  1
  Te  Te163  1  0.57871540  0.08645789  0.58281897  1
  Te  Te164  1  0.59223077  0.05570141  0.94947287  1
  Te  Te165  1  0.60512650  0.41097659  0.22330815  1
  Te  Te166  1  0.55916506  0.40226845  0.57588604  1
  Te  Te167  1  0.59785125  0.40822222  0.89749592  1
  Te  Te168  1  0.57012272  0.72253018  0.25405736  1
  Te  Te169  1  0.56765972  0.75546880  0.59798052  1
  Te  Te170  1  0.57599193  0.76955351  0.91219236  1
  Te  Te171  1  0.92074040  0.08069787  0.25803879  1
  Te  Te172  1  0.91032836  0.09433734  0.58427768  1
  Te  Te173  1  0.93759073  0.06520533  0.93494255  1
  Te  Te174  1  0.93303159  0.43443877  0.29107251  1
  Te  Te175  1  0.91272559  0.37200226  0.55956439  1
  Te  Te176  1  0.91442696  0.45480741  0.95891025  1
  Te  Te177  1  0.93377105  0.75197314  0.24131061  1
  Te  Te178  1  0.93204112  0.74686021  0.58132244  1
  Te  Te179  1  0.90509166  0.78009782  0.95510948  1
