# generated using pymatgen
data_In2Te3
_symmetry_space_group_name_H-M   'P 1'
_cell_length_a   18.84084934
_cell_length_b   18.83683874
_cell_length_c   18.82423896
_cell_angle_alpha   89.99667302
_cell_angle_beta   90.01147711
_cell_angle_gamma   89.99403380
_symmetry_Int_Tables_number   1
_chemical_formula_structural   In2Te3
_chemical_formula_sum   'In72 Te108'
_cell_volume   6680.76064412
_cell_formula_units_Z   36
loop_
 _symmetry_equiv_pos_site_id
 _symmetry_equiv_pos_as_xyz
  1  'x, y, z'
loop_
 _atom_site_type_symbol
 _atom_site_label
 _atom_site_symmetry_multiplicity
 _atom_site_fract_x
 _atom_site_fract_y
 _atom_site_fract_z
 _atom_site_occupancy
  In  In0  1  0.82001879  0.50476180  0.67200026  1
  In  In1  1  0.34892909  0.18489056  0.16281093  1
  In  In2  1  0.81420654  0.16214107  -0.00220885  1
  In  In3  1  -0.01974165  -0.00980353  0.01607803  1
  In  In4  1  0.47798041  0.50856363  0.00467461  1
  In  In5  1  0.17120501  0.33983835  0.85418679  1
  In  In6  1  0.64281945  -0.01594787  0.03570102  1
  In  In7  1  -0.02648810  0.45614967  0.87279945  1
  In  In8  1  0.69635229  0.15253184  0.48653203  1
  In  In9  1  0.50341073  0.32595309  0.81245293  1
  In  In10  1  -0.01498972  0.83065684  0.15483869  1
  In  In11  1  0.69130449  0.67348510  -0.00876458  1
  In  In12  1  0.36493111  0.00268772  0.32700713  1
  In  In13  1  0.33202093  0.48919288  0.16744458  1
  In  In14  1  0.82305181  -0.00576403  0.80632399  1
  In  In15  1  0.16842851  0.83543730  0.00307796  1
  In  In16  1  0.66593494  0.32689489  0.00722420  1
  In  In17  1  0.49954549  0.68474467  0.16332799  1
  In  In18  1  0.33880788  0.02942455  -0.02008650  1
  In  In19  1  0.15610160  -0.00371250  0.51519425  1
  In  In20  1  0.35356702  0.83024535  0.48396777  1
  In  In21  1  0.32197572  0.64180189  0.01392601  1
  In  In22  1  0.17461782  0.49020795  0.31166705  1
  In  In23  1  -0.00688269  0.47629982  0.13621255  1
  In  In24  1  0.52766386  0.68856891  0.49308870  1
  In  In25  1  0.84572693  0.49676870  0.32745727  1
  In  In26  1  0.34163003  0.83647981  0.18403097  1
  In  In27  1  0.49942571  0.50541739  0.66514982  1
  In  In28  1  0.82752199  0.33783400  0.47737512  1
  In  In29  1  0.50661775  0.17909011  0.64975661  1
  In  In30  1  0.33152891  0.67285526  0.68436674  1
  In  In31  1  0.66096598  0.47727296  0.17247706  1
  In  In32  1  0.17358450  0.15409521  0.68314520  1
  In  In33  1  0.83718285  0.16352183  0.67680608  1
  In  In34  1  0.34837050  0.48071073  0.50113702  1
  In  In35  1  0.13820453  0.66488187  0.49314737  1
  In  In36  1  -0.03965045  0.00915418  0.31616386  1
  In  In37  1  -0.01942076  0.67117893  0.67460310  1
  In  In38  1  0.15354031  0.83318088  0.66379121  1
  In  In39  1  0.15559991  0.63665327  0.83414438  1
  In  In40  1  -0.00833123  0.32888452  0.31870969  1
  In  In41  1  -0.00632364  0.31690660  0.67628700  1
  In  In42  1  0.52821952  -0.00271354  0.83379835  1
  In  In43  1  0.15264260  0.01205380  0.17075234  1
  In  In44  1  0.82838614  0.82491079  0.66738094  1
  In  In45  1  0.53026477  0.14040641  0.32167367  1
  In  In46  1  0.66218431  0.66887660  0.32572140  1
  In  In47  1  -0.00750885  0.67025257  0.33779151  1
  In  In48  1  -0.01525543  0.19024662  0.16135783  1
  In  In49  1  0.35021167  0.66855282  0.33972006  1
  In  In50  1  0.13707984  0.00711832  0.83190667  1
  In  In51  1  0.16237621  0.19138855  0.34073592  1
  In  In52  1  0.50323083  0.33062334  0.49675283  1
  In  In53  1  0.32751343  0.33465775  -0.00268053  1
  In  In54  1  0.52236269  0.66982651  0.84304536  1
  In  In55  1  0.52853365  0.18387454  0.04898755  1
  In  In56  1  -0.01855069  0.66575511  -0.00624425  1
  In  In57  1  -0.01681451  0.14142632  0.51534487  1
  In  In58  1  0.17950714  0.80648563  0.33182478  1
  In  In59  1  0.51666254  -0.00128332  0.48123773  1
  In  In60  1  0.68711626  0.50252025  0.84118256  1
  In  In61  1  0.34609672  0.83903095  0.83016325  1
  In  In62  1  0.83494194  0.82520850  0.00417210  1
  In  In63  1  0.67434615  0.84946898  0.50196424  1
  In  In64  1  0.81346611  0.85075996  0.32516834  1
  In  In65  1  0.01482636  0.18979926  0.84626656  1
  In  In66  1  0.00943016  0.52394442  0.51025047  1
  In  In67  1  0.67351704  0.49901374  0.50084373  1
  In  In68  1  0.33680698  0.00829097  0.64013544  1
  In  In69  1  0.18716031  0.33476658  0.49269401  1
  In  In70  1  0.33193853  0.18186638  0.83092851  1
  In  In71  1  0.67923236  0.83010304  0.82799243  1
  Te  Te72  1  0.07261932  0.09643347  0.07480406  1
  Te  Te73  1  0.07734289  0.07786077  0.40011015  1
  Te  Te74  1  0.04943931  0.08656875  0.73466140  1
  Te  Te75  1  0.08588937  0.38617746  0.06860007  1
  Te  Te76  1  0.07268924  0.41884898  0.41459818  1
  Te  Te77  1  0.07408933  0.41346200  0.76019447  1
  Te  Te78  1  0.08710620  0.74073918  0.08713682  1
  Te  Te79  1  0.06176890  0.77661590  0.42507291  1
  Te  Te80  1  0.07847787  0.74917462  0.76552362  1
  Te  Te81  1  0.42816482  0.07457562  0.09370019  1
  Te  Te82  1  0.41692955  0.09989673  0.42931826  1
  Te  Te83  1  0.41410589  0.07863980  0.75300188  1
  Te  Te84  1  0.42969875  0.39622081  0.09433483  1
  Te  Te85  1  0.43877428  0.42511277  0.40167074  1
  Te  Te86  1  0.41231633  0.42115053  0.74842035  1
  Te  Te87  1  0.40518558  0.75698388  0.06787922  1
  Te  Te88  1  0.45232561  0.77091256  0.38559275  1
  Te  Te89  1  0.44187889  0.75868363  0.74425745  1
  Te  Te90  1  0.72341828  0.09606395  0.10105795  1
  Te  Te91  1  0.75484603  0.06099792  0.38384197  1
  Te  Te92  1  0.72933569  0.09368451  0.75205361  1
  Te  Te93  1  0.75330539  0.43788543  0.05924903  1
  Te  Te94  1  0.73152593  0.41250685  0.38745590  1
  Te  Te95  1  0.74993607  0.40368254  0.75170725  1
  Te  Te96  1  0.73993965  0.76285581  0.10082816  1
  Te  Te97  1  0.75381627  0.74519045  0.41872619  1
  Te  Te98  1  0.77590778  0.73256864  0.77468000  1
  Te  Te99  1  0.09870757  0.27032593  0.22668311  1
  Te  Te100  1  0.08262535  0.24363298  0.57425991  1
  Te  Te101  1  0.07308546  0.28036939  0.95355903  1
  Te  Te102  1  0.06149461  0.56821140  0.24819715  1
  Te  Te103  1  0.09999670  0.58473206  0.61464613  1
  Te  Te104  1  0.07184584  0.55818855  0.93337155  1
  Te  Te105  1  0.08198140  0.90499274  0.25308408  1
  Te  Te106  1  0.05875687  0.92407611  0.59704030  1
  Te  Te107  1  0.06316209  0.90577206  0.91868381  1
  Te  Te108  1  0.44303059  0.24556923  0.25912034  1
  Te  Te109  1  0.40675313  0.26675948  0.58958455  1
  Te  Te110  1  0.43570918  0.23501773  0.92945140  1
  Te  Te111  1  0.42990966  0.57785972  0.24677860  1
  Te  Te112  1  0.41732779  0.60711894  0.56938488  1
  Te  Te113  1  0.40566991  0.58816048  0.89680967  1
  Te  Te114  1  0.45379934  0.92256515  0.23671141  1
  Te  Te115  1  0.43574339  0.90919976  0.58410089  1
  Te  Te116  1  0.43089478  0.92013353  0.92639698  1
  Te  Te117  1  0.77985840  0.18954825  0.30968844  1
  Te  Te118  1  0.75499515  0.25686340  0.58240953  1
  Te  Te119  1  0.72962738  0.24135335  0.90529999  1
  Te  Te120  1  0.75153155  0.58014805  0.24052915  1
  Te  Te121  1  0.74791859  0.59559549  0.58217911  1
  Te  Te122  1  0.78323609  0.58231143  0.92074745  1
  Te  Te123  1  0.71805335  0.95440691  0.26920284  1
  Te  Te124  1  0.76023559  0.93556085  0.58934442  1
  Te  Te125  1  0.74792034  0.93344701  0.93163109  1
  Te  Te126  1  0.24615191  0.23723421  0.07216434  1
  Te  Te127  1  0.27551107  0.27394549  0.39082660  1
  Te  Te128  1  0.25113669  0.27073379  0.73806653  1
  Te  Te129  1  0.22853103  0.55310416  0.08310962  1
  Te  Te130  1  0.24227595  0.58564311  0.41386921  1
  Te  Te131  1  0.25527891  0.56668373  0.75042965  1
  Te  Te132  1  0.25557091  0.93280634  0.08442372  1
  Te  Te133  1  0.25330539  0.92166402  0.41008937  1
  Te  Te134  1  0.24946673  0.93132159  0.75010118  1
  Te  Te135  1  0.62056023  0.26615335  0.14011372  1
  Te  Te136  1  0.59919414  0.24303927  0.41312148  1
  Te  Te137  1  0.60034849  0.23341766  0.75063934  1
  Te  Te138  1  0.58773237  0.58501146  0.07722695  1
  Te  Te139  1  0.57608661  0.57241882  0.40681388  1
  Te  Te140  1  0.60139091  0.58781383  0.74343569  1
  Te  Te141  1  0.56039387  0.89539941  0.12155060  1
  Te  Te142  1  0.59935996  0.91669656  0.39022989  1
  Te  Te143  1  0.59848250  0.91320395  0.73639689  1
  Te  Te144  1  0.89632695  0.26997866  0.06769783  1
  Te  Te145  1  0.91488447  0.22886204  0.40806168  1
  Te  Te146  1  0.89839617  0.26344257  0.78067781  1
  Te  Te147  1  0.90907308  0.59170666  0.09833185  1
  Te  Te148  1  0.89954369  0.59391371  0.43223742  1
  Te  Te149  1  0.92750092  0.55977547  0.76370061  1
  Te  Te150  1  0.87963787  0.93112964  0.11120718  1
  Te  Te151  1  0.90581606  0.92082028  0.41881970  1
  Te  Te152  1  0.92429058  0.90677769  0.74889041  1
  Te  Te153  1  0.25348630  0.08605751  0.25858531  1
  Te  Te154  1  0.25176498  0.10674677  0.56063641  1
  Te  Te155  1  0.22495854  0.10451061  0.91112286  1
  Te  Te156  1  0.26604092  0.38865583  0.25677276  1
  Te  Te157  1  0.23916458  0.43426259  0.58691486  1
  Te  Te158  1  0.25758806  0.43977157  0.92143599  1
  Te  Te159  1  0.25239020  0.72056750  0.23149934  1
  Te  Te160  1  0.24957927  0.75657035  0.57047201  1
  Te  Te161  1  0.24951552  0.74797586  0.90636961  1
  Te  Te162  1  0.62521138  0.07610500  0.22307864  1
  Te  Te163  1  0.59861333  0.07917749  0.58075040  1
  Te  Te164  1  0.58782019  0.08954791  0.93711480  1
  Te  Te165  1  0.56825562  0.38030626  0.23168412  1
  Te  Te166  1  0.59330169  0.40894609  0.59374329  1
  Te  Te167  1  0.57127377  0.42325142  0.91759351  1
  Te  Te168  1  0.61378582  0.76586543  0.21864535  1
  Te  Te169  1  0.60130310  0.76041285  0.59693627  1
  Te  Te170  1  0.58634870  0.77054034  0.93539191  1
  Te  Te171  1  0.88071301  0.10091329  0.22684485  1
  Te  Te172  1  0.87607151  0.05778560  0.57620229  1
  Te  Te173  1  0.91897436  0.08333891  0.91083665  1
  Te  Te174  1  0.89014070  0.39215886  0.22724086  1
  Te  Te175  1  0.92229714  0.41076563  0.57543200  1
  Te  Te176  1  0.87882207  0.39199270  0.96906319  1
  Te  Te177  1  0.89857954  0.74494452  0.24496955  1
  Te  Te178  1  0.91470636  0.74945135  0.57096168  1
  Te  Te179  1  0.90747268  0.75323206  0.89786762  1
