# generated using pymatgen
data_In2Te3
_symmetry_space_group_name_H-M   'P 1'
_cell_length_a   18.74471176
_cell_length_b   18.74131820
_cell_length_c   18.73803954
_cell_angle_alpha   89.98258086
_cell_angle_beta   89.97457707
_cell_angle_gamma   90.04577208
_symmetry_Int_Tables_number   1
_chemical_formula_structural   In2Te3
_chemical_formula_sum   'In72 Te108'
_cell_volume   6582.68162500
_cell_formula_units_Z   36
loop_
 _symmetry_equiv_pos_site_id
 _symmetry_equiv_pos_as_xyz
  1  'x, y, z'
loop_
 _atom_site_type_symbol
 _atom_site_label
 _atom_site_symmetry_multiplicity
 _atom_site_fract_x
 _atom_site_fract_y
 _atom_site_fract_z
 _atom_site_occupancy
  In  In0  1  0.82996241  -0.00234455  0.18012790  1
  In  In1  1  -0.01176349  0.14250612  0.50921353  1
  In  In2  1  0.66400867  0.83204946  0.49877753  1
  In  In3  1  0.65428545  0.50172383  0.18756431  1
  In  In4  1  0.51718652  0.14341437  0.66147617  1
  In  In5  1  0.82374025  0.30818087  0.50301691  1
  In  In6  1  0.17044092  0.83838164  -0.01032041  1
  In  In7  1  0.17790898  0.67025500  0.16702955  1
  In  In8  1  -0.01822053  -0.02543279  0.33975127  1
  In  In9  1  0.65158554  -0.02123021  0.01527966  1
  In  In10  1  0.31825232  0.17726951  0.15368167  1
  In  In11  1  0.67019070  0.33347604  0.00236560  1
  In  In12  1  0.68828662  0.12791792  0.80258704  1
  In  In13  1  0.66467171  0.32505125  0.63120717  1
  In  In14  1  0.34457602  0.14693804  0.84385827  1
  In  In15  1  0.49424916  0.32748315  0.47530993  1
  In  In16  1  0.31994747  0.36265878  0.66151758  1
  In  In17  1  0.32571816  0.16287339  0.51596255  1
  In  In18  1  0.33086653  -0.01542337  0.32297613  1
  In  In19  1  0.16599158  0.84123051  0.33793485  1
  In  In20  1  0.02356153  0.86212618  0.82802864  1
  In  In21  1  0.86336623  0.13831567  -0.01563000  1
  In  In22  1  0.82538044  0.69175864  0.50713205  1
  In  In23  1  0.02759314  0.51079645  0.50370975  1
  In  In24  1  0.17034478  0.15466198  0.66308887  1
  In  In25  1  0.83405857  0.83353583  0.64647020  1
  In  In26  1  0.15809522  0.15948375  0.33232969  1
  In  In27  1  0.84845702  0.66957534  0.18964096  1
  In  In28  1  0.64269829  0.68547487  0.65260802  1
  In  In29  1  0.46609618  0.69318268  0.16090559  1
  In  In30  1  0.01865643  0.32031477  0.32998699  1
  In  In31  1  0.32642999  0.65559265  0.34903942  1
  In  In32  1  0.48581959  0.35719217  0.16901789  1
  In  In33  1  0.62486528  0.85629120  0.82133506  1
  In  In34  1  0.01034679  0.13566624  0.16006695  1
  In  In35  1  0.83938031  0.67422862  0.83385478  1
  In  In36  1  0.01603712  0.68113544  0.32615446  1
  In  In37  1  0.31794545  0.37616148  0.31046424  1
  In  In38  1  -0.01450998  0.68143525  0.63731488  1
  In  In39  1  0.64485527  0.50092157  0.49419147  1
  In  In40  1  0.65298168  0.68037572  -0.00438218  1
  In  In41  1  0.83910261  0.48053242  0.66507858  1
  In  In42  1  0.33946188  0.83033308  0.83241942  1
  In  In43  1  0.17846254  0.80737851  0.64284164  1
  In  In44  1  0.00922840  -0.01548849  0.66188478  1
  In  In45  1  0.83808050  0.49149450  0.33401383  1
  In  In46  1  0.01415522  0.67472988  0.01077056  1
  In  In47  1  0.85527465  0.52800207  0.01762171  1
  In  In48  1  0.50014910  -0.01289604  0.51404550  1
  In  In49  1  0.66814614  0.84523893  0.18295717  1
  In  In50  1  0.83761656  0.86849533  0.01245913  1
  In  In51  1  0.83201043  0.31298074  0.18948427  1
  In  In52  1  0.49126878  0.66989198  0.82349278  1
  In  In53  1  0.63775635  0.51516576  0.81615199  1
  In  In54  1  0.21269407  0.67710705  0.81389046  1
  In  In55  1  0.17797624  0.01073946  0.84747306  1
  In  In56  1  0.32273420  -0.00776816  0.00465616  1
  In  In57  1  0.84931976  0.30981752  0.82286412  1
  In  In58  1  0.50994822  0.52060855  0.32619390  1
  In  In59  1  0.03488178  0.33821675  0.01224074  1
  In  In60  1  0.18397623  0.50850425  0.00328434  1
  In  In61  1  -0.00399656  0.32825316  0.70846372  1
  In  In62  1  0.46034312  0.49191149  0.01283188  1
  In  In63  1  0.48367325  0.15762051  -0.01187154  1
  In  In64  1  0.66014132  0.15808425  0.18826940  1
  In  In65  1  0.15748041  0.33576379  0.84464168  1
  In  In66  1  0.02402000  0.47606643  0.83201870  1
  In  In67  1  0.49228011  0.83295472  0.33374412  1
  In  In68  1  0.52060390  0.16044294  0.32657273  1
  In  In69  1  0.17665264  0.34365245  0.50551080  1
  In  In70  1  0.47361045  0.32164027  0.82084355  1
  In  In71  1  0.34049638  0.00492378  0.65506523  1
  Te  Te72  1  0.09131889  0.08043922  0.05090587  1
  Te  Te73  1  0.08273756  0.06125568  0.42009031  1
  Te  Te74  1  0.07631434  0.08510358  0.75958615  1
  Te  Te75  1  0.10803259  0.42783485  0.10727380  1
  Te  Te76  1  0.10330719  0.42688991  0.39919837  1
  Te  Te77  1  0.11278198  0.42519841  0.71935568  1
  Te  Te78  1  0.08259221  0.77315719  0.10191236  1
  Te  Te79  1  0.10247098  0.74087809  0.42930077  1
  Te  Te80  1  0.07968084  0.74274773  0.75135870  1
  Te  Te81  1  0.42029671  0.07749558  0.09888173  1
  Te  Te82  1  0.41584706  0.08593796  0.41995026  1
  Te  Te83  1  0.44270583  0.05165961  0.76423052  1
  Te  Te84  1  0.36356450  0.40260061  0.09136969  1
  Te  Te85  1  0.41119882  0.43936879  0.41468058  1
  Te  Te86  1  0.39868133  0.43836250  0.76449037  1
  Te  Te87  1  0.40336610  0.74970861  0.04050009  1
  Te  Te88  1  0.42275340  0.74023957  0.42737837  1
  Te  Te89  1  0.42007506  0.76122924  0.72864830  1
  Te  Te90  1  0.74931777  0.09003622  0.07925089  1
  Te  Te91  1  0.72679488  0.13893873  0.45602333  1
  Te  Te92  1  0.79209745  0.06321439  0.72365892  1
  Te  Te93  1  0.75303844  0.42325596  0.09738186  1
  Te  Te94  1  0.74262693  0.40864592  0.42060404  1
  Te  Te95  1  0.73940933  0.40881601  0.75608353  1
  Te  Te96  1  0.76160367  0.74525417  0.08222462  1
  Te  Te97  1  0.75422482  0.76390596  0.39904751  1
  Te  Te98  1  0.73576448  0.75711390  0.75140967  1
  Te  Te99  1  0.09815612  0.24757659  0.22245256  1
  Te  Te100  1  0.08234208  0.24771201  0.57904577  1
  Te  Te101  1  0.06381193  0.24007249  0.90589056  1
  Te  Te102  1  0.10952687  0.57865411  0.26621682  1
  Te  Te103  1  0.10468290  0.60598539  0.58744801  1
  Te  Te104  1  0.09199205  0.59619403  0.90554395  1
  Te  Te105  1  0.08599456  0.92786853  0.24538407  1
  Te  Te106  1  0.09303952  0.90437237  0.56808921  1
  Te  Te107  1  0.06220881  0.95518701  0.95367187  1
  Te  Te108  1  0.41247335  0.25155462  0.26195542  1
  Te  Te109  1  0.41901656  0.25300198  0.59756285  1
  Te  Te110  1  0.38956499  0.26662476  0.93651964  1
  Te  Te111  1  0.40205676  0.57639186  0.23452230  1
  Te  Te112  1  0.36907735  0.60903400  0.60059153  1
  Te  Te113  1  0.40615620  0.57861604  0.90584723  1
  Te  Te114  1  0.41565896  0.90694501  0.22887745  1
  Te  Te115  1  0.40500846  0.89336955  0.58091141  1
  Te  Te116  1  0.41812645  0.92932068  0.91034295  1
  Te  Te117  1  0.74257294  0.23987992  0.28056771  1
  Te  Te118  1  0.76235649  0.21154530  0.60274623  1
  Te  Te119  1  0.74966251  0.23500184  0.91599156  1
  Te  Te120  1  0.74192866  0.59389362  0.27245878  1
  Te  Te121  1  0.74945186  0.58081040  0.59185764  1
  Te  Te122  1  0.74215612  0.57431851  0.91560293  1
  Te  Te123  1  0.74975528  0.92285102  0.27972548  1
  Te  Te124  1  0.74224335  0.93034729  0.58118249  1
  Te  Te125  1  0.74174690  0.91897421  0.90707085  1
  Te  Te126  1  0.26409464  0.28416493  0.06845958  1
  Te  Te127  1  0.25711234  0.25264956  0.41011853  1
  Te  Te128  1  0.26401080  0.23945651  0.74811649  1
  Te  Te129  1  0.27607867  0.59648493  0.08175275  1
  Te  Te130  1  0.25027716  0.57680583  0.45145138  1
  Te  Te131  1  0.29323300  0.58197014  0.73224522  1
  Te  Te132  1  0.24538063  0.90677884  0.09727602  1
  Te  Te133  1  0.26297538  0.90972177  0.42990598  1
  Te  Te134  1  0.23651666  0.91636130  0.74416979  1
  Te  Te135  1  0.57264071  0.25050237  0.08856856  1
  Te  Te136  1  0.60611530  0.22479375  0.43752952  1
  Te  Te137  1  0.59054462  0.24811753  0.75706547  1
  Te  Te138  1  0.57435982  0.57900469  0.08154710  1
  Te  Te139  1  0.56704675  0.60901164  0.43152731  1
  Te  Te140  1  0.55113235  0.57669250  0.70935147  1
  Te  Te141  1  0.55880773  0.90217912  0.10064737  1
  Te  Te142  1  0.58927701  0.93069026  0.40276473  1
  Te  Te143  1  0.56624991  0.95518862  0.73163825  1
  Te  Te144  1  0.91665854  0.25207114  0.07732176  1
  Te  Te145  1  0.91889845  0.23484758  0.40739117  1
  Te  Te146  1  0.90631762  0.21032809  0.72769800  1
  Te  Te147  1  0.95415304  0.58252097  0.11871823  1
  Te  Te148  1  0.91479752  0.58618037  0.42780313  1
  Te  Te149  1  0.92969673  0.57414757  0.74664525  1
  Te  Te150  1  0.93527434  0.92266273  0.10804281  1
  Te  Te151  1  0.89084433  0.88517510  0.41658692  1
  Te  Te152  1  0.89959011  0.91792275  0.75899800  1
  Te  Te153  1  0.23894826  0.07416153  0.23498598  1
  Te  Te154  1  0.22776986  0.05599615  0.56219965  1
  Te  Te155  1  0.23467527  0.10983993  0.94853473  1
  Te  Te156  1  0.21303499  0.44527256  0.23405431  1
  Te  Te157  1  0.27063563  0.45453671  0.55123793  1
  Te  Te158  1  0.25430511  0.43323415  0.89563162  1
  Te  Te159  1  0.26710305  0.76013097  0.25274361  1
  Te  Te160  1  0.26716193  0.71370269  0.56212965  1
  Te  Te161  1  0.27574309  0.73386590  0.94721675  1
  Te  Te162  1  0.58428846  0.04824451  0.25282703  1
  Te  Te163  1  0.61209081  0.07675192  0.56697204  1
  Te  Te164  1  0.59242973  0.08049800  0.91576172  1
  Te  Te165  1  0.58866304  0.39550054  0.27519354  1
  Te  Te166  1  0.55356460  0.41938524  0.58723488  1
  Te  Te167  1  0.57000362  0.41596918  0.92031966  1
  Te  Te168  1  0.58296000  0.73460038  0.24742460  1
  Te  Te169  1  0.54998983  0.76771548  0.57280213  1
  Te  Te170  1  0.55233006  0.77184020  0.92873928  1
  Te  Te171  1  0.90972842  0.09555482  0.26655841  1
  Te  Te172  1  0.89986016  0.04212844  0.57515450  1
  Te  Te173  1  0.94112412  0.04535356  0.90316178  1
  Te  Te174  1  0.93361097  0.41507646  0.24315995  1
  Te  Te175  1  0.93221716  0.40329714  0.57278342  1
  Te  Te176  1  0.91131478  0.41791843  0.92353486  1
  Te  Te177  1  0.91657935  0.77600772  0.26803203  1
  Te  Te178  1  0.94291720  0.79637097  0.53708748  1
  Te  Te179  1  0.92626883  0.76562096  0.92374471  1
