# generated using pymatgen
data_In2Te3
_symmetry_space_group_name_H-M   'P 1'
_cell_length_a   18.90415244
_cell_length_b   18.90585687
_cell_length_c   18.87306275
_cell_angle_alpha   90.04414457
_cell_angle_beta   90.00874312
_cell_angle_gamma   90.02129645
_symmetry_Int_Tables_number   1
_chemical_formula_structural   In2Te3
_chemical_formula_sum   'In72 Te108'
_cell_volume   6745.21498733
_cell_formula_units_Z   36
loop_
 _symmetry_equiv_pos_site_id
 _symmetry_equiv_pos_as_xyz
  1  'x, y, z'
loop_
 _atom_site_type_symbol
 _atom_site_label
 _atom_site_symmetry_multiplicity
 _atom_site_fract_x
 _atom_site_fract_y
 _atom_site_fract_z
 _atom_site_occupancy
  In  In0  1  0.49995890  0.16594978  0.00356613  1
  In  In1  1  0.16610670  0.17015163  0.00590647  1
  In  In2  1  0.33835911  0.03176362  0.00521021  1
  In  In3  1  0.67111380  0.68241133  0.66398686  1
  In  In4  1  -0.00173616  0.52109576  0.17296690  1
  In  In5  1  0.82180163  0.32344947  0.51081365  1
  In  In6  1  0.65243917  0.47258972  0.13751803  1
  In  In7  1  0.33697111  0.14616280  0.48719174  1
  In  In8  1  0.48837578  0.30758243  0.15984238  1
  In  In9  1  0.82527641  0.80226620  -0.00260843  1
  In  In10  1  0.79292554  0.04953019  0.81349330  1
  In  In11  1  0.32491843  0.50778340  0.16108772  1
  In  In12  1  0.03361286  0.14644239  0.80243988  1
  In  In13  1  0.00475405  0.67414741  0.01041779  1
  In  In14  1  0.16347156  0.14168285  0.35927313  1
  In  In15  1  0.50817730  0.51114155  -0.02194957  1
  In  In16  1  0.66164184  0.47980100  0.49419305  1
  In  In17  1  0.64276431  0.13841912  0.18726145  1
  In  In18  1  0.84267818  0.51511694  0.33177917  1
  In  In19  1  0.16965541  0.49802606  -0.02181594  1
  In  In20  1  0.65418476  0.65671618  -0.01345649  1
  In  In21  1  0.48983031  0.32826841  0.49029210  1
  In  In22  1  0.49968996  0.82393025  0.67626551  1
  In  In23  1  0.50184861  0.83617377  0.36181824  1
  In  In24  1  0.49568175  0.83054149  0.02148820  1
  In  In25  1  0.51798033  0.00407828  0.81641136  1
  In  In26  1  0.81186194  0.67705510  0.14599043  1
  In  In27  1  0.46994837  0.49979083  0.33090398  1
  In  In28  1  0.31355345  0.32867779  -0.00107410  1
  In  In29  1  0.67130478  0.68704490  0.33359484  1
  In  In30  1  0.30222818  -0.04396424  0.36337085  1
  In  In31  1  0.02779593  0.31631523  0.34880952  1
  In  In32  1  -0.02471050  0.33429004  -0.03508819  1
  In  In33  1  0.65534505  -0.02226844  -0.00070908  1
  In  In34  1  0.60519104  0.27170189  0.32086610  1
  In  In35  1  0.01136942  0.87906130  0.76106957  1
  In  In36  1  -0.01519021  -0.01317144  -0.01679765  1
  In  In37  1  0.51717223  0.01307019  0.47579374  1
  In  In38  1  0.83596931  0.83882471  0.34802417  1
  In  In39  1  0.49179248  0.14267960  0.64995886  1
  In  In40  1  -0.03169993  0.12504569  0.17760989  1
  In  In41  1  0.64519000  0.29299365  0.63187391  1
  In  In42  1  -0.00206563  0.34226085  0.66358804  1
  In  In43  1  0.79996570  0.01817237  0.24232936  1
  In  In44  1  0.14178171  0.69240684  0.81508462  1
  In  In45  1  -0.00676299  0.16182382  0.52278196  1
  In  In46  1  0.34264870  0.65528780  -0.00128600  1
  In  In47  1  0.46069636  0.34928335  0.80456342  1
  In  In48  1  0.33489253  0.82103651  0.52241524  1
  In  In49  1  0.16866679  0.51697465  0.66780545  1
  In  In50  1  0.65821477  0.49317673  0.80624657  1
  In  In51  1  0.20750937  0.71644790  0.20191266  1
  In  In52  1  0.19009020  0.66320004  0.51405357  1
  In  In53  1  0.14828842  0.85126548  0.00443391  1
  In  In54  1  0.86376426  0.69082395  0.53545774  1
  In  In55  1  0.18482711  0.35450333  0.50591923  1
  In  In56  1  0.32156698  -0.00239521  0.66394908  1
  In  In57  1  0.84031409  0.31817001  0.82961366  1
  In  In58  1  0.17840124  -0.01630388  0.17972190  1
  In  In59  1  0.19762841  0.31777382  0.78545095  1
  In  In60  1  0.84300373  0.49824089  0.67454717  1
  In  In61  1  0.68112897  0.81146036  0.83028921  1
  In  In62  1  0.81852663  0.17112359  0.00227414  1
  In  In63  1  0.84479656  0.67277653  0.81216120  1
  In  In64  1  0.16133803  0.33090316  0.16167081  1
  In  In65  1  0.32897799  0.84130242  0.83104857  1
  In  In66  1  0.01850108  0.69943285  0.36561831  1
  In  In67  1  0.81471748  0.33396372  0.16792225  1
  In  In68  1  0.49094018  0.65667859  0.52339221  1
  In  In69  1  -0.01689685  0.85910265  0.20214328  1
  In  In70  1  0.19112613  0.51220945  0.33258791  1
  In  In71  1  0.82155405  -0.03134555  0.50975284  1
  Te  Te72  1  0.07795567  0.06340302  0.08118730  1
  Te  Te73  1  0.06900083  0.06487655  0.43975466  1
  Te  Te74  1  0.11450999  0.07865296  0.69749236  1
  Te  Te75  1  0.07343936  0.42045833  0.07532018  1
  Te  Te76  1  0.08859562  0.43562018  0.41791485  1
  Te  Te77  1  0.08774430  0.41979137  0.75685571  1
  Te  Te78  1  0.07592783  0.76681979  0.10863353  1
  Te  Te79  1  0.13121075  0.77210375  0.42777236  1
  Te  Te80  1  0.04953774  0.74193473  0.70665829  1
  Te  Te81  1  0.43116849  0.08564539  0.10720039  1
  Te  Te82  1  0.45022573  0.11580912  0.38992222  1
  Te  Te83  1  0.40115347  0.08375515  0.76194894  1
  Te  Te84  1  0.42077861  0.41547434  0.07637981  1
  Te  Te85  1  0.39709470  0.43206523  0.43925072  1
  Te  Te86  1  0.39331717  0.44122943  0.70950078  1
  Te  Te87  1  0.40697630  0.74163665  0.09806199  1
  Te  Te88  1  0.40608779  0.73238284  0.42274946  1
  Te  Te89  1  0.40064724  0.74073110  0.74707520  1
  Te  Te90  1  0.75016252  0.06809640  0.09000348  1
  Te  Te91  1  0.78611142  0.05692904  0.39050811  1
  Te  Te92  1  0.71186024  0.10898713  0.70558835  1
  Te  Te93  1  0.75933027  0.41296244  0.05791186  1
  Te  Te94  1  0.75682209  0.40938164  0.39892047  1
  Te  Te95  1  0.74063508  0.39608375  0.72227847  1
  Te  Te96  1  0.70540586  0.76555538  0.08251477  1
  Te  Te97  1  0.75683461  0.74950044  0.44216214  1
  Te  Te98  1  0.78759810  0.78097685  0.71530776  1
  Te  Te99  1  0.08461248  0.22397543  0.24095757  1
  Te  Te100  1  0.09667861  0.25909676  0.58447770  1
  Te  Te101  1  0.09345411  0.25897428  0.90308637  1
  Te  Te102  1  0.09085974  0.60475403  0.26091806  1
  Te  Te103  1  0.07996544  0.58278855  0.57087566  1
  Te  Te104  1  0.07096449  0.58647074  0.90533611  1
  Te  Te105  1  0.08683583  0.92618461  0.27975577  1
  Te  Te106  1  0.07080609  0.94642415  0.64191521  1
  Te  Te107  1  0.08783896  0.92898017  0.88924584  1
  Te  Te108  1  0.45724929  0.25287361  0.29288193  1
  Te  Te109  1  0.39370755  0.24925203  0.59227863  1
  Te  Te110  1  0.40929670  0.24884146  0.91372730  1
  Te  Te111  1  0.39951562  0.59933639  0.24851585  1
  Te  Te112  1  0.45308111  0.56475154  0.63203032  1
  Te  Te113  1  0.40703219  0.57531569  0.89490857  1
  Te  Te114  1  0.41006366  0.91409821  0.26993300  1
  Te  Te115  1  0.43442892  0.92984350  0.57745354  1
  Te  Te116  1  0.42821532  0.92497495  0.91287360  1
  Te  Te117  1  0.74544679  0.23525703  0.25550484  1
  Te  Te118  1  0.77320888  0.21731904  0.60544905  1
  Te  Te119  1  0.73793976  0.24663118  0.90615475  1
  Te  Te120  1  0.73878550  0.57378317  0.23650893  1
  Te  Te121  1  0.74725821  0.57768903  0.57815501  1
  Te  Te122  1  0.74848337  0.58435084  0.89244107  1
  Te  Te123  1  0.74682449  0.88250415  0.23843735  1
  Te  Te124  1  0.74734291  0.88684657  0.60805390  1
  Te  Te125  1  0.76721448  0.91736076  0.90419925  1
  Te  Te126  1  0.26459012  0.23202376  0.10563507  1
  Te  Te127  1  0.25202822  0.25310726  0.41314489  1
  Te  Te128  1  0.29641065  0.23795983  0.71499226  1
  Te  Te129  1  0.22146191  0.59108892  0.08718937  1
  Te  Te130  1  0.28014800  0.57761146  0.42932978  1
  Te  Te131  1  0.24832549  0.60979999  0.75407550  1
  Te  Te132  1  0.26598897  0.91615932  0.07529801  1
  Te  Te133  1  0.22219128  0.90892980  0.47946928  1
  Te  Te134  1  0.23490806  0.89922198  0.73299531  1
  Te  Te135  1  0.60205287  0.24721188  0.08363589  1
  Te  Te136  1  0.61333094  0.24660483  0.46839719  1
  Te  Te137  1  0.55626106  0.24439047  0.74570110  1
  Te  Te138  1  0.56760148  0.59045521  0.09341032  1
  Te  Te139  1  0.58318321  0.58270368  0.41371402  1
  Te  Te140  1  0.57536265  0.60014393  0.74312068  1
  Te  Te141  1  0.55170766  0.94468638  0.09863876  1
  Te  Te142  1  0.61464098  0.93326054  0.39373482  1
  Te  Te143  1  0.60918580  0.91164777  0.73896085  1
  Te  Te144  1  0.92781045  0.24643546  0.08609486  1
  Te  Te145  1  0.91493416  0.24435499  0.41718811  1
  Te  Te146  1  0.92528166  0.23124260  0.73723623  1
  Te  Te147  1  0.90120755  0.57843437  0.06944754  1
  Te  Te148  1  0.92498271  0.59644672  0.43039129  1
  Te  Te149  1  0.93832433  0.60171004  0.72105669  1
  Te  Te150  1  0.90241302  0.90668874  0.08193465  1
  Te  Te151  1  0.93819383  0.88827044  0.44909854  1
  Te  Te152  1  0.89587544  0.97698297  0.73057995  1
  Te  Te153  1  0.26303525  0.07418865  0.26679997  1
  Te  Te154  1  0.23537614  0.08911371  0.58118740  1
  Te  Te155  1  0.24041428  0.08651656  0.91103241  1
  Te  Te156  1  0.26125887  0.40231663  0.25123785  1
  Te  Te157  1  0.27257051  0.42754063  0.60309395  1
  Te  Te158  1  0.26100761  0.41886909  0.88878909  1
  Te  Te159  1  0.26928607  0.82958983  0.27482110  1
  Te  Te160  1  0.27856538  0.72361348  0.62104031  1
  Te  Te161  1  0.23537535  0.75162030  0.92828962  1
  Te  Te162  1  0.58958370  0.06040215  0.30273110  1
  Te  Te163  1  0.60478264  0.06922923  0.58463487  1
  Te  Te164  1  0.59765758  0.08944062  0.91346623  1
  Te  Te165  1  0.57932667  0.41367162  0.25680444  1
  Te  Te166  1  0.56642033  0.41773197  0.59325335  1
  Te  Te167  1  0.57656123  0.40359431  0.89787134  1
  Te  Te168  1  0.57182778  0.75859540  0.25576517  1
  Te  Te169  1  0.58838599  0.76543809  0.56621815  1
  Te  Te170  1  0.56579312  0.75077418  0.90664367  1
  Te  Te171  1  0.92902283  0.05817425  0.30522076  1
  Te  Te172  1  0.90787330  0.06109270  0.59681012  1
  Te  Te173  1  0.92248922  0.10253224  0.90775848  1
  Te  Te174  1  0.93085556  0.40932011  0.25373164  1
  Te  Te175  1  0.92019084  0.42577279  0.56367462  1
  Te  Te176  1  0.91174213  0.43607980  0.88214027  1
  Te  Te177  1  0.90776585  0.72830431  0.25347335  1
  Te  Te178  1  0.96023334  0.79731330  0.57212220  1
  Te  Te179  1  0.93587507  0.75992399  0.90359597  1
