# generated using pymatgen
data_In2Te3
_symmetry_space_group_name_H-M   'P 1'
_cell_length_a   18.79680289
_cell_length_b   18.78503045
_cell_length_c   18.78841301
_cell_angle_alpha   90.03427403
_cell_angle_beta   89.96560801
_cell_angle_gamma   89.95617698
_symmetry_Int_Tables_number   1
_chemical_formula_structural   In2Te3
_chemical_formula_sum   'In72 Te108'
_cell_volume   6634.15639936
_cell_formula_units_Z   36
loop_
 _symmetry_equiv_pos_site_id
 _symmetry_equiv_pos_as_xyz
  1  'x, y, z'
loop_
 _atom_site_type_symbol
 _atom_site_label
 _atom_site_symmetry_multiplicity
 _atom_site_fract_x
 _atom_site_fract_y
 _atom_site_fract_z
 _atom_site_occupancy
  In  In0  1  -0.02027793  0.18610167  0.47208773  1
  In  In1  1  0.81292172  0.65187824  0.17586427  1
  In  In2  1  0.64397737  0.67257537  0.00454681  1
  In  In3  1  0.32720819  0.34479559  0.00952579  1
  In  In4  1  0.19334917  0.50751310  0.33495791  1
  In  In5  1  -0.02436479  0.34950077  0.34110421  1
  In  In6  1  0.81181058  0.16502218  0.65632182  1
  In  In7  1  0.15668339  0.35104297  0.15974262  1
  In  In8  1  0.82019089  0.33982966  0.83415899  1
  In  In9  1  0.49078501  0.32720757  0.82524235  1
  In  In10  1  0.66057605  0.84114390  0.83130116  1
  In  In11  1  0.34431800  0.68873963  0.68896010  1
  In  In12  1  0.35483129  0.82306009  0.50795619  1
  In  In13  1  0.32925557  0.68505231  -0.00566034  1
  In  In14  1  0.00314126  0.66149787  0.67152660  1
  In  In15  1  0.34001795  0.48680439  0.50544037  1
  In  In16  1  0.49275514  0.84595994  0.00021410  1
  In  In17  1  0.00240203  0.51009169  0.15002336  1
  In  In18  1  0.17696977  0.16861301  -0.01187076  1
  In  In19  1  0.32552470  0.15518133  0.83561774  1
  In  In20  1  0.37841952  0.18135274  0.19098365  1
  In  In21  1  0.64128791  0.34502960  0.63242648  1
  In  In22  1  -0.01244172  0.36965774  0.67527268  1
  In  In23  1  0.37888752  0.14941544  0.47103179  1
  In  In24  1  0.82667917  0.17203291  0.02200574  1
  In  In25  1  0.84863855  0.66969007  0.82933931  1
  In  In26  1  0.34118288  0.51535573  0.17165665  1
  In  In27  1  0.18327184  0.82441754  0.36753431  1
  In  In28  1  0.82685218  0.82464719  0.35583671  1
  In  In29  1  0.00675915  0.00715690  0.67689519  1
  In  In30  1  0.62353115  0.82029336  0.17925726  1
  In  In31  1  0.65585240  0.00553347  0.32282670  1
  In  In32  1  0.81162745  0.65943123  0.49588511  1
  In  In33  1  -0.02031459  0.51138014  0.51565193  1
  In  In34  1  0.01498634  0.52840497  0.83587614  1
  In  In35  1  -0.03845664  0.18479918  0.17018856  1
  In  In36  1  0.49827372  0.51115807  0.01437041  1
  In  In37  1  0.00355619  -0.00518864  0.00174327  1
  In  In38  1  0.18470488  0.00133790  0.15858452  1
  In  In39  1  -0.00030769  0.84631205  0.51970949  1
  In  In40  1  0.65925458  -0.00269287  0.64387907  1
  In  In41  1  0.17792536  0.17831643  0.66951343  1
  In  In42  1  0.00614699  0.68682901  0.33317001  1
  In  In43  1  0.82244462  0.48563154  0.00054381  1
  In  In44  1  0.18809170  0.67893668  0.14207472  1
  In  In45  1  0.52285774  0.47318447  0.34881447  1
  In  In46  1  0.02543611  0.83125845  0.13799898  1
  In  In47  1  0.17786855  0.32525812  0.50378046  1
  In  In48  1  0.49199842  -0.00341452  0.84075325  1
  In  In49  1  0.00652759  0.81481310  0.84090548  1
  In  In50  1  0.80708849  0.00775548  0.47969485  1
  In  In51  1  0.18340765  -0.01663992  0.51745154  1
  In  In52  1  0.02309644  0.16980980  0.82908612  1
  In  In53  1  0.50225273  0.65919656  0.48891128  1
  In  In54  1  0.52404925  0.17022643  0.64830756  1
  In  In55  1  0.00520954  0.02099495  0.29855180  1
  In  In56  1  0.84275156  0.00941466  0.16220005  1
  In  In57  1  0.33248422  0.32265880  0.67073907  1
  In  In58  1  0.68426168  0.33169843  0.01082231  1
  In  In59  1  0.66570215  0.83781351  0.49588671  1
  In  In60  1  0.67056558  0.20084330  0.19634644  1
  In  In61  1  0.18066044  0.82556058  -0.00581271  1
  In  In62  1  0.51356802  0.13113115  0.01057411  1
  In  In63  1  0.65108443  0.50365615  0.81048759  1
  In  In64  1  0.82589847  -0.02359282  0.84305534  1
  In  In65  1  0.17005403  0.16064806  0.33654652  1
  In  In66  1  0.35212111  0.64657836  0.34098274  1
  In  In67  1  0.38555902  0.84576105  0.18994976  1
  In  In68  1  0.32482715  0.49754949  0.81881794  1
  In  In69  1  0.32696141  -0.03303731  0.67483901  1
  In  In70  1  0.79501360  0.48921517  0.33035104  1
  In  In71  1  0.66173364  0.65908919  0.65673207  1
  Te  Te72  1  0.07059076  0.08794641  0.10281478  1
  Te  Te73  1  0.08801981  0.07167334  0.43098338  1
  Te  Te74  1  0.11770988  0.07080672  0.76082492  1
  Te  Te75  1  0.08979670  0.43319525  0.05831341  1
  Te  Te76  1  0.09456904  0.41906847  0.41331615  1
  Te  Te77  1  0.09212688  0.42606207  0.75929002  1
  Te  Te78  1  0.07262938  0.71593338  0.04133405  1
  Te  Te79  1  0.08653562  0.73917766  0.45033973  1
  Te  Te80  1  0.09879705  0.72072641  0.77038824  1
  Te  Te81  1  0.40251230  0.07588309  0.08911191  1
  Te  Te82  1  0.45484172  0.06928122  0.36940711  1
  Te  Te83  1  0.41767771  0.09218709  0.73173196  1
  Te  Te84  1  0.42933123  0.40820533  0.10342972  1
  Te  Te85  1  0.38821005  0.41598776  0.38400938  1
  Te  Te86  1  0.42951812  0.42551238  0.72863356  1
  Te  Te87  1  0.43407498  0.73659272  0.09395880  1
  Te  Te88  1  0.44362459  0.76372632  0.38689805  1
  Te  Te89  1  0.46262665  0.72947328  0.76923461  1
  Te  Te90  1  0.72860102  0.08757606  0.10026902  1
  Te  Te91  1  0.70939024  0.10465184  0.42456987  1
  Te  Te92  1  0.74170544  0.06936487  0.75099143  1
  Te  Te93  1  0.73044888  0.43513739  0.10689012  1
  Te  Te94  1  0.71838449  0.37994151  0.40158015  1
  Te  Te95  1  0.74498313  0.41668755  0.72793180  1
  Te  Te96  1  0.73624601  0.75485843  0.09180603  1
  Te  Te97  1  0.71748228  0.72978213  0.39759846  1
  Te  Te98  1  0.74898543  0.74953354  0.74416623  1
  Te  Te99  1  0.07550925  0.25364644  0.26021759  1
  Te  Te100  1  0.07099383  0.24675815  0.58435471  1
  Te  Te101  1  0.07530352  0.25870917  0.93365026  1
  Te  Te102  1  0.09633435  0.59527866  0.24769831  1
  Te  Te103  1  0.08962917  0.57382876  0.58769330  1
  Te  Te104  1  0.09508166  0.60629752  0.93097286  1
  Te  Te105  1  0.09881853  0.90182239  0.25692212  1
  Te  Te106  1  0.10363975  0.90053370  0.61802747  1
  Te  Te107  1  0.09620231  0.92187527  0.90871651  1
  Te  Te108  1  0.46134030  0.26666895  0.28312405  1
  Te  Te109  1  0.42673632  0.25888746  0.56859795  1
  Te  Te110  1  0.41625732  0.24193871  0.92765234  1
  Te  Te111  1  0.45558712  0.58106201  0.24981045  1
  Te  Te112  1  0.41540432  0.58733001  0.58922838  1
  Te  Te113  1  0.41335631  0.58334454  0.91416087  1
  Te  Te114  1  0.45930029  0.94633159  0.27090716  1
  Te  Te115  1  0.42865645  0.93069238  0.57699533  1
  Te  Te116  1  0.39190208  0.90642394  0.90541803  1
  Te  Te117  1  0.76295012  0.28138426  0.28177338  1
  Te  Te118  1  0.72979174  0.24521462  0.56511119  1
  Te  Te119  1  0.74193810  0.23303470  0.90880134  1
  Te  Te120  1  0.70750738  0.58280193  0.25464409  1
  Te  Te121  1  0.72968415  0.55840834  0.56780269  1
  Te  Te122  1  0.73693672  0.58377023  0.90999681  1
  Te  Te123  1  0.75640109  0.91222086  0.25109601  1
  Te  Te124  1  0.76905781  0.90615153  0.58565113  1
  Te  Te125  1  0.72921569  0.91843769  0.93749571  1
  Te  Te126  1  0.25115318  0.23918846  0.10456793  1
  Te  Te127  1  0.27022817  0.24594811  0.41281601  1
  Te  Te128  1  0.23802815  0.26726743  0.77754463  1
  Te  Te129  1  0.24975471  0.56612469  0.06170803  1
  Te  Te130  1  0.24979135  0.59958441  0.44166831  1
  Te  Te131  1  0.24043284  0.60132536  0.75308546  1
  Te  Te132  1  0.27286575  0.89725971  0.09314473  1
  Te  Te133  1  0.27931674  0.93106169  0.41203177  1
  Te  Te134  1  0.27905194  0.87799836  0.78096162  1
  Te  Te135  1  0.57726512  0.25088963  0.08200172  1
  Te  Te136  1  0.57761756  0.30928424  0.42285409  1
  Te  Te137  1  0.59956095  0.24988431  0.75308046  1
  Te  Te138  1  0.60922555  0.56264975  0.10107458  1
  Te  Te139  1  0.60356868  0.55457904  0.44939119  1
  Te  Te140  1  0.55413966  0.59562245  0.74291814  1
  Te  Te141  1  0.57541173  0.92820040  0.09139573  1
  Te  Te142  1  0.57194043  0.91749410  0.41081176  1
  Te  Te143  1  0.56771288  0.91506918  0.73423750  1
  Te  Te144  1  0.90406077  0.28402933  0.07865721  1
  Te  Te145  1  0.86948137  0.26079289  0.40349285  1
  Te  Te146  1  0.91484179  0.24193027  0.74593351  1
  Te  Te147  1  0.90539186  0.59495786  0.06768108  1
  Te  Te148  1  0.90986767  0.58362038  0.39162896  1
  Te  Te149  1  0.90148548  0.56524601  0.73438193  1
  Te  Te150  1  0.90463400  0.90268036  0.07176193  1
  Te  Te151  1  0.93120952  0.92524501  0.40693153  1
  Te  Te152  1  0.91955996  0.90348429  0.74692928  1
  Te  Te153  1  0.27017534  0.08119360  0.25467307  1
  Te  Te154  1  0.26785709  0.09884935  0.57511887  1
  Te  Te155  1  0.25978692  0.06264244  0.93020997  1
  Te  Te156  1  0.26681659  0.40220995  0.25229539  1
  Te  Te157  1  0.23823639  0.42315124  0.60254565  1
  Te  Te158  1  0.24264554  0.41366886  0.91140418  1
  Te  Te159  1  0.26334597  0.74752675  0.25710829  1
  Te  Te160  1  0.25446046  0.75652190  0.59034678  1
  Te  Te161  1  0.25630788  0.75593643  0.88208204  1
  Te  Te162  1  0.56470986  0.10695527  0.25239970  1
  Te  Te163  1  0.59104741  0.08635843  0.54407014  1
  Te  Te164  1  0.59839813  0.07716660  0.90332837  1
  Te  Te165  1  0.58231927  0.36226359  0.26199632  1
  Te  Te166  1  0.54607732  0.40824070  0.53533530  1
  Te  Te167  1  0.58286982  0.41322460  0.91691470  1
  Te  Te168  1  0.54355185  0.73538237  0.26791351  1
  Te  Te169  1  0.57010943  0.75839463  0.58414237  1
  Te  Te170  1  0.55828412  0.74065566  0.89671693  1
  Te  Te171  1  0.88130814  0.10565117  0.27490301  1
  Te  Te172  1  0.91860032  0.07714177  0.57286865  1
  Te  Te173  1  0.91549867  0.08776763  0.91787813  1
  Te  Te174  1  0.90421058  0.42927274  0.23372554  1
  Te  Te175  1  0.90041115  0.39648268  0.56052539  1
  Te  Te176  1  0.92345838  0.41980839  0.90788596  1
  Te  Te177  1  0.91584845  0.76123535  0.23641248  1
  Te  Te178  1  0.90544849  0.74304462  0.58197620  1
  Te  Te179  1  0.89902909  0.76439583  0.92942985  1
