# generated using pymatgen
data_In2Te3
_symmetry_space_group_name_H-M   'P 1'
_cell_length_a   19.01924279
_cell_length_b   18.97694804
_cell_length_c   18.99665191
_cell_angle_alpha   90.06472170
_cell_angle_beta   90.07918220
_cell_angle_gamma   89.77153158
_symmetry_Int_Tables_number   1
_chemical_formula_structural   In2Te3
_chemical_formula_sum   'In72 Te108'
_cell_volume   6856.34265570
_cell_formula_units_Z   36
loop_
 _symmetry_equiv_pos_site_id
 _symmetry_equiv_pos_as_xyz
  1  'x, y, z'
loop_
 _atom_site_type_symbol
 _atom_site_label
 _atom_site_symmetry_multiplicity
 _atom_site_fract_x
 _atom_site_fract_y
 _atom_site_fract_z
 _atom_site_occupancy
  In  In0  1  0.79203870  0.65531462  0.50423221  1
  In  In1  1  0.34730924  0.50111527  0.15800499  1
  In  In2  1  0.50099318  0.67960628  0.18694728  1
  In  In3  1  0.49195668  0.01423977  0.81585659  1
  In  In4  1  0.80589779  0.85572949  -0.00575509  1
  In  In5  1  0.64485057  0.49883637  0.54806488  1
  In  In6  1  0.14844233  0.45497861  0.01849557  1
  In  In7  1  0.65273299  0.82219846  0.52064061  1
  In  In8  1  0.83664830  0.01208463  0.51131859  1
  In  In9  1  0.81013766  0.88629067  0.28274606  1
  In  In10  1  0.32543254  0.16721692  0.14090471  1
  In  In11  1  0.65694450  0.68335185  -0.00122689  1
  In  In12  1  0.32018525  0.82807498  0.13996315  1
  In  In13  1  -0.01415295  0.30754857  0.31314892  1
  In  In14  1  0.35573461  0.33929016  0.34136180  1
  In  In15  1  0.85402020  0.50560507  0.00127203  1
  In  In16  1  0.66864820  0.34590608  0.33901257  1
  In  In17  1  0.84238652  0.64791168  0.83500313  1
  In  In18  1  0.14284311  0.48737876  0.68845295  1
  In  In19  1  0.31185759  0.14971691  0.52027348  1
  In  In20  1  0.17696842  0.15684326  -0.06242851  1
  In  In21  1  -0.00610830  0.66120505  0.00377054  1
  In  In22  1  0.00898324  0.68491122  0.33105764  1
  In  In23  1  -0.00344869  0.82797385  0.16891063  1
  In  In24  1  0.16208562  -0.00623343  0.16356046  1
  In  In25  1  0.19684264  0.83128401  0.34333736  1
  In  In26  1  0.33587899  0.84508062  0.52760299  1
  In  In27  1  0.15661518  0.34490133  0.51031559  1
  In  In28  1  0.35506516  0.00250439  0.33170362  1
  In  In29  1  0.01851727  0.84561989  0.82989234  1
  In  In30  1  -0.01435045  0.19345608  0.15044898  1
  In  In31  1  0.47762727  0.66098639  0.51421991  1
  In  In32  1  0.35174603  0.89064206  0.75069728  1
  In  In33  1  0.49418731  0.23472003  0.81950279  1
  In  In34  1  0.68727469  0.63141024  0.68083490  1
  In  In35  1  0.53518275  0.86707877  0.33013028  1
  In  In36  1  0.00261757  0.49802055  0.49468886  1
  In  In37  1  -0.00646012  -0.00195529  -0.01945935  1
  In  In38  1  0.50086724  0.01976110  0.13445485  1
  In  In39  1  0.18635756  0.51013117  0.31649044  1
  In  In40  1  0.81869571  0.48583883  0.34199851  1
  In  In41  1  0.80901044  0.16468698  0.67648629  1
  In  In42  1  0.13830464  0.17380110  0.33608312  1
  In  In43  1  0.50712920  0.33839351  0.50198824  1
  In  In44  1  0.81569483  0.35528129  0.82461719  1
  In  In45  1  0.33061566  0.47143829  0.84658921  1
  In  In46  1  0.86912810  0.83168151  0.67663181  1
  In  In47  1  0.33255028  0.67764267  0.35551567  1
  In  In48  1  0.65228706  0.17803740  0.51271639  1
  In  In49  1  0.31461535  0.32535539  0.68390089  1
  In  In50  1  0.62209340  0.30495416  -0.02200990  1
  In  In51  1  -0.01540988  0.65230498  0.67548209  1
  In  In52  1  0.49947837  0.32617241  0.16446284  1
  In  In53  1  0.47544865  0.01751748  0.53856632  1
  In  In54  1  0.34154197  0.67571674  0.66411955  1
  In  In55  1  0.50738480  0.48155672  -0.01576916  1
  In  In56  1  0.65831289  0.67089964  0.33304734  1
  In  In57  1  0.17513536  0.85201332  0.01641549  1
  In  In58  1  0.01982884  0.31580036  0.68262548  1
  In  In59  1  0.50394182  0.83445697  -0.05408581  1
  In  In60  1  0.00421582  0.03782769  0.34474015  1
  In  In61  1  0.00985678  0.85349553  0.50561364  1
  In  In62  1  0.65244397  0.02103250  -0.02118531  1
  In  In63  1  0.81400012  0.14215739  0.32782463  1
  In  In64  1  0.82916073  0.32429186  0.14063148  1
  In  In65  1  0.32797382  0.64275327  -0.00246030  1
  In  In66  1  0.66382181  0.47965854  0.16287316  1
  In  In67  1  0.64879607  0.01424831  0.65540855  1
  In  In68  1  0.04210840  0.03362451  0.70031465  1
  In  In69  1  0.15556626  0.66573483  0.84914470  1
  In  In70  1  0.81701966  0.15212432  -0.01086296  1
  In  In71  1  0.01026652  0.18939443  0.50451655  1
  Te  Te72  1  0.07014545  0.08185897  0.08399170  1
  Te  Te73  1  0.10300386  0.07731705  0.44878319  1
  Te  Te74  1  0.09022864  0.12531715  0.80853752  1
  Te  Te75  1  0.06441307  0.37934987  0.10976541  1
  Te  Te76  1  0.07551068  0.40367279  0.39523249  1
  Te  Te77  1  0.11124711  0.37732524  0.78462144  1
  Te  Te78  1  0.09253469  0.74753110  0.08537307  1
  Te  Te79  1  0.09928104  0.75492747  0.43039432  1
  Te  Te80  1  0.08668863  0.74508964  0.73975612  1
  Te  Te81  1  0.43747027  0.12522183  0.04794475  1
  Te  Te82  1  0.42145712  0.10127471  0.42355257  1
  Te  Te83  1  0.38772599  0.10527010  0.74024424  1
  Te  Te84  1  0.40876395  0.39907651  0.06419134  1
  Te  Te85  1  0.42356064  0.43327723  0.42810093  1
  Te  Te86  1  0.42231562  0.37561118  0.77537737  1
  Te  Te87  1  0.42607403  0.74335988  0.06954643  1
  Te  Te88  1  0.43522234  0.77454668  0.41467737  1
  Te  Te89  1  0.39873900  0.75393795  0.77293576  1
  Te  Te90  1  0.74146122  0.07172814  0.08826148  1
  Te  Te91  1  0.72643167  0.07185871  0.42759315  1
  Te  Te92  1  0.74354340  0.06187522  0.75604328  1
  Te  Te93  1  0.73831056  0.40914757  0.05274126  1
  Te  Te94  1  0.73737666  0.42075080  0.45017584  1
  Te  Te95  1  0.74297359  0.45690180  0.74096571  1
  Te  Te96  1  0.75283580  0.75359177  0.08238943  1
  Te  Te97  1  0.74414821  0.76958229  0.41137055  1
  Te  Te98  1  0.76769779  0.74620398  0.74727698  1
  Te  Te99  1  0.10320233  0.26916296  0.21523662  1
  Te  Te100  1  0.11863642  0.23098256  0.60208319  1
  Te  Te101  1  0.07831452  0.25824343  0.88914750  1
  Te  Te102  1  0.08011213  0.58604215  0.25092182  1
  Te  Te103  1  0.08592773  0.58581854  0.58409539  1
  Te  Te104  1  0.08068935  0.56367387  0.92704469  1
  Te  Te105  1  0.08601701  0.91132340  0.26586146  1
  Te  Te106  1  0.09048936  0.92005009  0.60916636  1
  Te  Te107  1  0.11248397  0.93494746  0.90702318  1
  Te  Te108  1  0.41256731  0.23302541  0.24657996  1
  Te  Te109  1  0.39791242  0.25847530  0.57673011  1
  Te  Te110  1  0.44848345  0.25204124  0.95769197  1
  Te  Te111  1  0.41569344  0.58433252  0.26426126  1
  Te  Te112  1  0.42682555  0.56756070  0.61354851  1
  Te  Te113  1  0.42588445  0.57976628  0.90184034  1
  Te  Te114  1  0.41420705  0.89811644  0.23915050  1
  Te  Te115  1  0.44215727  0.89540505  0.62007182  1
  Te  Te116  1  0.39743925  0.92717737  0.89804707  1
  Te  Te117  1  0.74687532  0.25284952  0.24764891  1
  Te  Te118  1  0.76553551  0.25094011  0.56797164  1
  Te  Te119  1  0.73856510  0.24778498  0.89885411  1
  Te  Te120  1  0.74328769  0.57761334  0.24718442  1
  Te  Te121  1  0.79193859  0.54732650  0.60803274  1
  Te  Te122  1  0.74423886  0.58085047  0.92655586  1
  Te  Te123  1  0.71055311  0.97515166  0.22072391  1
  Te  Te124  1  0.76329823  0.90665142  0.59303673  1
  Te  Te125  1  0.73864375  0.93522864  0.89322472  1
  Te  Te126  1  0.23208327  0.23455898  0.05186340  1
  Te  Te127  1  0.24302571  0.25247184  0.41735786  1
  Te  Te128  1  0.27359026  0.21112041  0.77354754  1
  Te  Te129  1  0.23378276  0.56975368  0.08616858  1
  Te  Te130  1  0.25300472  0.57858083  0.42590892  1
  Te  Te131  1  0.24272301  0.57354661  0.76518397  1
  Te  Te132  1  0.27522814  0.95589971  0.07058426  1
  Te  Te133  1  0.26088115  0.93629376  0.43154094  1
  Te  Te134  1  0.21760863  0.94236265  0.71617531  1
  Te  Te135  1  0.60634751  0.24269950  0.10853658  1
  Te  Te136  1  0.57503903  0.24598138  0.40096737  1
  Te  Te137  1  0.59808460  0.25863218  0.71902091  1
  Te  Te138  1  0.56743867  0.57658286  0.09301889  1
  Te  Te139  1  0.58690053  0.58676261  0.43427288  1
  Te  Te140  1  0.61310624  0.53380333  0.76423640  1
  Te  Te141  1  0.57348596  0.91329313  0.05449079  1
  Te  Te142  1  0.58012764  0.93785736  0.45435011  1
  Te  Te143  1  0.57846512  0.91923709  0.74191497  1
  Te  Te144  1  0.91742207  0.26236310  0.03527711  1
  Te  Te145  1  0.89830871  0.23782409  0.41349664  1
  Te  Te146  1  0.90459769  0.24983884  0.75692028  1
  Te  Te147  1  0.92166202  0.58349393  0.10355765  1
  Te  Te148  1  0.90700987  0.58797440  0.41209885  1
  Te  Te149  1  0.93797366  0.55205351  0.77281015  1
  Te  Te150  1  0.91284333  0.91988576  0.08254479  1
  Te  Te151  1  0.91426294  0.92658555  0.41015814  1
  Te  Te152  1  0.92920461  0.94348431  0.75680154  1
  Te  Te153  1  0.24134387  0.08337237  0.26066304  1
  Te  Te154  1  0.27981354  0.05620179  0.63088651  1
  Te  Te155  1  0.29866420  0.09700143  0.87359111  1
  Te  Te156  1  0.26404515  0.40451284  0.23950828  1
  Te  Te157  1  0.24742703  0.43094066  0.59224087  1
  Te  Te158  1  0.24313543  0.38565445  0.92774917  1
  Te  Te159  1  0.25046073  0.73727254  0.23803639  1
  Te  Te160  1  0.24557153  0.74368805  0.57752294  1
  Te  Te161  1  0.25109589  0.75331822  0.92639832  1
  Te  Te162  1  0.57637570  0.04601653  0.25462646  1
  Te  Te163  1  0.55486731  0.12823372  0.61828840  1
  Te  Te164  1  0.57700362  0.11490030  0.88616362  1
  Te  Te165  1  0.56452052  0.42468701  0.26175773  1
  Te  Te166  1  0.58515030  0.38115901  0.62390271  1
  Te  Te167  1  0.59405965  0.41679870  0.88294328  1
  Te  Te168  1  0.60801666  0.77564833  0.23271799  1
  Te  Te169  1  0.58593513  0.72076859  0.60642443  1
  Te  Te170  1  0.59956373  0.74636345  0.88093824  1
  Te  Te171  1  0.91616778  0.08368164  0.23249321  1
  Te  Te172  1  0.93716037  0.08762148  0.59437057  1
  Te  Te173  1  0.91147894  0.08565705  0.89827549  1
  Te  Te174  1  0.90408755  0.41267888  0.24004619  1
  Te  Te175  1  0.94533362  0.40012403  0.58617128  1
  Te  Te176  1  0.92338496  0.43298442  0.89220487  1
  Te  Te177  1  0.89860055  0.75677442  0.25615313  1
  Te  Te178  1  0.91454482  0.74064106  0.56341103  1
  Te  Te179  1  0.92313614  0.76024790  0.91040833  1
