# generated using pymatgen
data_In2Te3
_symmetry_space_group_name_H-M   'P 1'
_cell_length_a   18.92532755
_cell_length_b   18.93236248
_cell_length_c   18.90308122
_cell_angle_alpha   90.07252234
_cell_angle_beta   89.89997999
_cell_angle_gamma   90.02129520
_symmetry_Int_Tables_number   1
_chemical_formula_structural   In2Te3
_chemical_formula_sum   'In72 Te108'
_cell_volume   6772.97974334
_cell_formula_units_Z   36
loop_
 _symmetry_equiv_pos_site_id
 _symmetry_equiv_pos_as_xyz
  1  'x, y, z'
loop_
 _atom_site_type_symbol
 _atom_site_label
 _atom_site_symmetry_multiplicity
 _atom_site_fract_x
 _atom_site_fract_y
 _atom_site_fract_z
 _atom_site_occupancy
  In  In0  1  0.65653235  0.82979933  0.50997921  1
  In  In1  1  0.16710643  0.67660568  0.17129742  1
  In  In2  1  0.00782784  0.82849259  0.48923217  1
  In  In3  1  0.50884326  0.52971755  0.01079691  1
  In  In4  1  0.49601136  0.01702937  0.15747160  1
  In  In5  1  0.68793099  0.82106699  0.18981706  1
  In  In6  1  0.70916696  0.34215464  0.61011966  1
  In  In7  1  0.66568456  0.00206755  0.00017356  1
  In  In8  1  -0.01316116  0.17005433  0.81924008  1
  In  In9  1  0.01066328  0.14075145  0.47732037  1
  In  In10  1  -0.01375883  0.34777099  0.37260937  1
  In  In11  1  0.32977489  0.18649030  0.49411128  1
  In  In12  1  0.32718108  0.31951379  0.32874897  1
  In  In13  1  0.18035384  0.15750539  0.01588591  1
  In  In14  1  0.67473875  0.49667013  0.81130417  1
  In  In15  1  0.29906414  0.52006669  0.47626996  1
  In  In16  1  0.82944619  0.02777086  0.49018279  1
  In  In17  1  0.86251441  0.67008892  0.47262130  1
  In  In18  1  0.83687937  0.83827894  0.64661482  1
  In  In19  1  0.68625505  0.32082486  0.01498993  1
  In  In20  1  0.31355705  0.83046731  0.83824464  1
  In  In21  1  0.51555440  0.34000004  0.83171872  1
  In  In22  1  0.49557851  0.84684971  -0.01891766  1
  In  In23  1  0.49866988  0.18202302  0.33881068  1
  In  In24  1  0.85364802  0.31465757  0.19511805  1
  In  In25  1  0.62556542  0.14284069  0.75957972  1
  In  In26  1  0.14526519  -0.00192915  0.16431445  1
  In  In27  1  0.01735109  0.83189453  0.81746334  1
  In  In28  1  0.34349975  0.33765898  0.65688512  1
  In  In29  1  0.32464131  0.66688972  -0.02760066  1
  In  In30  1  0.31808333  0.85647368  0.15700979  1
  In  In31  1  0.01752622  0.16886869  0.20222443  1
  In  In32  1  0.49413594  0.83463831  0.65988842  1
  In  In33  1  0.33924459  0.48901140  0.20308027  1
  In  In34  1  0.52002445  0.33533684  0.50793726  1
  In  In35  1  -0.02517636  0.35709074  0.59613463  1
  In  In36  1  0.48525529  -0.01997113  0.81519297  1
  In  In37  1  0.01940100  0.36294317  -0.00412289  1
  In  In38  1  0.65512588  0.19021583  0.18721023  1
  In  In39  1  0.32663193  0.48021954  0.81333235  1
  In  In40  1  0.50766789  0.49310711  0.33687855  1
  In  In41  1  0.83452162  0.15899787  0.00387857  1
  In  In42  1  0.86233070  0.82558444  0.30633349  1
  In  In43  1  0.48451362  0.65607385  0.17268600  1
  In  In44  1  0.33835267  0.01423603  0.67224756  1
  In  In45  1  0.80824104  0.00177847  0.81736569  1
  In  In46  1  0.15533539  -0.00514847  0.85836580  1
  In  In47  1  0.00452388  0.50886999  0.82212625  1
  In  In48  1  0.14762107  0.50842629  0.03590071  1
  In  In49  1  0.52480487  0.01755875  0.51064661  1
  In  In50  1  0.82341490  0.65155888  0.19587611  1
  In  In51  1  0.67050421  0.83322533  0.85561456  1
  In  In52  1  0.46832521  0.82005394  0.38006498  1
  In  In53  1  0.51502717  0.34669950  0.19212183  1
  In  In54  1  0.15051836  0.82594545  0.63956528  1
  In  In55  1  0.84143527  0.64153979  0.81992083  1
  In  In56  1  0.30856167  -0.00106474  0.32066103  1
  In  In57  1  0.14833312  0.16968847  0.65783991  1
  In  In58  1  0.81927335  0.48447510  0.00692671  1
  In  In59  1  0.00366714  0.51876952  0.19969163  1
  In  In60  1  0.46685552  0.15494500  -0.01317445  1
  In  In61  1  0.82540340  0.31337957  0.80033064  1
  In  In62  1  0.00581143  0.68157672  0.00123150  1
  In  In63  1  0.65728006  0.67928952  0.03380940  1
  In  In64  1  0.33157329  0.66933926  0.65440094  1
  In  In65  1  0.32442029  0.32151215  0.01830942  1
  In  In66  1  0.17305943  0.34512231  0.81717522  1
  In  In67  1  0.68814146  0.65113931  0.64942349  1
  In  In68  1  0.17569695  0.50541886  0.64269830  1
  In  In69  1  0.65240172  0.66143985  0.35509343  1
  In  In70  1  0.15796157  0.84359823  0.32038287  1
  In  In71  1  0.92005833  -0.02927062  0.18240372  1
  Te  Te72  1  0.05711066  0.09545587  0.07555020  1
  Te  Te73  1  0.10559781  0.02816906  0.44523238  1
  Te  Te74  1  0.07830006  0.07098879  0.74957935  1
  Te  Te75  1  0.08295298  0.40538547  0.12563300  1
  Te  Te76  1  0.06791406  0.44777418  0.45256467  1
  Te  Te77  1  0.07397883  0.41106500  0.72345367  1
  Te  Te78  1  0.06056699  0.76604914  0.11383967  1
  Te  Te79  1  0.09987298  0.73876936  0.41260711  1
  Te  Te80  1  0.08808678  0.73373559  0.73419616  1
  Te  Te81  1  0.38740511  0.07913631  0.08367283  1
  Te  Te82  1  0.41285385  0.07889460  0.41266943  1
  Te  Te83  1  0.43111835  0.09928611  0.74913118  1
  Te  Te84  1  0.42450875  0.42435363  0.08393227  1
  Te  Te85  1  0.41178474  0.40389572  0.42258600  1
  Te  Te86  1  0.44168839  0.42767888  0.72966687  1
  Te  Te87  1  0.41545075  0.75043746  0.07541425  1
  Te  Te88  1  0.38936438  0.73619004  0.46924036  1
  Te  Te89  1  0.41406320  0.75037732  0.75809691  1
  Te  Te90  1  0.73767207  0.09204544  0.09771682  1
  Te  Te91  1  0.71706467  0.11953329  0.45259321  1
  Te  Te92  1  0.75990826  0.10034204  0.71979095  1
  Te  Te93  1  0.75057547  0.40894506  0.11788176  1
  Te  Te94  1  0.77737836  0.36014720  0.46968110  1
  Te  Te95  1  0.77692321  0.43306530  0.72249915  1
  Te  Te96  1  0.77912993  0.75147535  0.08977529  1
  Te  Te97  1  0.75587359  0.76897015  0.41061144  1
  Te  Te98  1  0.75235011  0.75702976  0.74995862  1
  Te  Te99  1  0.08310266  0.25849668  0.29935264  1
  Te  Te100  1  0.08419895  0.25659006  0.55372413  1
  Te  Te101  1  0.08203659  0.25665371  0.90451988  1
  Te  Te102  1  0.12404177  0.57264328  0.26994641  1
  Te  Te103  1  0.08269847  0.57254817  0.54706199  1
  Te  Te104  1  0.09283880  0.58792286  0.91748867  1
  Te  Te105  1  0.05054711  0.93137124  0.26110587  1
  Te  Te106  1  0.07575183  0.93871638  0.56993325  1
  Te  Te107  1  0.05737779  0.91475675  0.93678155  1
  Te  Te108  1  0.41291538  0.24166095  0.22846944  1
  Te  Te109  1  0.43551172  0.23710792  0.59012437  1
  Te  Te110  1  0.40337399  0.26369037  0.90061868  1
  Te  Te111  1  0.40374465  0.59744671  0.28651559  1
  Te  Te112  1  0.40095237  0.57076367  0.56935192  1
  Te  Te113  1  0.41836901  0.57333373  0.89799401  1
  Te  Te114  1  0.42353025  0.91116598  0.25357782  1
  Te  Te115  1  0.41623265  0.92918546  0.57207371  1
  Te  Te116  1  0.38891482  0.93464836  0.92350472  1
  Te  Te117  1  0.75473517  0.24514126  0.27866110  1
  Te  Te118  1  0.78853383  0.22394926  0.54925182  1
  Te  Te119  1  0.74572221  0.23432339  0.90466824  1
  Te  Te120  1  0.75207167  0.57152761  0.29481060  1
  Te  Te121  1  0.76229434  0.58130428  0.54103835  1
  Te  Te122  1  0.74074021  0.59059038  0.93029310  1
  Te  Te123  1  0.77394052  0.93109965  0.24145621  1
  Te  Te124  1  0.74199959  0.93297798  0.57923350  1
  Te  Te125  1  0.76967110  0.91098982  0.93920850  1
  Te  Te126  1  0.22977816  0.25892379  0.10941276  1
  Te  Te127  1  0.22957616  0.22697578  0.39308966  1
  Te  Te128  1  0.25488229  0.24498382  0.73976321  1
  Te  Te129  1  0.27036727  0.58178628  0.09065069  1
  Te  Te130  1  0.19985422  0.61435819  0.42103880  1
  Te  Te131  1  0.24132936  0.58820403  0.75181452  1
  Te  Te132  1  0.22143018  0.91653000  0.06693321  1
  Te  Te133  1  0.23297443  0.92296304  0.42400756  1
  Te  Te134  1  0.23881117  0.91690338  0.73767821  1
  Te  Te135  1  0.56540494  0.24503926  0.06969948  1
  Te  Te136  1  0.60042265  0.22827853  0.43774116  1
  Te  Te137  1  0.60977774  0.28804669  0.72548281  1
  Te  Te138  1  0.60165485  0.57043351  0.12512087  1
  Te  Te139  1  0.56907150  0.57702208  0.44301117  1
  Te  Te140  1  0.58832643  0.58819265  0.73918741  1
  Te  Te141  1  0.58980359  0.90149362  0.08907448  1
  Te  Te142  1  0.58309554  0.91557014  0.40970733  1
  Te  Te143  1  0.59835883  0.90860762  0.74544932  1
  Te  Te144  1  0.92062237  0.26586820  0.06706980  1
  Te  Te145  1  0.90009822  0.23710205  0.43019098  1
  Te  Te146  1  0.92945661  0.25568821  0.70780800  1
  Te  Te147  1  0.92569575  0.56929351  0.07356657  1
  Te  Te148  1  0.96331382  0.56432295  0.43386321  1
  Te  Te149  1  0.92426249  0.57575901  0.71943481  1
  Te  Te150  1  0.96535598  0.88587186  0.07192292  1
  Te  Te151  1  0.90976489  0.91734694  0.41678404  1
  Te  Te152  1  0.91685926  0.92134333  0.74392201  1
  Te  Te153  1  0.22852960  0.09209388  0.24273176  1
  Te  Te154  1  0.24718598  0.08746745  0.57582550  1
  Te  Te155  1  0.24914105  0.09762778  0.90180147  1
  Te  Te156  1  0.23376702  0.42496971  0.28066172  1
  Te  Te157  1  0.24676242  0.39958923  0.56011890  1
  Te  Te158  1  0.23802323  0.42514966  0.93209022  1
  Te  Te159  1  0.26676579  0.75479146  0.25600168  1
  Te  Te160  1  0.26406184  0.76513527  0.56022340  1
  Te  Te161  1  0.22207593  0.76157076  0.93098560  1
  Te  Te162  1  0.58505847  0.07733054  0.26196223  1
  Te  Te163  1  0.59738201  0.08058655  0.62031762  1
  Te  Te164  1  0.57828917  0.08041566  0.90670264  1
  Te  Te165  1  0.60819688  0.39366983  0.29313152  1
  Te  Te166  1  0.60810273  0.44140551  0.56037409  1
  Te  Te167  1  0.59721969  0.42303438  0.93333366  1
  Te  Te168  1  0.57102216  0.75140165  0.25827551  1
  Te  Te169  1  0.57118293  0.72953074  0.58207414  1
  Te  Te170  1  0.57403775  0.73326916  0.91708188  1
  Te  Te171  1  0.90235497  0.09700454  0.25585443  1
  Te  Te172  1  0.93975766  0.06244198  0.58211844  1
  Te  Te173  1  0.91314556  0.07239248  0.90888581  1
  Te  Te174  1  0.90370129  0.43362116  0.27634002  1
  Te  Te175  1  0.87782553  0.45464489  0.52937967  1
  Te  Te176  1  0.90310010  0.41155028  0.90069939  1
  Te  Te177  1  0.94156419  0.71103095  0.25940339  1
  Te  Te178  1  0.93359902  0.73826183  0.58930596  1
  Te  Te179  1  0.91418227  0.74653654  0.90013325  1
