# generated using pymatgen
data_In2Te3
_symmetry_space_group_name_H-M   'P 1'
_cell_length_a   18.94987933
_cell_length_b   18.95338499
_cell_length_c   18.95208918
_cell_angle_alpha   90.09656677
_cell_angle_beta   90.03568311
_cell_angle_gamma   89.98573189
_symmetry_Int_Tables_number   1
_chemical_formula_structural   In2Te3
_chemical_formula_sum   'In72 Te108'
_cell_volume   6806.90375368
_cell_formula_units_Z   36
loop_
 _symmetry_equiv_pos_site_id
 _symmetry_equiv_pos_as_xyz
  1  'x, y, z'
loop_
 _atom_site_type_symbol
 _atom_site_label
 _atom_site_symmetry_multiplicity
 _atom_site_fract_x
 _atom_site_fract_y
 _atom_site_fract_z
 _atom_site_occupancy
  In  In0  1  0.81382839  0.16215836  0.65430925  1
  In  In1  1  0.51490717  0.50826533  0.67195655  1
  In  In2  1  -0.00589936  0.50836738  0.50849423  1
  In  In3  1  0.50960712  0.00488121  0.49610786  1
  In  In4  1  0.49408198  0.66995307  0.82249875  1
  In  In5  1  0.15525237  0.50534650  0.65581680  1
  In  In6  1  0.34855676  0.81354908  0.50697830  1
  In  In7  1  0.82036047  0.16742368  -0.00110176  1
  In  In8  1  0.16061094  -0.02810615  0.81845963  1
  In  In9  1  0.35976668  0.48958595  0.49264632  1
  In  In10  1  0.81725861  0.35064053  0.79479041  1
  In  In11  1  0.33459716  0.49123471  0.83604266  1
  In  In12  1  0.50096342  0.66957201  0.17256712  1
  In  In13  1  0.20959198  0.17292930  0.01752079  1
  In  In14  1  0.84127329  0.69602005  0.82228245  1
  In  In15  1  0.19767889  0.32111044  0.84876667  1
  In  In16  1  0.33905743  0.34778736  0.01287306  1
  In  In17  1  0.81546546  -0.10367980  0.77482029  1
  In  In18  1  0.32829738  -0.00636803  0.33620496  1
  In  In19  1  0.65089601  -0.02250156  0.67882706  1
  In  In20  1  0.45821782  0.00178976  0.00639436  1
  In  In21  1  0.84456519  0.66187922  0.15542245  1
  In  In22  1  0.17235923  -0.00311389  0.15956360  1
  In  In23  1  0.83146630  0.01131628  0.48060753  1
  In  In24  1  0.17114654  0.66240599  0.16416855  1
  In  In25  1  -0.00040909  0.35883365  0.00547455  1
  In  In26  1  0.49010282  0.83299727  0.69387216  1
  In  In27  1  -0.00587418  0.14907197  0.48305752  1
  In  In28  1  0.20102965  0.46090172  0.30019685  1
  In  In29  1  0.50973183  0.32744875  0.84515871  1
  In  In30  1  0.84768981  0.51168556  0.34647470  1
  In  In31  1  0.65900911  0.14891183  0.83036342  1
  In  In32  1  0.31206922  0.82924924  0.15796089  1
  In  In33  1  0.51008427  0.65629416  0.50434673  1
  In  In34  1  0.16689956  0.82137161  0.00976978  1
  In  In35  1  0.00303264  0.51805650  0.15415564  1
  In  In36  1  -0.01045662  0.67198277  0.33403176  1
  In  In37  1  0.48370172  0.16763202  0.67422114  1
  In  In38  1  0.65007821  0.34513444  0.34777551  1
  In  In39  1  0.00953047  0.14092063  0.85344076  1
  In  In40  1  0.01175732  0.52368025  0.84516543  1
  In  In41  1  0.80504184  0.83343310  0.33725117  1
  In  In42  1  -0.00162176  0.31903179  0.34551613  1
  In  In43  1  0.49282134  0.31631929  0.15504713  1
  In  In44  1  -0.00334665  0.33216740  0.67430948  1
  In  In45  1  0.16265328  0.16669028  0.34706618  1
  In  In46  1  0.81162384  0.52339875  0.67273696  1
  In  In47  1  0.31792770  0.16517030  0.51647297  1
  In  In48  1  0.49628733  0.82994396  0.34745911  1
  In  In49  1  0.84354223  0.16975164  0.33305557  1
  In  In50  1  0.17836835  0.32480801  0.49617100  1
  In  In51  1  0.32322762  0.66277180  0.00428457  1
  In  In52  1  0.48660472  0.50310560  0.31817463  1
  In  In53  1  0.33774446  0.15998555  0.82645775  1
  In  In54  1  0.84455130  0.84308570  -0.00927645  1
  In  In55  1  0.66695267  0.35770458  0.00466411  1
  In  In56  1  0.16727988  0.64973634  0.48273250  1
  In  In57  1  0.17273531  0.15857870  0.68773359  1
  In  In58  1  -0.00600228  -0.00155143  0.02179906  1
  In  In59  1  0.64733100  0.83926965  0.49590262  1
  In  In60  1  0.16566696  0.83499785  0.33881050  1
  In  In61  1  0.66143453  0.00176564  0.00108101  1
  In  In62  1  0.64050201  0.15469375  0.17892241  1
  In  In63  1  0.16976583  0.66952253  0.84182597  1
  In  In64  1  0.66445709  0.68066792  -0.03467753  1
  In  In65  1  0.82250634  0.34030283  0.15057831  1
  In  In66  1  0.66820142  0.85137108  0.17425240  1
  In  In67  1  0.66199985  0.50679490  0.51478857  1
  In  In68  1  -0.00257641  -0.00444169  0.32441613  1
  In  In69  1  0.14761807  0.82805994  0.66058111  1
  In  In70  1  0.66759039  0.20055804  0.49673345  1
  In  In71  1  0.68437896  0.51891530  0.15612907  1
  Te  Te72  1  0.09249781  0.09945666  0.08197741  1
  Te  Te73  1  0.09619264  0.05443625  0.42555024  1
  Te  Te74  1  0.06627659  0.06326921  0.73767078  1
  Te  Te75  1  0.09232880  0.41416073  0.10323230  1
  Te  Te76  1  0.08444559  0.42098090  0.42195196  1
  Te  Te77  1  0.09696567  0.40768245  0.76023249  1
  Te  Te78  1  0.07489773  0.74717755  0.09558231  1
  Te  Te79  1  0.07301271  0.75689794  0.42917922  1
  Te  Te80  1  0.07191838  0.75365439  0.76744998  1
  Te  Te81  1  0.41426046  0.10435840  0.10464460  1
  Te  Te82  1  0.41276806  0.08864237  0.41808071  1
  Te  Te83  1  0.41213730  0.06330332  0.74617654  1
  Te  Te84  1  0.45429442  0.42483931  0.06257239  1
  Te  Te85  1  0.43559000  0.39767675  0.40614091  1
  Te  Te86  1  0.42499369  0.40897952  0.74862571  1
  Te  Te87  1  0.41795964  0.75634353  0.07886535  1
  Te  Te88  1  0.41135607  0.71974861  0.40613541  1
  Te  Te89  1  0.39016545  0.73978761  0.74488513  1
  Te  Te90  1  0.74816327  0.08017865  0.09914785  1
  Te  Te91  1  0.73287033  0.09613443  0.40394295  1
  Te  Te92  1  0.76051112  0.06334581  0.75710201  1
  Te  Te93  1  0.77636025  0.44953890  0.05696266  1
  Te  Te94  1  0.75666358  0.41985884  0.42437553  1
  Te  Te95  1  0.71340055  0.44228409  0.74877889  1
  Te  Te96  1  0.74119590  0.74934850  0.08333462  1
  Te  Te97  1  0.74259985  0.74437530  0.43624481  1
  Te  Te98  1  0.75255644  0.77217817  0.72989918  1
  Te  Te99  1  0.08054750  0.24322998  0.25265228  1
  Te  Te100  1  0.07887472  0.24342590  0.57921722  1
  Te  Te101  1  0.08892190  0.24912733  0.92617972  1
  Te  Te102  1  0.08589245  0.57380249  0.27084337  1
  Te  Te103  1  0.06720635  0.61077203  0.59301077  1
  Te  Te104  1  0.10049117  0.58662417  0.94199534  1
  Te  Te105  1  0.08072628  0.90349207  0.23443363  1
  Te  Te106  1  0.02682403  0.88739727  0.59671930  1
  Te  Te107  1  0.07483029  0.91040040  0.92859046  1
  Te  Te108  1  0.42661047  0.20434910  0.22638925  1
  Te  Te109  1  0.41791148  0.25311788  0.57665087  1
  Te  Te110  1  0.41245778  0.24456285  0.92674247  1
  Te  Te111  1  0.39871449  0.57387092  0.22245641  1
  Te  Te112  1  0.41017815  0.58920088  0.59510738  1
  Te  Te113  1  0.42028312  0.57981670  0.92241805  1
  Te  Te114  1  0.41168286  0.90504682  0.24651210  1
  Te  Te115  1  0.42315993  0.92030985  0.58473514  1
  Te  Te116  1  0.45527292  0.89326164  0.90470834  1
  Te  Te117  1  0.74230289  0.25661978  0.24740254  1
  Te  Te118  1  0.74566660  0.27581633  0.59563000  1
  Te  Te119  1  0.74728608  0.26066047  0.90405695  1
  Te  Te120  1  0.75646781  0.59885219  0.26263618  1
  Te  Te121  1  0.74365780  0.61238551  0.57747508  1
  Te  Te122  1  0.75041947  0.59477946  0.88467459  1
  Te  Te123  1  0.75070093  0.94194003  0.25480198  1
  Te  Te124  1  0.74673396  0.92463815  0.57353519  1
  Te  Te125  1  0.73464443  0.90645649  0.90919850  1
  Te  Te126  1  0.25479702  0.27594558  0.11643059  1
  Te  Te127  1  0.27044388  0.26010376  0.39824060  1
  Te  Te128  1  0.27295577  0.26237378  0.73275848  1
  Te  Te129  1  0.27130921  0.56954687  0.10825477  1
  Te  Te130  1  0.25903914  0.55922536  0.40188985  1
  Te  Te131  1  0.25021365  0.58071179  0.74727387  1
  Te  Te132  1  0.26371622  0.93223928  0.05812873  1
  Te  Te133  1  0.25217461  0.91003782  0.43781679  1
  Te  Te134  1  0.25371380  0.90456167  0.72885040  1
  Te  Te135  1  0.59155291  0.24158114  0.06421952  1
  Te  Te136  1  0.56587338  0.23706537  0.39729675  1
  Te  Te137  1  0.59256575  0.25110785  0.74218936  1
  Te  Te138  1  0.58814545  0.59708656  0.07105347  1
  Te  Te139  1  0.58759802  0.57985006  0.39985180  1
  Te  Te140  1  0.60246437  0.59275388  0.75608051  1
  Te  Te141  1  0.56657890  0.92011661  0.08651006  1
  Te  Te142  1  0.59424683  0.93713088  0.39114413  1
  Te  Te143  1  0.55996399  0.92989006  0.78637632  1
  Te  Te144  1  0.91945751  0.24907097  0.07905834  1
  Te  Te145  1  0.89874256  0.25983641  0.44242786  1
  Te  Te146  1  0.91994630  0.23313919  0.76091913  1
  Te  Te147  1  0.92455305  0.59104964  0.05444953  1
  Te  Te148  1  0.90396521  0.61260267  0.44509952  1
  Te  Te149  1  0.92913220  0.59223213  0.74128165  1
  Te  Te150  1  0.90035148  0.92078205  0.10188147  1
  Te  Te151  1  0.91787839  0.90599411  0.41631352  1
  Te  Te152  1  0.96369320  0.88134241  0.75850540  1
  Te  Te153  1  0.25195822  0.08951070  0.24769836  1
  Te  Te154  1  0.23500241  0.07006100  0.59004019  1
  Te  Te155  1  0.23713751  0.07832028  0.90426294  1
  Te  Te156  1  0.29307981  0.37064712  0.23469534  1
  Te  Te157  1  0.25674725  0.41846953  0.58448612  1
  Te  Te158  1  0.23688045  0.43508870  0.93808387  1
  Te  Te159  1  0.25586436  0.73889180  0.26560131  1
  Te  Te160  1  0.24584147  0.73252875  0.58144302  1
  Te  Te161  1  0.26628117  0.76672153  0.90930438  1
  Te  Te162  1  0.52035033  0.07874678  0.22035916  1
  Te  Te163  1  0.59881183  0.08796051  0.58854800  1
  Te  Te164  1  0.56165480  0.08984668  0.92626738  1
  Te  Te165  1  0.59399807  0.41898752  0.22549419  1
  Te  Te166  1  0.55697424  0.41736598  0.56365611  1
  Te  Te167  1  0.57392475  0.43540127  0.92297274  1
  Te  Te168  1  0.59327029  0.75041260  0.26190071  1
  Te  Te169  1  0.57892818  0.75191788  0.59869328  1
  Te  Te170  1  0.55438588  0.77206247  0.91794423  1
  Te  Te171  1  0.93698638  0.10219500  0.24415862  1
  Te  Te172  1  0.91818732  0.07246850  0.58988667  1
  Te  Te173  1  0.89854029  0.06365677  0.91981545  1
  Te  Te174  1  0.91435180  0.41453781  0.24870735  1
  Te  Te175  1  0.90644521  0.42242310  0.59563962  1
  Te  Te176  1  0.91480554  0.41723652  0.89375152  1
  Te  Te177  1  0.91137491  0.76338629  0.24525951  1
  Te  Te178  1  0.90572902  0.80693536  0.64324289  1
  Te  Te179  1  0.93208300  0.74435188  0.92945331  1
