# generated using pymatgen
data_In2Te3
_symmetry_space_group_name_H-M   'P 1'
_cell_length_a   18.95042770
_cell_length_b   18.97750454
_cell_length_c   18.96119822
_cell_angle_alpha   90.19205286
_cell_angle_beta   89.97622080
_cell_angle_gamma   90.09230299
_symmetry_Int_Tables_number   1
_chemical_formula_structural   In2Te3
_chemical_formula_sum   'In72 Te108'
_cell_volume   6819.00264319
_cell_formula_units_Z   36
loop_
 _symmetry_equiv_pos_site_id
 _symmetry_equiv_pos_as_xyz
  1  'x, y, z'
loop_
 _atom_site_type_symbol
 _atom_site_label
 _atom_site_symmetry_multiplicity
 _atom_site_fract_x
 _atom_site_fract_y
 _atom_site_fract_z
 _atom_site_occupancy
  In  In0  1  0.30500460  0.34240310  -0.00258245  1
  In  In1  1  0.83505126  0.16556123  -0.00821513  1
  In  In2  1  0.51908123  0.81868651  0.69049738  1
  In  In3  1  0.69692752  0.49982264  0.48807092  1
  In  In4  1  0.50628632  0.82385774  -0.00738510  1
  In  In5  1  0.32638595  0.65463986  0.34016339  1
  In  In6  1  0.68508791  0.70379035  0.31184270  1
  In  In7  1  0.31710795  0.00428452  0.66865328  1
  In  In8  1  0.29083204  0.13862196  0.18504914  1
  In  In9  1  0.16677528  0.18209233  0.66196759  1
  In  In10  1  0.13937068  0.48371593  0.68721642  1
  In  In11  1  0.83178027  0.49185471  0.33377010  1
  In  In12  1  0.15941328  0.84382494  0.68867047  1
  In  In13  1  0.01030113  0.84225969  0.49364831  1
  In  In14  1  0.50988570  0.67111607  0.50229619  1
  In  In15  1  0.67279529  0.64721536  0.68645596  1
  In  In16  1  0.84658589  0.33599338  0.18740162  1
  In  In17  1  0.69611113  0.83755016  0.83145398  1
  In  In18  1  0.47240195  0.33154899  0.84554129  1
  In  In19  1  0.35070163  0.82549843  0.17300740  1
  In  In20  1  0.67812491  0.34324601  0.65862281  1
  In  In21  1  0.50393559  0.49067707  0.34851355  1
  In  In22  1  0.31387539  0.00072995  -0.00440929  1
  In  In23  1  0.31666892  0.19823376  0.50168897  1
  In  In24  1  0.85943424  0.64501118  0.13658343  1
  In  In25  1  0.29535817  0.66579207  -0.02538641  1
  In  In26  1  0.68110477  0.18017206  0.50712183  1
  In  In27  1  0.68302106  0.00794164  -0.02943501  1
  In  In28  1  0.87305829  0.50394174  -0.03968864  1
  In  In29  1  0.47358185  0.47444818  0.67852849  1
  In  In30  1  0.69074199  0.87463658  0.49707274  1
  In  In31  1  0.85164982  0.49175750  0.67751774  1
  In  In32  1  0.85208229  0.86611776  0.34525930  1
  In  In33  1  0.67896958  0.34357512  -0.00832036  1
  In  In34  1  0.14899470  -0.00237871  0.19925476  1
  In  In35  1  0.35075866  0.81770118  0.53034102  1
  In  In36  1  0.30385072  0.64700411  0.68277586  1
  In  In37  1  0.49759890  0.32299949  0.50865395  1
  In  In38  1  0.01355448  0.33174685  -0.01550472  1
  In  In39  1  0.16646299  0.50087788  0.33762661  1
  In  In40  1  -0.01216087  0.31626235  0.34533319  1
  In  In41  1  0.18507921  0.81710874  0.33219387  1
  In  In42  1  0.14093983  0.84811806  -0.00441053  1
  In  In43  1  0.65007839  0.49089242  0.15385981  1
  In  In44  1  0.52011866  0.65149625  0.16654794  1
  In  In45  1  0.65308213  0.17708476  0.82238723  1
  In  In46  1  0.31822858  0.46421390  0.53265416  1
  In  In47  1  0.86010684  0.67526911  0.84586625  1
  In  In48  1  -0.00076519  0.31103416  0.64273735  1
  In  In49  1  0.65927420  0.00399428  0.31856107  1
  In  In50  1  0.00559816  0.67106914  0.32647905  1
  In  In51  1  0.00344816  0.50402792  0.48679427  1
  In  In52  1  0.50465204  0.51824957  -0.00527424  1
  In  In53  1  -0.01262093  0.84297522  0.14630625  1
  In  In54  1  0.29156549  0.16800305  0.84523509  1
  In  In55  1  -0.00210089  0.00832506  0.66402708  1
  In  In56  1  0.27369490  0.01734562  0.33688944  1
  In  In57  1  0.85655345  -0.01415392  0.82073122  1
  In  In58  1  0.49646404  0.33672514  0.19169959  1
  In  In59  1  0.46842083  0.66655660  0.84399290  1
  In  In60  1  0.15100612  0.33908048  0.17575482  1
  In  In61  1  0.48667724  0.15656072  0.33361823  1
  In  In62  1  0.30381026  0.50299834  0.13554858  1
  In  In63  1  0.48959267  0.02178707  0.83950657  1
  In  In64  1  0.67993514  0.00850365  0.64347715  1
  In  In65  1  0.68491135  0.20400911  0.16406700  1
  In  In66  1  0.69751919  0.81440338  0.16053788  1
  In  In67  1  0.00772431  0.18845013  0.81546286  1
  In  In68  1  0.01249381  0.68874947  0.67091509  1
  In  In69  1  0.86544071  0.12213162  0.33142343  1
  In  In70  1  0.48460581  -0.02162906  0.15822886  1
  In  In71  1  0.52270155  0.01520611  0.49879209  1
  Te  Te72  1  0.05693482  0.06644483  0.10628339  1
  Te  Te73  1  0.12842654  0.05616305  0.33991813  1
  Te  Te74  1  0.09642412  0.08224498  0.75172603  1
  Te  Te75  1  0.08510103  0.42624433  0.07521430  1
  Te  Te76  1  0.09494691  0.39764721  0.42575366  1
  Te  Te77  1  0.04821973  0.39090050  0.76078924  1
  Te  Te78  1  0.07438822  0.74644580  0.07899939  1
  Te  Te79  1  0.09936804  0.73510318  0.42629679  1
  Te  Te80  1  0.09989286  0.74121140  0.78153446  1
  Te  Te81  1  0.40169312  0.08265512  0.08909565  1
  Te  Te82  1  0.40216291  0.07881115  0.43119922  1
  Te  Te83  1  0.39827063  0.10222371  0.75217116  1
  Te  Te84  1  0.42313103  0.42100153  0.08229587  1
  Te  Te85  1  0.40402488  0.40311978  0.41907436  1
  Te  Te86  1  0.37655045  0.41105123  0.76650925  1
  Te  Te87  1  0.41911177  0.72659812  0.07185945  1
  Te  Te88  1  0.42126524  0.75092218  0.40911312  1
  Te  Te89  1  0.39460381  0.75655872  0.74835262  1
  Te  Te90  1  0.74493207  0.08899179  0.08666375  1
  Te  Te91  1  0.74538243  0.07320508  0.42132526  1
  Te  Te92  1  0.74837181  0.07630676  0.76059693  1
  Te  Te93  1  0.76868965  0.42334351  0.08554914  1
  Te  Te94  1  0.77261965  0.39285646  0.42480085  1
  Te  Te95  1  0.74115277  0.43373919  0.75488323  1
  Te  Te96  1  0.78350085  0.74802700  0.06330352  1
  Te  Te97  1  0.76696438  0.76534934  0.42410587  1
  Te  Te98  1  0.77369637  0.74762332  0.73953718  1
  Te  Te99  1  0.05462706  0.24198512  0.23539454  1
  Te  Te100  1  0.06227404  0.20599324  0.55831131  1
  Te  Te101  1  0.09823314  0.22247763  0.92936895  1
  Te  Te102  1  0.08611447  0.58011735  0.24559160  1
  Te  Te103  1  0.08642299  0.58176575  0.58506165  1
  Te  Te104  1  0.13342815  0.55287938  0.91090190  1
  Te  Te105  1  0.06818563  0.88834011  0.26973159  1
  Te  Te106  1  0.09934231  0.93086858  0.57938222  1
  Te  Te107  1  0.03923070  0.90969219  0.90585608  1
  Te  Te108  1  0.39600574  0.24023109  0.24747380  1
  Te  Te109  1  0.41010876  0.25197714  0.60029775  1
  Te  Te110  1  0.39593387  0.23763044  0.93589191  1
  Te  Te111  1  0.42092679  0.56899096  0.24682331  1
  Te  Te112  1  0.41249849  0.58908899  0.58435425  1
  Te  Te113  1  0.38525050  0.55945107  0.91119825  1
  Te  Te114  1  0.39126215  0.93716324  0.26825207  1
  Te  Te115  1  0.44461012  0.92068598  0.59626055  1
  Te  Te116  1  0.41382059  0.91413278  0.91481349  1
  Te  Te117  1  0.77525772  0.23806875  0.27765846  1
  Te  Te118  1  0.77125797  0.23871567  0.60940118  1
  Te  Te119  1  0.75919144  0.25726252  0.89678211  1
  Te  Te120  1  0.74622432  0.58434436  0.23820370  1
  Te  Te121  1  0.76908202  0.58846958  0.58558874  1
  Te  Te122  1  0.76333335  0.57606477  0.89613085  1
  Te  Te123  1  0.76272255  0.92749652  0.23840980  1
  Te  Te124  1  0.78647009  0.90915214  0.60719756  1
  Te  Te125  1  0.78696147  0.90528571  0.93249202  1
  Te  Te126  1  0.23494047  0.24456865  0.08952676  1
  Te  Te127  1  0.21953855  0.28007645  0.42780965  1
  Te  Te128  1  0.23970820  0.27263693  0.75466862  1
  Te  Te129  1  0.20526545  0.58694609  0.06316808  1
  Te  Te130  1  0.25416007  0.57149336  0.44119927  1
  Te  Te131  1  0.22113552  0.57135030  0.78101165  1
  Te  Te132  1  0.24787229  0.91331518  0.10370096  1
  Te  Te133  1  0.26308207  0.89787072  0.43384586  1
  Te  Te134  1  0.24386851  0.93236308  0.77130533  1
  Te  Te135  1  0.57815983  0.26975014  0.08067159  1
  Te  Te136  1  0.58269598  0.24592254  0.40945726  1
  Te  Te137  1  0.57014948  0.27324695  0.74190575  1
  Te  Te138  1  0.61414922  0.60309795  0.05768170  1
  Te  Te139  1  0.59862926  0.60156291  0.39861775  1
  Te  Te140  1  0.55700790  0.57869896  0.75441900  1
  Te  Te141  1  0.59654292  0.91970221  0.06910609  1
  Te  Te142  1  0.57602745  0.90944611  0.40362538  1
  Te  Te143  1  0.59223374  0.93271859  0.76367552  1
  Te  Te144  1  0.91779375  0.25646389  0.08066731  1
  Te  Te145  1  0.93866613  0.20476285  0.43100974  1
  Te  Te146  1  0.90169274  0.22762192  0.71933000  1
  Te  Te147  1  0.95839949  0.59152576  0.04247968  1
  Te  Te148  1  0.90707125  0.59559536  0.41536375  1
  Te  Te149  1  0.94288474  0.58297128  0.75681750  1
  Te  Te150  1  0.93488587  0.96843529  0.08865849  1
  Te  Te151  1  0.92826778  0.95624099  0.43623637  1
  Te  Te152  1  0.95778620  0.89476036  0.75797187  1
  Te  Te153  1  0.20717025  0.19406235  0.30543141  1
  Te  Te154  1  0.23984214  0.08337641  0.56739890  1
  Te  Te155  1  0.20923611  0.09036219  0.94281954  1
  Te  Te156  1  0.26103052  0.41732650  0.25012206  1
  Te  Te157  1  0.22217800  0.38586930  0.61020202  1
  Te  Te158  1  0.18472533  0.41752015  0.93947695  1
  Te  Te159  1  0.25107024  0.72545368  0.22967340  1
  Te  Te160  1  0.23433582  0.74550146  0.59228094  1
  Te  Te161  1  0.23639272  0.77835119  0.90380925  1
  Te  Te162  1  0.57606328  0.09267785  0.22702621  1
  Te  Te163  1  0.57852910  0.11192123  0.59983838  1
  Te  Te164  1  0.57410560  0.10696749  0.93264737  1
  Te  Te165  1  0.60560522  0.40623006  0.27171686  1
  Te  Te166  1  0.58129187  0.44211642  0.56768864  1
  Te  Te167  1  0.58086445  0.42184032  0.90676840  1
  Te  Te168  1  0.57167099  0.77468291  0.23797630  1
  Te  Te169  1  0.60752468  0.75642676  0.58342890  1
  Te  Te170  1  0.59262034  0.74599314  0.89597960  1
  Te  Te171  1  0.93423477  0.06472629  0.21387222  1
  Te  Te172  1  0.87993740  0.02972189  0.57746387  1
  Te  Te173  1  0.93076865  0.08790074  0.90554817  1
  Te  Te174  1  0.94246644  0.43375660  0.25026211  1
  Te  Te175  1  0.91347430  0.41095874  0.56471116  1
  Te  Te176  1  0.93401265  0.39808672  0.87650646  1
  Te  Te177  1  0.90197794  0.75133771  0.24776082  1
  Te  Te178  1  0.92495854  0.75538259  0.57438317  1
  Te  Te179  1  0.96923919  0.77509976  0.88321087  1
