# generated using pymatgen
data_In2Te3
_symmetry_space_group_name_H-M   'P 1'
_cell_length_a   18.91351778
_cell_length_b   18.90868407
_cell_length_c   18.90485018
_cell_angle_alpha   89.89462267
_cell_angle_beta   89.82712071
_cell_angle_gamma   89.91817566
_symmetry_Int_Tables_number   1
_chemical_formula_structural   In2Te3
_chemical_formula_sum   'In72 Te108'
_cell_volume   6760.88745826
_cell_formula_units_Z   36
loop_
 _symmetry_equiv_pos_site_id
 _symmetry_equiv_pos_as_xyz
  1  'x, y, z'
loop_
 _atom_site_type_symbol
 _atom_site_label
 _atom_site_symmetry_multiplicity
 _atom_site_fract_x
 _atom_site_fract_y
 _atom_site_fract_z
 _atom_site_occupancy
  In  In0  1  0.84152379  0.71569348  0.19982523  1
  In  In1  1  -0.03457860  0.15135047  0.13566638  1
  In  In2  1  0.65878123  -0.00081992  0.67455484  1
  In  In3  1  0.14077091  -0.00666497  0.50108366  1
  In  In4  1  0.48216024  0.32481697  0.85840292  1
  In  In5  1  0.34178617  0.16722077  0.49613638  1
  In  In6  1  0.17818315  0.48020261  0.68594620  1
  In  In7  1  0.80797279  0.51858294  0.64826555  1
  In  In8  1  0.82851039  0.83881086  0.67623302  1
  In  In9  1  0.01052857  0.67505949  0.68296367  1
  In  In10  1  0.13303934  -0.00027201  0.15929559  1
  In  In11  1  0.00694724  0.50345314  0.83224702  1
  In  In12  1  0.52121567  0.15850759  0.31707631  1
  In  In13  1  0.68123788  0.34930976  -0.02451650  1
  In  In14  1  0.50726124  0.16738821  -0.02067048  1
  In  In15  1  0.52305525  0.70118400  0.84782434  1
  In  In16  1  0.85072354  0.50995331  0.31975255  1
  In  In17  1  0.15440306  0.49907096  0.32687776  1
  In  In18  1  0.80218962  0.68351866  0.84114436  1
  In  In19  1  -0.01431057  0.84337662  0.50108775  1
  In  In20  1  0.84602485  0.81913449  -0.00339207  1
  In  In21  1  0.49695066  0.50598954  0.01893392  1
  In  In22  1  0.15788896  0.68643469  0.50449825  1
  In  In23  1  0.36675186  0.16789605  0.15503300  1
  In  In24  1  0.84079461  0.33241954  0.50087464  1
  In  In25  1  -0.01011507  -0.00970641  0.68403776  1
  In  In26  1  0.78797241  0.12147405  0.34408278  1
  In  In27  1  0.52794348  0.49205727  0.35248709  1
  In  In28  1  0.80825824  -0.03464061  0.15599324  1
  In  In29  1  0.68336999  0.69629049  0.35611104  1
  In  In30  1  0.33385246  0.67812608  0.01817228  1
  In  In31  1  0.35880353  0.66291217  0.34818458  1
  In  In32  1  0.34458070  0.50395003  0.52685246  1
  In  In33  1  0.00813380  0.31428695  0.33202484  1
  In  In34  1  0.66678403  0.52119936  0.13515335  1
  In  In35  1  0.15186322  0.66682433  0.16223919  1
  In  In36  1  0.16635438  0.17082853  0.66106453  1
  In  In37  1  0.47586077  0.31590713  0.17954472  1
  In  In38  1  0.32495151  -0.01240608  0.33544560  1
  In  In39  1  -0.02558316  -0.06361646  0.30382020  1
  In  In40  1  0.55569178  0.02146607  0.51033562  1
  In  In41  1  0.36057120  0.02974860  0.69767730  1
  In  In42  1  0.31826181  0.51085076  0.19537296  1
  In  In43  1  0.82625992  0.15410156  0.67415789  1
  In  In44  1  -0.03080850  0.00876206  -0.03320110  1
  In  In45  1  0.68006097  0.15801955  0.82158536  1
  In  In46  1  0.66826652  0.31703809  0.32548279  1
  In  In47  1  0.00058434  0.16113009  0.51381547  1
  In  In48  1  -0.00720110  0.49472028  0.15692540  1
  In  In49  1  0.15587589  0.28902878  0.86293781  1
  In  In50  1  0.33671026  0.49198990  0.83164792  1
  In  In51  1  0.83345142  0.31630178  0.81795712  1
  In  In52  1  0.67651500  0.53418412  0.49397044  1
  In  In53  1  0.31567918  0.85937883  0.52405075  1
  In  In54  1  0.50017681  0.52970396  0.68459859  1
  In  In55  1  0.67058695  0.33717213  0.65695521  1
  In  In56  1  0.54831083  -0.03899628  0.12526192  1
  In  In57  1  0.83452117  0.51876639  -0.00673886  1
  In  In58  1  0.18091096  0.15349029  0.34657261  1
  In  In59  1  0.47787580  0.33527725  0.51692928  1
  In  In60  1  0.51230013  0.85235878  0.34473525  1
  In  In61  1  -0.02797105  0.51606746  0.50443732  1
  In  In62  1  0.52564389  0.82246563  0.64618888  1
  In  In63  1  0.34776141  0.31241999  -0.02550338  1
  In  In64  1  0.14812861  0.32103968  0.14370842  1
  In  In65  1  0.66605851  0.15141339  0.14115093  1
  In  In66  1  0.15615900  0.83182317  -0.00385763  1
  In  In67  1  0.16189652  0.64497734  0.84166841  1
  In  In68  1  0.18458210  0.03302789  0.84567100  1
  In  In69  1  0.32115484  0.83296234  0.15516845  1
  In  In70  1  0.49071547  0.70812059  0.15700540  1
  In  In71  1  0.36437608  0.85904939  0.83296933  1
  Te  Te72  1  0.07670641  0.09103342  0.05052194  1
  Te  Te73  1  0.06290308  0.07407249  0.39953402  1
  Te  Te74  1  0.07644455  0.09369065  0.75603252  1
  Te  Te75  1  0.07812545  0.42066809  0.06193434  1
  Te  Te76  1  0.06463609  0.42174026  0.42163757  1
  Te  Te77  1  0.08466459  0.39218911  0.76538231  1
  Te  Te78  1  0.07001364  0.72751369  0.05576218  1
  Te  Te79  1  0.05973358  0.74629838  0.41680092  1
  Te  Te80  1  0.09064146  0.75520997  0.77441200  1
  Te  Te81  1  0.44445030  0.06483972  0.07427575  1
  Te  Te82  1  0.43086180  0.06723164  0.40935333  1
  Te  Te83  1  0.45110378  0.06712655  0.80860699  1
  Te  Te84  1  0.39511513  0.41435350  0.08765043  1
  Te  Te85  1  0.41049206  0.42012750  0.40844824  1
  Te  Te86  1  0.42482845  0.40913512  0.74130070  1
  Te  Te87  1  0.43115634  0.79783897  0.04085777  1
  Te  Te88  1  0.41066169  0.77829944  0.42976578  1
  Te  Te89  1  0.42341681  0.75283685  0.74420819  1
  Te  Te90  1  0.75632617  0.06746976  0.06179332  1
  Te  Te91  1  0.68479539  0.06612341  0.43210695  1
  Te  Te92  1  0.79187712  0.05665856  0.78803657  1
  Te  Te93  1  0.76022680  0.41255154  0.08685087  1
  Te  Te94  1  0.74880985  0.41748197  0.41183940  1
  Te  Te95  1  0.74526666  0.42595027  0.75329701  1
  Te  Te96  1  0.75153849  0.74348320  0.08671191  1
  Te  Te97  1  0.79326543  0.78805959  0.39340372  1
  Te  Te98  1  0.71951851  0.77267672  0.75625016  1
  Te  Te99  1  0.08159646  0.21908777  0.23767982  1
  Te  Te100  1  0.09515671  0.25922217  0.56493776  1
  Te  Te101  1  0.04185396  0.23469742  0.94950539  1
  Te  Te102  1  0.05858230  0.59109340  0.25687664  1
  Te  Te103  1  0.08608535  0.56979724  0.59318781  1
  Te  Te104  1  0.06686619  0.58706845  0.93849631  1
  Te  Te105  1  0.09966575  0.88097592  0.24041579  1
  Te  Te106  1  0.08419647  0.89916162  0.60457080  1
  Te  Te107  1  0.08583686  0.93006971  0.90393625  1
  Te  Te108  1  0.39584592  0.24172624  0.28389426  1
  Te  Te109  1  0.42870389  0.22374966  0.60131895  1
  Te  Te110  1  0.38109729  0.19441386  0.87179017  1
  Te  Te111  1  0.44471661  0.58133168  0.24196111  1
  Te  Te112  1  0.43203779  0.60658196  0.58007326  1
  Te  Te113  1  0.41633012  0.59129025  0.91604999  1
  Te  Te114  1  0.42065537  0.91694165  0.23631419  1
  Te  Te115  1  0.42545086  0.93750208  0.59407104  1
  Te  Te116  1  0.42393711  0.92143870  0.95024508  1
  Te  Te117  1  0.75466638  0.23041103  0.23725786  1
  Te  Te118  1  0.74516090  0.23711286  0.57021521  1
  Te  Te119  1  0.76471812  0.23233351  0.92820653  1
  Te  Te120  1  0.72970130  0.58236106  0.25797776  1
  Te  Te121  1  0.72521502  0.63500965  0.59316790  1
  Te  Te122  1  0.72581833  0.58428537  0.91965209  1
  Te  Te123  1  0.76577715  0.86375416  0.25896242  1
  Te  Te124  1  0.75655164  0.93342108  0.58715265  1
  Te  Te125  1  0.73952995  0.90372158  0.93207379  1
  Te  Te126  1  0.25720886  0.23411770  0.07298997  1
  Te  Te127  1  0.23543388  0.25325945  0.43794218  1
  Te  Te128  1  0.24922405  0.24911912  0.75571210  1
  Te  Te129  1  0.24247798  0.57282380  0.07977073  1
  Te  Te130  1  0.24857306  0.58056801  0.41634495  1
  Te  Te131  1  0.26492826  0.59071728  0.74198295  1
  Te  Te132  1  0.24192086  0.93176267  0.07264296  1
  Te  Te133  1  0.22361961  0.90315783  0.40853870  1
  Te  Te134  1  0.25813863  0.93226498  0.75362902  1
  Te  Te135  1  0.57753834  0.26704422  0.07040332  1
  Te  Te136  1  0.57284370  0.25382792  0.42325642  1
  Te  Te137  1  0.58881306  0.26420968  0.76364701  1
  Te  Te138  1  0.58047070  0.62459876  0.06376453  1
  Te  Te139  1  0.56916676  0.61894986  0.42315255  1
  Te  Te140  1  0.59755386  0.60407976  0.76475101  1
  Te  Te141  1  0.63966934  0.86835241  0.05084713  1
  Te  Te142  1  0.61681505  0.90802664  0.43293872  1
  Te  Te143  1  0.57916186  0.90551811  0.75745495  1
  Te  Te144  1  0.94741229  0.27529602  0.05824392  1
  Te  Te145  1  0.90133501  0.22898768  0.40535528  1
  Te  Te146  1  0.92697183  0.24392084  0.73102148  1
  Te  Te147  1  0.89596576  0.59990691  0.10510254  1
  Te  Te148  1  0.88615039  0.60444920  0.42519079  1
  Te  Te149  1  0.90293069  0.58297643  0.75002667  1
  Te  Te150  1  0.93233958  0.91456330  0.07925144  1
  Te  Te151  1  0.88234564  0.92082858  0.42281929  1
  Te  Te152  1  0.92153675  0.89697939  0.77621101  1
  Te  Te153  1  0.25557708  0.07580108  0.23155963  1
  Te  Te154  1  0.24836377  0.06926053  0.57624195  1
  Te  Te155  1  0.26198099  0.11533077  0.93854138  1
  Te  Te156  1  0.23566673  0.39685587  0.24943443  1
  Te  Te157  1  0.26488818  0.40347198  0.59588130  1
  Te  Te158  1  0.24485953  0.40796810  0.91632173  1
  Te  Te159  1  0.26192653  0.73016904  0.24951434  1
  Te  Te160  1  0.24703945  0.75278023  0.59760940  1
  Te  Te161  1  0.25991195  0.75541919  0.91028808  1
  Te  Te162  1  0.59803014  0.05300296  0.23625472  1
  Te  Te163  1  0.57330476  0.11109310  0.62625869  1
  Te  Te164  1  0.58737193  0.06911665  0.90203784  1
  Te  Te165  1  0.58744610  0.41242977  0.23290196  1
  Te  Te166  1  0.58802637  0.43448251  0.57176314  1
  Te  Te167  1  0.57430080  0.43489385  0.90917351  1
  Te  Te168  1  0.59397467  0.76728542  0.24862424  1
  Te  Te169  1  0.62079212  0.74815434  0.56387868  1
  Te  Te170  1  0.62072886  0.80272151  0.90566255  1
  Te  Te171  1  0.89941064  0.06634818  0.24499848  1
  Te  Te172  1  0.90565374  0.06299344  0.57917798  1
  Te  Te173  1  0.90135540  0.10905612  0.88260321  1
  Te  Te174  1  0.91405434  0.39510363  0.24397961  1
  Te  Te175  1  0.91347307  0.41523874  0.60357386  1
  Te  Te176  1  0.90836893  0.41636129  0.90941690  1
  Te  Te177  1  0.95633612  0.79231587  0.25206827  1
  Te  Te178  1  0.91265487  0.74153612  0.58996129  1
  Te  Te179  1  0.92467484  0.74765212  0.89252070  1
