# generated using pymatgen
data_In2Te3
_symmetry_space_group_name_H-M   'P 1'
_cell_length_a   18.99136370
_cell_length_b   19.00190745
_cell_length_c   18.98495903
_cell_angle_alpha   90.10086478
_cell_angle_beta   90.10548107
_cell_angle_gamma   89.98464468
_symmetry_Int_Tables_number   1
_chemical_formula_structural   In2Te3
_chemical_formula_sum   'In72 Te108'
_cell_volume   6851.12024214
_cell_formula_units_Z   36
loop_
 _symmetry_equiv_pos_site_id
 _symmetry_equiv_pos_as_xyz
  1  'x, y, z'
loop_
 _atom_site_type_symbol
 _atom_site_label
 _atom_site_symmetry_multiplicity
 _atom_site_fract_x
 _atom_site_fract_y
 _atom_site_fract_z
 _atom_site_occupancy
  In  In0  1  0.32874935  0.65908725  0.03053216  1
  In  In1  1  0.02392690  0.31621663  -0.01730948  1
  In  In2  1  0.01059326  0.52789387  0.18515293  1
  In  In3  1  0.50625275  0.81877108  0.64560002  1
  In  In4  1  0.51887526  0.85384032  -0.00294654  1
  In  In5  1  0.75381485  0.47312279  0.65062943  1
  In  In6  1  0.65337246  0.68667560  0.01076222  1
  In  In7  1  0.34480702  0.81706474  0.18551582  1
  In  In8  1  0.67639285  0.52287057  0.16289309  1
  In  In9  1  0.16758021  0.49273237  0.66083582  1
  In  In10  1  -0.00386304  0.82427265  0.19207112  1
  In  In11  1  0.17415261  0.82437873  0.32094485  1
  In  In12  1  0.17841280  0.84185508  0.64332070  1
  In  In13  1  -0.00724803  0.16134115  0.17217323  1
  In  In14  1  0.66937783  -0.02024397  0.32692597  1
  In  In15  1  0.49257956  0.16438289  0.67266102  1
  In  In16  1  0.83618669  0.31155470  0.52338544  1
  In  In17  1  0.83081376  0.35763520  0.15781852  1
  In  In18  1  0.81960144  0.66616846  0.82706343  1
  In  In19  1  0.67234983  0.84530971  0.83010997  1
  In  In20  1  0.16376145  0.15906848  0.34693328  1
  In  In21  1  0.47357700  0.03454952  0.13951545  1
  In  In22  1  0.52085071  0.19402285  0.36214275  1
  In  In23  1  0.51493749  0.50332513  -0.01673354  1
  In  In24  1  0.33093756  0.52462761  0.45036007  1
  In  In25  1  0.49121898  0.03424868  0.84044870  1
  In  In26  1  0.63964592  0.82287231  0.17660617  1
  In  In27  1  0.65427137  0.16742938  0.84155280  1
  In  In28  1  0.16655448  0.00007283  0.50562884  1
  In  In29  1  -0.01335234  -0.02150001  0.00757152  1
  In  In30  1  0.33214284  0.47754254  0.82972891  1
  In  In31  1  0.18358024  0.33698997  0.52164791  1
  In  In32  1  0.65754918  0.16626986  0.15793627  1
  In  In33  1  0.32766817  0.17599232  0.53450697  1
  In  In34  1  0.14862505  0.83088754  0.01482441  1
  In  In35  1  -0.01232395  0.82321573  0.80996661  1
  In  In36  1  -0.01672667  0.69853659  0.02093292  1
  In  In37  1  0.82279085  -0.01257085  0.48966996  1
  In  In38  1  0.17147126  0.04042435  0.84111382  1
  In  In39  1  0.81651849  0.80744379  0.61839696  1
  In  In40  1  0.33850041  0.33179814  -0.01781867  1
  In  In41  1  0.84582158  0.49958636  -0.00863761  1
  In  In42  1  0.49107772  0.31575913  0.16421353  1
  In  In43  1  0.15573554  0.36397715  0.18229765  1
  In  In44  1  0.35540070  0.00797713  0.70204585  1
  In  In45  1  0.50475790  0.65288725  0.48504038  1
  In  In46  1  0.66904670  0.49030029  0.49760063  1
  In  In47  1  0.00871661  0.47951296  0.49034829  1
  In  In48  1  0.32095683  0.50249494  0.18100178  1
  In  In49  1  0.16177926  0.65691927  0.83519076  1
  In  In50  1  0.34222651  0.79579542  0.48188113  1
  In  In51  1  -0.02345389  0.14272199  0.49767591  1
  In  In52  1  0.33911301  0.01846387  0.32609504  1
  In  In53  1  0.35285336  0.81823293  0.82319125  1
  In  In54  1  0.00664447  0.18256602  0.79991629  1
  In  In55  1  0.65558894  0.32463686  0.34853949  1
  In  In56  1  0.49717647  -0.03489985  0.48969089  1
  In  In57  1  -0.02095124  0.67096052  0.62457379  1
  In  In58  1  0.81245009  -0.02030319  0.21069501  1
  In  In59  1  0.01658963  0.33345665  0.66427281  1
  In  In60  1  0.51376355  0.33057565  0.82403355  1
  In  In61  1  -0.00476678  0.50209554  0.84025467  1
  In  In62  1  0.81633522  0.16213938  -0.01699736  1
  In  In63  1  0.66993575  0.01211695  0.68097036  1
  In  In64  1  0.48749460  0.49344121  0.32410182  1
  In  In65  1  0.82169852  0.16716270  0.35771341  1
  In  In66  1  0.82813018  0.51326193  0.31625445  1
  In  In67  1  0.51302210  0.62773558  0.79986230  1
  In  In68  1  0.17113873  0.17911426  0.01637333  1
  In  In69  1  0.84448464  -0.00944796  0.84615244  1
  In  In70  1  0.03322600  0.66671546  0.35159431  1
  In  In71  1  0.19698369  -0.01485821  0.16725979  1
  Te  Te72  1  0.08194926  0.06768359  0.08908062  1
  Te  Te73  1  0.06748961  0.06033490  0.40813623  1
  Te  Te74  1  0.06911611  0.06333801  0.73899086  1
  Te  Te75  1  0.06190650  0.42552116  0.07939023  1
  Te  Te76  1  0.11390546  0.41231740  0.41549955  1
  Te  Te77  1  0.09431757  0.41482198  0.76763008  1
  Te  Te78  1  0.09653836  0.73451764  0.11613822  1
  Te  Te79  1  0.09646316  0.77271789  0.43396154  1
  Te  Te80  1  0.08196547  0.73554777  0.73016648  1
  Te  Te81  1  0.38796494  0.10367837  0.04720303  1
  Te  Te82  1  0.42136219  0.08616706  0.43391875  1
  Te  Te83  1  0.38918664  0.13312611  0.77952816  1
  Te  Te84  1  0.42414946  0.42595642  0.07577514  1
  Te  Te85  1  0.42113577  0.41155942  0.42442638  1
  Te  Te86  1  0.43535075  0.42355037  0.74108951  1
  Te  Te87  1  0.43535564  0.75614532  0.07986492  1
  Te  Te88  1  0.43736804  0.74172718  0.38180112  1
  Te  Te89  1  0.41863006  0.72369265  0.72536813  1
  Te  Te90  1  0.76855057  0.08088630  0.09976445  1
  Te  Te91  1  0.71832016  0.08553106  0.42591096  1
  Te  Te92  1  0.76566999  0.09145099  0.76459133  1
  Te  Te93  1  0.73458205  0.42317142  0.06319384  1
  Te  Te94  1  0.77084275  0.40337863  0.40901801  1
  Te  Te95  1  0.72636054  0.44028406  0.78963382  1
  Te  Te96  1  0.74464576  0.76103734  0.09662767  1
  Te  Te97  1  0.79326643  0.73315913  0.48855784  1
  Te  Te98  1  0.73170068  0.74607640  0.73432087  1
  Te  Te99  1  0.08167011  0.24858123  0.25533170  1
  Te  Te100  1  0.07902600  0.22605453  0.57316137  1
  Te  Te101  1  0.11840343  0.24296672  0.88941527  1
  Te  Te102  1  0.11560508  0.55834492  0.28827024  1
  Te  Te103  1  0.09087684  0.58444508  0.56816395  1
  Te  Te104  1  0.06358852  0.59953890  0.93376439  1
  Te  Te105  1  0.08718468  0.92936328  0.25370676  1
  Te  Te106  1  0.07459707  0.93748011  0.60330601  1
  Te  Te107  1  0.07848526  0.91043910  0.90544421  1
  Te  Te108  1  0.42112430  0.23445971  0.26291483  1
  Te  Te109  1  0.43465645  0.26379707  0.58117836  1
  Te  Te110  1  0.45636024  0.25369549  0.93757155  1
  Te  Te111  1  0.42593439  0.58990893  0.23383560  1
  Te  Te112  1  0.41488310  0.56694469  0.56513690  1
  Te  Te113  1  0.41039335  0.59225214  0.91232332  1
  Te  Te114  1  0.42816522  0.93139426  0.24155045  1
  Te  Te115  1  0.39199221  0.91079835  0.58833977  1
  Te  Te116  1  0.41388312  0.92334875  0.91394889  1
  Te  Te117  1  0.75675196  0.25198804  0.24292661  1
  Te  Te118  1  0.70652020  0.28841231  0.58565669  1
  Te  Te119  1  0.73302683  0.26319593  0.92185298  1
  Te  Te120  1  0.74462271  0.61561140  0.25297466  1
  Te  Te121  1  0.76911216  0.58749323  0.55764881  1
  Te  Te122  1  0.73980714  0.59113863  0.92964165  1
  Te  Te123  1  0.77232798  0.86525676  0.30256548  1
  Te  Te124  1  0.71780516  0.91653264  0.57486204  1
  Te  Te125  1  0.74280604  0.92553223  0.92954039  1
  Te  Te126  1  0.25041942  0.27847548  0.09460584  1
  Te  Te127  1  0.26086259  0.24679545  0.41985367  1
  Te  Te128  1  0.21002033  0.27275516  0.65994507  1
  Te  Te129  1  0.23225879  0.56358402  0.07985528  1
  Te  Te130  1  0.24558677  0.61489986  0.37242798  1
  Te  Te131  1  0.25622568  0.58259073  0.74634648  1
  Te  Te132  1  0.27157135  0.89651439  0.07377798  1
  Te  Te133  1  0.26381159  0.91960048  0.41236333  1
  Te  Te134  1  0.24738779  0.91559394  0.76830255  1
  Te  Te135  1  0.57947934  0.25008804  0.06510257  1
  Te  Te136  1  0.59829476  0.26451433  0.47278393  1
  Te  Te137  1  0.60522502  0.25391864  0.72506667  1
  Te  Te138  1  0.56393398  0.59745033  0.09395703  1
  Te  Te139  1  0.59767881  0.57221450  0.39315878  1
  Te  Te140  1  0.62569794  0.56279951  0.72192100  1
  Te  Te141  1  0.58993895  0.94075249  0.09774714  1
  Te  Te142  1  0.58542212  0.88190381  0.40488528  1
  Te  Te143  1  0.56162933  0.92228316  0.74992800  1
  Te  Te144  1  0.91603549  0.25278764  0.07824267  1
  Te  Te145  1  0.92823675  0.25975150  0.41373911  1
  Te  Te146  1  0.90661149  0.26682479  0.73587653  1
  Te  Te147  1  0.90444989  0.59273528  0.09546128  1
  Te  Te148  1  0.92307528  0.57801701  0.41505863  1
  Te  Te149  1  0.92090119  0.59159023  0.74343684  1
  Te  Te150  1  0.90142487  0.90559341  0.10512162  1
  Te  Te151  1  0.89069636  0.92763537  0.37335026  1
  Te  Te152  1  0.88454098  0.89820285  0.73321020  1
  Te  Te153  1  0.25605664  0.10565913  0.23527644  1
  Te  Te154  1  0.25105076  0.07181006  0.60985854  1
  Te  Te155  1  0.26467805  0.07886540  0.95270659  1
  Te  Te156  1  0.27152740  0.39493788  0.26610625  1
  Te  Te157  1  0.28123668  0.40094223  0.62006837  1
  Te  Te158  1  0.23825237  0.42347336  0.92620905  1
  Te  Te159  1  0.25589471  0.71839881  0.25411401  1
  Te  Te160  1  0.25150964  0.73472725  0.57718920  1
  Te  Te161  1  0.24980393  0.74849965  0.92040302  1
  Te  Te162  1  0.57876331  0.09045210  0.26241479  1
  Te  Te163  1  0.56603586  0.06610258  0.58474350  1
  Te  Te164  1  0.60587294  0.05873762  0.92808836  1
  Te  Te165  1  0.59834358  0.40705645  0.23553978  1
  Te  Te166  1  0.56727764  0.48152634  0.60811777  1
  Te  Te167  1  0.60579059  0.43093587  0.88983347  1
  Te  Te168  1  0.55991145  0.76784935  0.28488226  1
  Te  Te169  1  0.59488301  0.73825291  0.56464416  1
  Te  Te170  1  0.56754102  0.74374126  0.89296585  1
  Te  Te171  1  0.91219046  0.07991406  0.27049623  1
  Te  Te172  1  0.87759234  0.08462596  0.58602968  1
  Te  Te173  1  0.94197956  0.09457351  0.91986536  1
  Te  Te174  1  0.93065521  0.41787043  0.25325628  1
  Te  Te175  1  0.91229702  0.42525568  0.59572905  1
  Te  Te176  1  0.91499208  0.39334155  0.90744577  1
  Te  Te177  1  0.92584940  0.72027733  0.26570753  1
  Te  Te178  1  0.93581321  0.77662957  0.52605743  1
  Te  Te179  1  0.89651087  0.76471019  0.91582710  1
