# generated using pymatgen
data_In2Te3
_symmetry_space_group_name_H-M   'P 1'
_cell_length_a   18.82989392
_cell_length_b   18.82898726
_cell_length_c   18.82173397
_cell_angle_alpha   90.05406041
_cell_angle_beta   89.93547838
_cell_angle_gamma   90.11624809
_symmetry_Int_Tables_number   1
_chemical_formula_structural   In2Te3
_chemical_formula_sum   'In72 Te108'
_cell_volume   6673.18406423
_cell_formula_units_Z   36
loop_
 _symmetry_equiv_pos_site_id
 _symmetry_equiv_pos_as_xyz
  1  'x, y, z'
loop_
 _atom_site_type_symbol
 _atom_site_label
 _atom_site_symmetry_multiplicity
 _atom_site_fract_x
 _atom_site_fract_y
 _atom_site_fract_z
 _atom_site_occupancy
  In  In0  1  -0.00181911  0.00720782  0.65651185  1
  In  In1  1  0.83000123  0.15725087  -0.00405399  1
  In  In2  1  0.82010295  0.82981024  0.00659716  1
  In  In3  1  0.51923234  0.66304230  0.83123474  1
  In  In4  1  0.64061310  0.35859856  0.64441909  1
  In  In5  1  0.47880390  0.18965487  0.64916777  1
  In  In6  1  0.34065756  0.34607764  0.35172792  1
  In  In7  1  0.17009879  0.00583376  0.50624259  1
  In  In8  1  0.81784495  0.29321033  0.82750749  1
  In  In9  1  0.01133571  0.49702458  0.83508098  1
  In  In10  1  -0.01235330  0.34619421  0.67574267  1
  In  In11  1  0.02189418  0.67422347  0.00283040  1
  In  In12  1  0.82671194  0.50649600  -0.01436220  1
  In  In13  1  0.68558876  -0.01037158  -0.00646829  1
  In  In14  1  0.66078756  -0.00373826  0.66350628  1
  In  In15  1  -0.00142039  0.84901075  0.48443728  1
  In  In16  1  0.81632594  0.65885993  0.50504309  1
  In  In17  1  0.49033975  0.34263213  0.83322095  1
  In  In18  1  0.33355467  0.49594852  0.81370224  1
  In  In19  1  0.34118879  0.65865796  0.00146687  1
  In  In20  1  0.16898499  0.16565057  -0.01055676  1
  In  In21  1  -0.01977035  -0.00198941  0.32674108  1
  In  In22  1  0.48765464  0.18599150  0.35435755  1
  In  In23  1  0.32343896  0.81684748  0.17255323  1
  In  In24  1  0.48902555  0.51855449  0.33655119  1
  In  In25  1  0.82777936  0.49161138  0.36525919  1
  In  In26  1  -0.00723478  0.17169106  0.49977388  1
  In  In27  1  0.50063779  0.65460055  0.50011033  1
  In  In28  1  0.80948061  0.16793867  0.65463844  1
  In  In29  1  0.18032203  0.83468669  0.33266865  1
  In  In30  1  0.19039769  0.64783405  0.50029170  1
  In  In31  1  0.31972089  0.18023603  0.18861431  1
  In  In32  1  0.64649511  0.49111500  0.83160386  1
  In  In33  1  0.16476428  0.00391340  0.16495200  1
  In  In34  1  0.83437309  0.69309555  0.16090413  1
  In  In35  1  0.65282891  0.83159042  0.49357093  1
  In  In36  1  0.17747060  0.32307112  0.83300749  1
  In  In37  1  0.83476418  0.15094861  0.33793652  1
  In  In38  1  0.50504048  0.80477225  0.33877951  1
  In  In39  1  0.66461589  0.34452836  0.36527280  1
  In  In40  1  0.70116293  -0.02483536  0.31583933  1
  In  In41  1  0.48669622  -0.01297062  0.53573440  1
  In  In42  1  0.01663786  0.49013774  0.16799461  1
  In  In43  1  0.17340801  0.20758788  0.33683154  1
  In  In44  1  0.82346516  0.34426044  0.16886581  1
  In  In45  1  0.19301132  0.49120715  0.34981192  1
  In  In46  1  0.64840125  0.16936151  0.15352936  1
  In  In47  1  0.17314501  0.65257267  0.83323945  1
  In  In48  1  0.34605367  0.66535652  0.65834420  1
  In  In49  1  0.67020068  0.15971568  0.84246979  1
  In  In50  1  0.36377208  0.35777480  0.01589978  1
  In  In51  1  0.51248453  0.01083150  0.15080683  1
  In  In52  1  0.64597354  0.53068709  0.16944240  1
  In  In53  1  -0.02269685  -0.00260997  -0.00142300  1
  In  In54  1  0.17192154  -0.02251911  0.81722661  1
  In  In55  1  0.31837833  0.82791831  0.82489066  1
  In  In56  1  0.00980589  0.33979005  0.01294398  1
  In  In57  1  0.03283679  0.32461508  0.34942319  1
  In  In58  1  0.66346708  0.67318346  0.32805653  1
  In  In59  1  0.49501538  0.00086185  0.78789472  1
  In  In60  1  -0.02585104  0.66986888  0.32331138  1
  In  In61  1  0.31340706  0.00984430  -0.00938307  1
  In  In62  1  0.80334378  0.66232633  0.81950770  1
  In  In63  1  0.49550540  0.82583375  -0.00109015  1
  In  In64  1  0.50609616  0.19381064  -0.00501719  1
  In  In65  1  0.18140616  0.17807207  0.66317436  1
  In  In66  1  0.17531064  0.67094478  0.15348781  1
  In  In67  1  0.35306499  -0.01303065  0.35626981  1
  In  In68  1  0.01036700  0.82664568  0.83450886  1
  In  In69  1  0.03290079  0.65794710  0.64801452  1
  In  In70  1  0.82469721  0.83001709  0.67707688  1
  In  In71  1  0.83003691  0.50959438  0.65131518  1
  Te  Te72  1  0.07322057  0.08964089  0.08039299  1
  Te  Te73  1  0.08486593  0.08888281  0.40894729  1
  Te  Te74  1  0.08941293  0.08572132  0.74866952  1
  Te  Te75  1  0.11230812  0.41599441  0.08489214  1
  Te  Te76  1  0.09683973  0.42189460  0.44027271  1
  Te  Te77  1  0.10343306  0.42196356  0.74111190  1
  Te  Te78  1  0.07055762  0.76365160  0.10762552  1
  Te  Te79  1  0.08375031  0.74394227  0.41414325  1
  Te  Te80  1  0.10658199  0.75555853  0.74091328  1
  Te  Te81  1  0.40275356  0.09471230  0.08377012  1
  Te  Te82  1  0.40800751  0.09350053  0.44690954  1
  Te  Te83  1  0.40223253  0.10265762  0.74107388  1
  Te  Te84  1  0.43003611  0.46534041  0.10638027  1
  Te  Te85  1  0.45095668  0.40723295  0.43843703  1
  Te  Te86  1  0.42310687  0.41720213  0.72516216  1
  Te  Te87  1  0.43042278  0.73553122  0.10307439  1
  Te  Te88  1  0.40468355  0.73005553  0.41388410  1
  Te  Te89  1  0.42805903  0.75648389  0.75015732  1
  Te  Te90  1  0.75445074  0.07480134  0.10019262  1
  Te  Te91  1  0.73467414  0.07649894  0.41647287  1
  Te  Te92  1  0.75720635  0.06847772  0.75858996  1
  Te  Te93  1  0.73612513  0.43361692  0.08428901  1
  Te  Te94  1  0.74643167  0.41953652  0.46572235  1
  Te  Te95  1  0.75731570  0.41038607  0.75049712  1
  Te  Te96  1  0.72746872  0.73059906  0.06808837  1
  Te  Te97  1  0.75898416  0.76071138  0.40855532  1
  Te  Te98  1  0.71846738  0.73869266  0.72642206  1
  Te  Te99  1  0.08664690  0.25665330  0.22985378  1
  Te  Te100  1  0.08023149  0.26110165  0.58401400  1
  Te  Te101  1  0.06817322  0.24599285  0.90703895  1
  Te  Te102  1  0.08728387  0.58675756  0.26252013  1
  Te  Te103  1  0.09765541  0.55154413  0.56846602  1
  Te  Te104  1  0.10201344  0.56364036  0.93703456  1
  Te  Te105  1  0.07864392  0.90877219  0.24760738  1
  Te  Te106  1  0.09088596  0.90572003  0.59178786  1
  Te  Te107  1  0.08912714  0.91484451  0.92956964  1
  Te  Te108  1  0.42765699  0.27073336  0.24291909  1
  Te  Te109  1  0.40812768  0.28365169  0.55248938  1
  Te  Te110  1  0.39576223  0.25013373  0.90984370  1
  Te  Te111  1  0.42092047  0.57276520  0.21728770  1
  Te  Te112  1  0.42239891  0.55757003  0.58596742  1
  Te  Te113  1  0.42607311  0.57068542  0.91006122  1
  Te  Te114  1  0.41869517  0.91968128  0.23527509  1
  Te  Te115  1  0.39084357  0.90979727  0.61365759  1
  Te  Te116  1  0.41316040  0.92406797  0.91186638  1
  Te  Te117  1  0.73645323  0.25254450  0.25397092  1
  Te  Te118  1  0.74045168  0.27108530  0.57461512  1
  Te  Te119  1  0.72717727  0.25817673  0.94498885  1
  Te  Te120  1  0.77070864  0.58075602  0.25533950  1
  Te  Te121  1  0.72160245  0.59790847  0.60259748  1
  Te  Te122  1  0.71775457  0.59280057  0.92465243  1
  Te  Te123  1  0.78625454  0.90434114  0.22078941  1
  Te  Te124  1  0.75379922  0.91611290  0.57347769  1
  Te  Te125  1  0.75791184  0.90596086  0.89715251  1
  Te  Te126  1  0.25677199  0.25732314  0.07387230  1
  Te  Te127  1  0.25432105  0.26632954  0.44781672  1
  Te  Te128  1  0.27671950  0.27860702  0.72728295  1
  Te  Te129  1  0.25953994  0.56920881  0.08792098  1
  Te  Te130  1  0.29280603  0.56798849  0.42829317  1
  Te  Te131  1  0.23911822  0.57283045  0.72286756  1
  Te  Te132  1  0.24259868  0.90632714  0.07727568  1
  Te  Te133  1  0.26390375  0.89975889  0.44221999  1
  Te  Te134  1  0.27446298  0.92652878  0.71843558  1
  Te  Te135  1  0.56404632  0.27788020  0.09991588  1
  Te  Te136  1  0.58704117  0.24663249  0.44516514  1
  Te  Te137  1  0.59187094  0.24748944  0.74681297  1
  Te  Te138  1  0.54024155  0.56565510  0.07277411  1
  Te  Te139  1  0.60508682  0.57317048  0.42271724  1
  Te  Te140  1  0.58003216  0.57296981  0.72933195  1
  Te  Te141  1  0.59677256  0.90462403  0.08603602  1
  Te  Te142  1  0.56720226  0.92674047  0.40810810  1
  Te  Te143  1  0.58865089  0.89768396  0.74648824  1
  Te  Te144  1  0.91196134  0.25072274  0.08849451  1
  Te  Te145  1  0.90733654  0.26310620  0.41480352  1
  Te  Te146  1  0.92265885  0.22470699  0.74168302  1
  Te  Te147  1  0.91987193  0.57804913  0.08451820  1
  Te  Te148  1  0.92907511  0.57996725  0.43798901  1
  Te  Te149  1  0.92778948  0.59157506  0.74981314  1
  Te  Te150  1  0.89963533  0.91708172  0.09975653  1
  Te  Te151  1  0.89239944  0.92973780  0.42392500  1
  Te  Te152  1  0.92009971  0.92021662  0.75638794  1
  Te  Te153  1  0.25051081  0.07052670  0.27446997  1
  Te  Te154  1  0.26589358  0.09147858  0.57847563  1
  Te  Te155  1  0.25061886  0.09472559  0.88199841  1
  Te  Te156  1  0.25113146  0.40138075  0.24871192  1
  Te  Te157  1  0.28261745  0.35605770  0.58947478  1
  Te  Te158  1  0.25784340  0.41820751  0.92074352  1
  Te  Te159  1  0.26122030  0.72085063  0.27248264  1
  Te  Te160  1  0.25165922  0.75218190  0.58465748  1
  Te  Te161  1  0.24051881  0.75034206  0.92998456  1
  Te  Te162  1  0.57832523  0.08711157  0.26476942  1
  Te  Te163  1  0.58308473  0.09706635  0.58129985  1
  Te  Te164  1  0.57030984  0.07466599  0.92281345  1
  Te  Te165  1  0.58760738  0.42360144  0.26115815  1
  Te  Te166  1  0.53872228  0.43321981  0.56663609  1
  Te  Te167  1  0.58406637  0.40096796  0.93066533  1
  Te  Te168  1  0.59163800  0.75593577  0.23072422  1
  Te  Te169  1  0.56369127  0.75925335  0.58398243  1
  Te  Te170  1  0.59602084  0.75757757  0.91626674  1
  Te  Te171  1  0.92641711  0.09968284  0.23579411  1
  Te  Te172  1  0.89632187  0.07542340  0.56694143  1
  Te  Te173  1  0.91077871  0.08273299  0.89893210  1
  Te  Te174  1  0.92012085  0.41715608  0.26384787  1
  Te  Te175  1  0.91172895  0.41672618  0.57171549  1
  Te  Te176  1  0.90831616  0.40397434  0.90435244  1
  Te  Te177  1  0.89728128  0.78312513  0.26285351  1
  Te  Te178  1  0.92345422  0.74813449  0.58709067  1
  Te  Te179  1  0.91561561  0.73078248  0.90937833  1
