# generated using pymatgen
data_In2Te3
_symmetry_space_group_name_H-M   'P 1'
_cell_length_a   18.75034026
_cell_length_b   18.74254122
_cell_length_c   18.74312983
_cell_angle_alpha   89.98893128
_cell_angle_beta   89.96352085
_cell_angle_gamma   90.02911637
_symmetry_Int_Tables_number   1
_chemical_formula_structural   In2Te3
_chemical_formula_sum   'In72 Te108'
_cell_volume   6586.87753535
_cell_formula_units_Z   36
loop_
 _symmetry_equiv_pos_site_id
 _symmetry_equiv_pos_as_xyz
  1  'x, y, z'
loop_
 _atom_site_type_symbol
 _atom_site_label
 _atom_site_symmetry_multiplicity
 _atom_site_fract_x
 _atom_site_fract_y
 _atom_site_fract_z
 _atom_site_occupancy
  In  In0  1  0.15470482  0.00436374  0.83526884  1
  In  In1  1  0.33800279  0.19885720  0.49006480  1
  In  In2  1  0.50653784  0.15621664  0.31509277  1
  In  In3  1  0.82809142  0.01438386  0.16242028  1
  In  In4  1  0.00288966  0.33290446  0.00167111  1
  In  In5  1  0.35025134  0.66571258  -0.00015353  1
  In  In6  1  0.84509402  0.49316403  0.33586741  1
  In  In7  1  0.36333898  0.17594886  0.83419580  1
  In  In8  1  0.14768342  0.15889536  0.67963767  1
  In  In9  1  0.16128910  0.67382958  0.17915855  1
  In  In10  1  0.35327488  0.47092051  0.15675030  1
  In  In11  1  0.82947664  0.16446002  0.67523984  1
  In  In12  1  0.68429016  0.15837086  0.83386096  1
  In  In13  1  -0.00081530  0.66241796  0.32522790  1
  In  In14  1  0.31863850  0.16686571  0.16687284  1
  In  In15  1  0.16486188  0.66150092  0.49748343  1
  In  In16  1  0.66497075  0.31584016  -0.00922781  1
  In  In17  1  0.16811008  0.33775385  0.84303614  1
  In  In18  1  0.14705262  0.49953026  0.00229067  1
  In  In19  1  0.67435053  0.81378140  0.50439679  1
  In  In20  1  0.33212645  0.82599334  0.17192531  1
  In  In21  1  0.83944405  0.51687478  -0.00314802  1
  In  In22  1  0.16562764  0.17203499  0.02269747  1
  In  In23  1  0.17983969  0.34823722  0.48634417  1
  In  In24  1  -0.01182308  0.82063482  0.82684446  1
  In  In25  1  0.82547543  0.84138548  0.68524404  1
  In  In26  1  0.31907620  -0.00619838  0.32341139  1
  In  In27  1  0.30580762  0.53284509  0.81547640  1
  In  In28  1  -0.00535020  0.32891850  0.68759023  1
  In  In29  1  0.17912463  0.81870532  0.01188418  1
  In  In30  1  0.66987112  0.01259396  0.33136495  1
  In  In31  1  0.82518667  0.50160802  0.66276098  1
  In  In32  1  0.50678773  0.32315203  0.50371582  1
  In  In33  1  0.49447580  0.33771661  0.85067769  1
  In  In34  1  -0.00126167  0.16141276  0.47312178  1
  In  In35  1  0.01379311  0.33632382  0.33311156  1
  In  In36  1  0.64723953  0.84778006  0.81755084  1
  In  In37  1  0.00382863  0.65205043  0.65650876  1
  In  In38  1  0.32084844  0.50956364  0.50196427  1
  In  In39  1  0.49997964  0.66619976  0.15939761  1
  In  In40  1  0.51189377  0.67693210  0.84006737  1
  In  In41  1  0.51192680  0.67009674  0.50255247  1
  In  In42  1  0.49196455  0.15043427  0.65100081  1
  In  In43  1  0.82100770  0.66152069  0.49486638  1
  In  In44  1  0.84416054  0.66331702  0.15617438  1
  In  In45  1  0.51400899  0.16993038  0.00769432  1
  In  In46  1  0.02538154  0.85765358  0.19029998  1
  In  In47  1  0.31414549  0.32884143  0.32810632  1
  In  In48  1  0.33989106  -0.02064703  -0.00670841  1
  In  In49  1  -0.00147232  0.85301965  0.48916774  1
  In  In50  1  0.82896325  0.82403624  -0.01174555  1
  In  In51  1  0.15252977  0.82355729  0.64149140  1
  In  In52  1  0.48469868  0.82207581  0.32968574  1
  In  In53  1  0.00323384  0.51084407  0.83051673  1
  In  In54  1  0.68309326  0.49164589  0.84173286  1
  In  In55  1  0.34667508  0.82677843  0.83263200  1
  In  In56  1  0.50409817  0.51794161  0.33225063  1
  In  In57  1  0.66201976  0.51131270  0.16732070  1
  In  In58  1  0.00224963  0.16158779  0.18092221  1
  In  In59  1  -0.03356544  0.02171206  -0.02665404  1
  In  In60  1  0.66223656  0.83434869  0.16635004  1
  In  In61  1  0.82771958  -0.01028867  0.49200621  1
  In  In62  1  0.66953405  0.33557259  0.32419034  1
  In  In63  1  0.65786877  0.34717597  0.66695958  1
  In  In64  1  0.15530453  0.00739397  0.48974134  1
  In  In65  1  0.83354627  0.31658501  0.17756869  1
  In  In66  1  0.34816240  0.83962835  0.51660721  1
  In  In67  1  0.84180354  0.33414867  0.50364087  1
  In  In68  1  0.50017889  0.49304116  0.68477133  1
  In  In69  1  0.68470589  -0.01377708  0.00913384  1
  In  In70  1  0.50565485  0.00227554  0.52204480  1
  In  In71  1  0.34347692  -0.00672207  0.65560462  1
  Te  Te72  1  0.07014975  0.06635592  0.07700168  1
  Te  Te73  1  0.06363176  0.05937661  0.37952302  1
  Te  Te74  1  0.05176164  0.07623293  0.75617307  1
  Te  Te75  1  0.09390136  0.39905366  0.09847162  1
  Te  Te76  1  0.08296503  0.43630562  0.41812860  1
  Te  Te77  1  0.09809277  0.42847967  0.74197390  1
  Te  Te78  1  0.06605202  0.74989997  0.08670288  1
  Te  Te79  1  0.08701607  0.75945935  0.40793625  1
  Te  Te80  1  0.10127244  0.72917727  0.75392801  1
  Te  Te81  1  0.41348106  0.07986348  0.08325972  1
  Te  Te82  1  0.41050031  0.08024342  0.42183142  1
  Te  Te83  1  0.43717309  0.05956937  0.76504608  1
  Te  Te84  1  0.41765123  0.39135778  0.05179964  1
  Te  Te85  1  0.41932219  0.41029624  0.41305355  1
  Te  Te86  1  0.39593139  0.41423511  0.76278168  1
  Te  Te87  1  0.43267968  0.77204503  0.07044811  1
  Te  Te88  1  0.39897247  0.73331543  0.41748924  1
  Te  Te89  1  0.41042026  0.72776468  0.74356864  1
  Te  Te90  1  0.74975701  0.10298484  0.07375064  1
  Te  Te91  1  0.75199555  0.09644738  0.42067823  1
  Te  Te92  1  0.74459450  0.06082080  0.74028407  1
  Te  Te93  1  0.75322920  0.41465421  0.08607007  1
  Te  Te94  1  0.74333411  0.42327804  0.42622232  1
  Te  Te95  1  0.76885530  0.39465064  0.75895411  1
  Te  Te96  1  0.73698747  0.73667728  0.07480120  1
  Te  Te97  1  0.76643957  0.76165881  0.40149433  1
  Te  Te98  1  0.74323909  0.74713126  0.76289903  1
  Te  Te99  1  0.09767395  0.26147951  0.23547922  1
  Te  Te100  1  0.07655525  0.25068290  0.57642315  1
  Te  Te101  1  0.08109386  0.23401583  0.91131407  1
  Te  Te102  1  0.08284077  0.56802377  0.24799457  1
  Te  Te103  1  0.09761482  0.56206801  0.58621868  1
  Te  Te104  1  0.07269298  0.60157707  0.92536835  1
  Te  Te105  1  0.10907311  0.95164412  0.26954191  1
  Te  Te106  1  0.06687682  0.94084202  0.59608156  1
  Te  Te107  1  0.08140803  0.90707562  0.92797747  1
  Te  Te108  1  0.41916823  0.25708471  0.24175976  1
  Te  Te109  1  0.40654967  0.27027718  0.60631161  1
  Te  Te110  1  0.39553085  0.26807732  0.95473848  1
  Te  Te111  1  0.40130321  0.59032744  0.24654317  1
  Te  Te112  1  0.41861494  0.58457039  0.59293213  1
  Te  Te113  1  0.42293323  0.56936086  0.90883455  1
  Te  Te114  1  0.42810934  0.92961196  0.23810679  1
  Te  Te115  1  0.45801270  0.88774431  0.61679268  1
  Te  Te116  1  0.44173516  0.90980800  0.91124954  1
  Te  Te117  1  0.74082389  0.22803617  0.25153317  1
  Te  Te118  1  0.74108914  0.25060859  0.58215500  1
  Te  Te119  1  0.77490852  0.23942803  0.92255210  1
  Te  Te120  1  0.75512537  0.59018548  0.25945701  1
  Te  Te121  1  0.73212988  0.58776822  0.58725618  1
  Te  Te122  1  0.75037906  0.60171934  0.91455324  1
  Te  Te123  1  0.75771558  0.91222087  0.25502452  1
  Te  Te124  1  0.73303883  0.92314491  0.59417109  1
  Te  Te125  1  0.76471578  0.92514770  0.89559147  1
  Te  Te126  1  0.24459686  0.27452467  0.09389098  1
  Te  Te127  1  0.22078985  0.22789474  0.39827640  1
  Te  Te128  1  0.25177995  0.24412355  0.75256217  1
  Te  Te129  1  0.25629494  0.58546459  0.08715321  1
  Te  Te130  1  0.24033322  0.57824671  0.39927790  1
  Te  Te131  1  0.21857228  0.62147256  0.73590349  1
  Te  Te132  1  0.24159466  0.92693493  0.09812565  1
  Te  Te133  1  0.24489356  0.90280217  0.42236016  1
  Te  Te134  1  0.24062213  0.91315085  0.74343997  1
  Te  Te135  1  0.59824093  0.24582548  0.10320282  1
  Te  Te136  1  0.59176980  0.23332976  0.41675654  1
  Te  Te137  1  0.57537735  0.24966654  0.75494724  1
  Te  Te138  1  0.57908513  0.58207466  0.06758049  1
  Te  Te139  1  0.60185998  0.59280070  0.41239813  1
  Te  Te140  1  0.60143954  0.58426019  0.75086391  1
  Te  Te141  1  0.57463911  0.92096667  0.08513790  1
  Te  Te142  1  0.57498287  0.91173766  0.41711170  1
  Te  Te143  1  0.54540800  0.93108223  0.74754352  1
  Te  Te144  1  0.91419190  0.23345893  0.07785875  1
  Te  Te145  1  0.90178392  0.24924687  0.39257449  1
  Te  Te146  1  0.91883843  0.23469146  0.77739388  1
  Te  Te147  1  0.94075533  0.57390069  0.08874413  1
  Te  Te148  1  0.93061086  0.57542853  0.43235789  1
  Te  Te149  1  0.90055280  0.59753720  0.75529081  1
  Te  Te150  1  0.91702395  0.91290649  0.08174328  1
  Te  Te151  1  0.91630393  0.92524823  0.38993077  1
  Te  Te152  1  0.92290101  0.93126876  0.75458371  1
  Te  Te153  1  0.22373523  0.07643040  0.24237032  1
  Te  Te154  1  0.25400767  0.09370325  0.57851695  1
  Te  Te155  1  0.25716865  0.09004090  0.91391723  1
  Te  Te156  1  0.24446799  0.43228396  0.24979937  1
  Te  Te157  1  0.25743348  0.41249717  0.59444339  1
  Te  Te158  1  0.25777292  0.42985980  0.92335842  1
  Te  Te159  1  0.24728294  0.75493590  0.26871656  1
  Te  Te160  1  0.26702122  0.73481359  0.59565049  1
  Te  Te161  1  0.24843212  0.73386773  0.90795991  1
  Te  Te162  1  0.58815782  0.07431846  0.22338926  1
  Te  Te163  1  0.60808953  0.08902132  0.58465591  1
  Te  Te164  1  0.58747743  0.07486161  0.91666773  1
  Te  Te165  1  0.56813884  0.41343695  0.23950737  1
  Te  Te166  1  0.58540999  0.43722914  0.56794535  1
  Te  Te167  1  0.57865866  0.43052363  0.93739218  1
  Te  Te168  1  0.59043934  0.73635820  0.26130525  1
  Te  Te169  1  0.59218880  0.74291944  0.60479261  1
  Te  Te170  1  0.58788509  0.76768573  0.92893680  1
  Te  Te171  1  0.91586764  0.07477905  0.26743219  1
  Te  Te172  1  0.91780306  0.08420125  0.57700268  1
  Te  Te173  1  0.89354474  0.12078201  0.89058098  1
  Te  Te174  1  0.92868226  0.42271806  0.23168542  1
  Te  Te175  1  0.93287515  0.42487312  0.58497577  1
  Te  Te176  1  0.91346149  0.41412450  0.90840519  1
  Te  Te177  1  0.91558380  0.76407041  0.24791829  1
  Te  Te178  1  0.91849147  0.75870375  0.58363900  1
  Te  Te179  1  0.92160645  0.72819333  0.92086804  1
