# generated using pymatgen
data_In2Te3
_symmetry_space_group_name_H-M   'P 1'
_cell_length_a   18.90532335
_cell_length_b   18.90834410
_cell_length_c   18.90200503
_cell_angle_alpha   89.91571850
_cell_angle_beta   89.86909973
_cell_angle_gamma   90.07349050
_symmetry_Int_Tables_number   1
_chemical_formula_structural   In2Te3
_chemical_formula_sum   'In72 Te108'
_cell_volume   6756.83819364
_cell_formula_units_Z   36
loop_
 _symmetry_equiv_pos_site_id
 _symmetry_equiv_pos_as_xyz
  1  'x, y, z'
loop_
 _atom_site_type_symbol
 _atom_site_label
 _atom_site_symmetry_multiplicity
 _atom_site_fract_x
 _atom_site_fract_y
 _atom_site_fract_z
 _atom_site_occupancy
  In  In0  1  0.33478165  -0.01427648  0.78802389  1
  In  In1  1  0.82676674  0.87500741  0.32446751  1
  In  In2  1  0.83764824  0.67219097  0.83786910  1
  In  In3  1  0.47394134  0.34347588  0.16935348  1
  In  In4  1  0.68824728  0.33878804  0.33419237  1
  In  In5  1  0.00247446  0.51279530  0.50481733  1
  In  In6  1  0.31375438  0.33047047  -0.00977340  1
  In  In7  1  0.46869869  0.31809304  0.53151568  1
  In  In8  1  0.35165888  0.17619052  0.50735091  1
  In  In9  1  0.17487928  0.34065408  0.50412235  1
  In  In10  1  0.01264877  -0.02274055  -0.02075107  1
  In  In11  1  0.01669190  0.50148074  0.15080035  1
  In  In12  1  0.31494866  0.50989370  0.14362039  1
  In  In13  1  0.01385351  0.62877365  -0.02716628  1
  In  In14  1  0.50448327  0.86273696  0.00913873  1
  In  In15  1  0.65271684  0.15822849  0.51667114  1
  In  In16  1  0.83216239  0.81272133  -0.01462110  1
  In  In17  1  0.15290557  0.03145093  0.47592556  1
  In  In18  1  0.83229176  0.48097837  0.28520596  1
  In  In19  1  0.54041079  0.15805436  0.32035902  1
  In  In20  1  0.51324096  0.11784574  -0.00951994  1
  In  In21  1  0.82476795  -0.01963796  0.84136946  1
  In  In22  1  0.32442091  0.34329822  0.32363656  1
  In  In23  1  0.68117092  0.30838924  0.70301216  1
  In  In24  1  0.33301601  -0.01084042  -0.01200370  1
  In  In25  1  0.33048711  0.31103217  0.64895299  1
  In  In26  1  0.83881166  -0.00132910  0.51349453  1
  In  In27  1  0.34197467  0.68533398  0.31966825  1
  In  In28  1  0.46161984  0.80660233  0.70028693  1
  In  In29  1  0.00411334  0.17920578  0.17398411  1
  In  In30  1  0.01194269  0.67725567  0.68585187  1
  In  In31  1  0.49676461  0.50558526  0.68318697  1
  In  In32  1  0.66944094  0.01798522  0.30867836  1
  In  In33  1  0.81556353  0.50416403  0.64102890  1
  In  In34  1  0.47506414  0.51242346  0.32978594  1
  In  In35  1  0.65214290  0.83781558  0.84072048  1
  In  In36  1  0.20139741  0.50926493  0.32550630  1
  In  In37  1  0.49195562  -0.01628514  0.52016793  1
  In  In38  1  0.01958699  0.82790530  0.51582787  1
  In  In39  1  -0.01687253  -0.00202934  0.67589159  1
  In  In40  1  0.83583448  0.15322415  0.68918277  1
  In  In41  1  0.65244013  0.67858341  0.00281616  1
  In  In42  1  0.62105829  0.50639842  0.50786262  1
  In  In43  1  0.00177207  0.67324216  0.31722015  1
  In  In44  1  0.51266988  0.82361423  0.29771198  1
  In  In45  1  0.35502639  0.67119946  -0.00660151  1
  In  In46  1  0.17775869  0.82887533  0.33833495  1
  In  In47  1  0.86308023  0.17455263  0.33039051  1
  In  In48  1  0.83657084  0.49948293  0.00476975  1
  In  In49  1  0.84726103  0.35605671  0.84428878  1
  In  In50  1  0.48609961  0.32011363  0.84794061  1
  In  In51  1  0.49643868  0.66768576  0.48309857  1
  In  In52  1  0.84828329  0.33571124  0.47845154  1
  In  In53  1  0.63823520  0.67251709  0.68053273  1
  In  In54  1  0.65278341  0.15265996  0.16899251  1
  In  In55  1  0.16840831  0.80961086  -0.03720763  1
  In  In56  1  0.80494437  0.01553284  0.14738958  1
  In  In57  1  0.30279313  0.80422443  0.54064199  1
  In  In58  1  0.67515616  0.85989636  0.50631064  1
  In  In59  1  0.65873955  0.31365503  -0.02458123  1
  In  In60  1  0.31099097  0.50664738  0.53694012  1
  In  In61  1  0.35274742  -0.02492502  0.32245246  1
  In  In62  1  0.18225125  0.17630622  0.66445956  1
  In  In63  1  0.17819773  -0.00849944  0.17531153  1
  In  In64  1  0.00247768  0.16777200  0.82850470  1
  In  In65  1  0.01769074  0.83621513  0.15937811  1
  In  In66  1  0.18996368  0.15675481  -0.00114379  1
  In  In67  1  0.66056458  0.52785315  0.16289559  1
  In  In68  1  0.85396947  0.68481945  0.49369315  1
  In  In69  1  0.86561310  0.34955420  0.14620486  1
  In  In70  1  0.29856774  0.50310816  0.84467372  1
  In  In71  1  0.16185341  0.34982296  0.83601775  1
  Te  Te72  1  0.08407169  0.07020994  0.07777465  1
  Te  Te73  1  0.06541713  0.11303296  0.38953829  1
  Te  Te74  1  0.09204454  0.08072801  0.74445375  1
  Te  Te75  1  0.06845799  0.42137444  0.03926897  1
  Te  Te76  1  0.09959001  0.43668105  0.41377847  1
  Te  Te77  1  0.07654893  0.45454264  0.77872686  1
  Te  Te78  1  0.08068695  0.73674149  0.06581698  1
  Te  Te79  1  0.09284748  0.73325122  0.42272306  1
  Te  Te80  1  0.12036648  0.76973342  0.73698622  1
  Te  Te81  1  0.40717636  0.07514594  0.08310684  1
  Te  Te82  1  0.44088576  0.08730589  0.41853956  1
  Te  Te83  1  0.41539512  0.10146646  0.74909888  1
  Te  Te84  1  0.41240785  0.42590865  0.06038869  1
  Te  Te85  1  0.40487405  0.42320287  0.43556509  1
  Te  Te86  1  0.39895343  0.40946369  0.74883166  1
  Te  Te87  1  0.41848443  0.76964444  0.08790254  1
  Te  Te88  1  0.41172585  0.77626447  0.42046633  1
  Te  Te89  1  0.37195907  0.70958628  0.76959414  1
  Te  Te90  1  0.73309026  0.10391449  0.05587053  1
  Te  Te91  1  0.75353164  0.09228611  0.41379248  1
  Te  Te92  1  0.73695946  0.08044468  0.77170217  1
  Te  Te93  1  0.73916998  0.41134130  0.08904986  1
  Te  Te94  1  0.74718400  0.44085806  0.42954710  1
  Te  Te95  1  0.74587922  0.43350538  0.75697498  1
  Te  Te96  1  0.75977809  0.73506084  0.08609405  1
  Te  Te97  1  0.75644250  0.77125262  0.41324898  1
  Te  Te98  1  0.74444608  0.75571890  0.75135860  1
  Te  Te99  1  0.10491037  0.20513299  0.27574480  1
  Te  Te100  1  0.08818666  0.26207039  0.59275823  1
  Te  Te101  1  0.09036611  0.24571858  0.92328456  1
  Te  Te102  1  0.10244312  0.59032802  0.23968075  1
  Te  Te103  1  0.09159224  0.59725301  0.58651055  1
  Te  Te104  1  0.09749556  0.58135062  0.85393689  1
  Te  Te105  1  0.07913574  0.92172142  0.26898409  1
  Te  Te106  1  0.09462839  0.93824045  0.58446615  1
  Te  Te107  1  0.10973858  0.92170702  0.88221426  1
  Te  Te108  1  0.41958593  0.23969244  0.26581896  1
  Te  Te109  1  0.44554728  0.19909397  0.63081564  1
  Te  Te110  1  0.41281505  0.22518433  0.93953563  1
  Te  Te111  1  0.41643128  0.59566170  0.22047861  1
  Te  Te112  1  0.41698397  0.59996038  0.59407551  1
  Te  Te113  1  0.41343017  0.55887636  0.91603319  1
  Te  Te114  1  0.39606551  0.87517015  0.22032185  1
  Te  Te115  1  0.39227072  0.90884750  0.60858929  1
  Te  Te116  1  0.44140119  0.93781191  0.89292872  1
  Te  Te117  1  0.75967481  0.24407116  0.24123816  1
  Te  Te118  1  0.75722399  0.25241839  0.57891527  1
  Te  Te119  1  0.77440780  0.24903392  0.91441852  1
  Te  Te120  1  0.75591319  0.59975112  0.24883366  1
  Te  Te121  1  0.73296458  0.61011180  0.56922857  1
  Te  Te122  1  0.74589178  0.58358689  0.91814028  1
  Te  Te123  1  0.72037786  0.90386866  0.21528568  1
  Te  Te124  1  0.75198902  0.93004689  0.60937855  1
  Te  Te125  1  0.72953264  0.91681840  0.94405207  1
  Te  Te126  1  0.25887232  0.24260142  0.09562093  1
  Te  Te127  1  0.25198943  0.24517828  0.41518525  1
  Te  Te128  1  0.25975125  0.25134163  0.77120758  1
  Te  Te129  1  0.24009505  0.60349035  0.05849735  1
  Te  Te130  1  0.26620908  0.60033369  0.42691678  1
  Te  Te131  1  0.24698350  0.61364755  0.75934115  1
  Te  Te132  1  0.23613172  0.90265011  0.06727378  1
  Te  Te133  1  0.25827903  0.92070972  0.42966295  1
  Te  Te134  1  0.23712106  0.87184572  0.77158630  1
  Te  Te135  1  0.56599077  0.25289085  0.08902979  1
  Te  Te136  1  0.58285959  0.26718707  0.42543898  1
  Te  Te137  1  0.58216742  0.22399780  0.77693739  1
  Te  Te138  1  0.56480813  0.57753508  0.06611769  1
  Te  Te139  1  0.59205630  0.60606513  0.38187189  1
  Te  Te140  1  0.57701911  0.58257970  0.77827205  1
  Te  Te141  1  0.58713816  0.92994643  0.11097745  1
  Te  Te142  1  0.58183540  0.92524892  0.40022887  1
  Te  Te143  1  0.56286097  0.90431794  0.74358154  1
  Te  Te144  1  0.91709115  0.23644331  0.07119232  1
  Te  Te145  1  0.95456898  0.25572392  0.41382321  1
  Te  Te146  1  0.92235226  0.26542901  0.74448956  1
  Te  Te147  1  0.91586371  0.59603049  0.08984412  1
  Te  Te148  1  0.91117912  0.57732791  0.39814921  1
  Te  Te149  1  0.90618252  0.57898520  0.73959200  1
  Te  Te150  1  0.91214339  0.91562246  0.08017137  1
  Te  Te151  1  0.93156853  0.91880209  0.42452970  1
  Te  Te152  1  0.91968377  0.89975397  0.76420456  1
  Te  Te153  1  0.26678942  0.07457394  0.25852467  1
  Te  Te154  1  0.25837633  0.07791661  0.57706857  1
  Te  Te155  1  0.25308810  0.07372922  0.89064192  1
  Te  Te156  1  0.23246584  0.40385603  0.21914260  1
  Te  Te157  1  0.22416677  0.42149916  0.62460511  1
  Te  Te158  1  0.20716859  0.43801263  0.96033802  1
  Te  Te159  1  0.23563939  0.74162805  0.23598784  1
  Te  Te160  1  0.20889945  0.71939806  0.61820034  1
  Te  Te161  1  0.30099223  0.78089714  0.88995526  1
  Te  Te162  1  0.54564061  0.04239956  0.21194947  1
  Te  Te163  1  0.59900495  0.04947520  0.59953767  1
  Te  Te164  1  0.59414136  0.09869414  0.86983225  1
  Te  Te165  1  0.57908156  0.41579447  0.25969943  1
  Te  Te166  1  0.58523016  0.39615087  0.60789612  1
  Te  Te167  1  0.58563945  0.41522650  0.90065952  1
  Te  Te168  1  0.58792423  0.70579382  0.26022235  1
  Te  Te169  1  0.57105520  0.76592383  0.57629611  1
  Te  Te170  1  0.55335925  0.74931192  0.91285139  1
  Te  Te171  1  0.91430222  0.06579284  0.23875915  1
  Te  Te172  1  0.92762656  0.10279527  0.57850616  1
  Te  Te173  1  0.91771473  0.07733496  0.91623389  1
  Te  Te174  1  0.95562788  0.40099846  0.25574429  1
  Te  Te175  1  0.92407491  0.41179553  0.58787652  1
  Te  Te176  1  0.94725959  0.42096227  0.93793926  1
  Te  Te177  1  0.91055246  0.76956026  0.24680964  1
  Te  Te178  1  0.91179654  0.76706387  0.60425046  1
  Te  Te179  1  0.94672040  0.75098378  0.90661069  1
