# generated using pymatgen
data_In2Te3
_symmetry_space_group_name_H-M   'P 1'
_cell_length_a   18.79155332
_cell_length_b   18.79574686
_cell_length_c   18.78926566
_cell_angle_alpha   90.00689487
_cell_angle_beta   89.96479514
_cell_angle_gamma   89.99956705
_symmetry_Int_Tables_number   1
_chemical_formula_structural   In2Te3
_chemical_formula_sum   'In72 Te108'
_cell_volume   6636.39136709
_cell_formula_units_Z   36
loop_
 _symmetry_equiv_pos_site_id
 _symmetry_equiv_pos_as_xyz
  1  'x, y, z'
loop_
 _atom_site_type_symbol
 _atom_site_label
 _atom_site_symmetry_multiplicity
 _atom_site_fract_x
 _atom_site_fract_y
 _atom_site_fract_z
 _atom_site_occupancy
  In  In0  1  0.66396536  0.85268275  0.17156350  1
  In  In1  1  0.66692823  0.32935827  -0.00446148  1
  In  In2  1  0.85795880  0.17116773  0.65732697  1
  In  In3  1  0.68975648  0.69242634  0.37037071  1
  In  In4  1  0.52015814  0.84685939  0.65160857  1
  In  In5  1  0.02768144  0.33271817  0.68080723  1
  In  In6  1  0.82556836  -0.00794753  0.16546689  1
  In  In7  1  0.68188189  0.68148445  -0.03023439  1
  In  In8  1  0.83522709  0.52054741  0.66098935  1
  In  In9  1  0.50374527  0.67950374  0.50318417  1
  In  In10  1  0.33075561  0.66478849  0.34356020  1
  In  In11  1  0.66924181  0.32337303  0.66338370  1
  In  In12  1  0.00449982  0.66958442  0.33775748  1
  In  In13  1  0.17529838  0.84094902  0.01260052  1
  In  In14  1  0.66397726  -0.00235919  0.35263619  1
  In  In15  1  0.00478845  0.34269659  0.35731294  1
  In  In16  1  -0.01312553  0.84468862  0.16667107  1
  In  In17  1  0.03312811  0.47111978  0.13477952  1
  In  In18  1  0.32096556  0.32920897  0.33167476  1
  In  In19  1  0.68390346  0.52716148  0.50990181  1
  In  In20  1  0.87503163  0.34444524  0.84038780  1
  In  In21  1  0.31031764  0.67387322  0.68189438  1
  In  In22  1  0.33944953  0.83906348  0.84741385  1
  In  In23  1  0.66332663  0.16820327  0.79787699  1
  In  In24  1  0.29330509  0.32753080  -0.01129720  1
  In  In25  1  0.50324143  0.16573242  0.65783293  1
  In  In26  1  0.84687288  0.14682792  -0.01678872  1
  In  In27  1  0.02711007  0.16379098  0.14835753  1
  In  In28  1  0.48640729  0.50295256  0.68460624  1
  In  In29  1  -0.00995102  0.16661334  0.50759683  1
  In  In30  1  0.48151577  0.33210186  0.50198152  1
  In  In31  1  0.84498105  0.50855547  0.32473330  1
  In  In32  1  0.16565956  0.02429484  0.82216062  1
  In  In33  1  0.49869945  -0.00765499  0.47849906  1
  In  In34  1  0.83507432  0.66753319  0.16226265  1
  In  In35  1  -0.02086323  0.68201542  0.64568949  1
  In  In36  1  -0.01562115  0.84301641  0.80714224  1
  In  In37  1  0.15082904  0.84672882  0.63538657  1
  In  In38  1  0.66765604  0.51536347  0.83211218  1
  In  In39  1  0.28316456  0.03412431  0.65277511  1
  In  In40  1  0.33335094  0.83340501  0.51703339  1
  In  In41  1  0.33158658  -0.00856417  0.32844269  1
  In  In42  1  0.84222106  0.67831256  0.80522388  1
  In  In43  1  0.49543387  0.51965228  -0.00452884  1
  In  In44  1  0.69524078  -0.01966747  -0.02843395  1
  In  In45  1  0.31285656  0.49490810  0.16987672  1
  In  In46  1  0.31017648  0.49485500  0.49337531  1
  In  In47  1  0.66510522  0.32025126  0.32312851  1
  In  In48  1  0.50011462  0.33336504  0.16568754  1
  In  In49  1  0.16263716  0.63268849  0.82486842  1
  In  In50  1  0.49222044  0.15997232  0.01290909  1
  In  In51  1  0.30660123  0.33625159  0.68486274  1
  In  In52  1  0.15475059  0.17230839  0.34479308  1
  In  In53  1  0.67508694  -0.00162996  0.67429073  1
  In  In54  1  0.67666619  0.46464914  0.15993486  1
  In  In55  1  0.17887710  0.64711787  0.18612472  1
  In  In56  1  0.17016653  0.81724880  0.34580703  1
  In  In57  1  0.34212827  0.65726921  0.01731662  1
  In  In58  1  0.31345542  0.18522920  0.84577008  1
  In  In59  1  0.50387237  0.67575421  0.16368459  1
  In  In60  1  0.01256223  0.66133709  -0.01432025  1
  In  In61  1  0.49040700  -0.00647970  0.83070240  1
  In  In62  1  0.84040007  0.31834963  0.50056283  1
  In  In63  1  0.48615550  0.00552538  0.16361192  1
  In  In64  1  0.16379232  0.01007898  0.15121405  1
  In  In65  1  0.01018126  0.00468404  0.01746837  1
  In  In66  1  0.82338264  0.31744306  0.15372535  1
  In  In67  1  0.02054614  0.50605274  0.49533371  1
  In  In68  1  0.48702565  0.16615076  0.33181642  1
  In  In69  1  0.50630290  0.65838722  0.84216830  1
  In  In70  1  0.83400998  -0.01021742  0.49946308  1
  In  In71  1  -0.02221368  0.00352720  0.34497114  1
  Te  Te72  1  0.12051261  0.11089479  0.03755134  1
  Te  Te73  1  0.08521726  0.06761776  0.43120016  1
  Te  Te74  1  0.04988333  0.09165921  0.76641473  1
  Te  Te75  1  0.12845009  0.36708449  0.07170037  1
  Te  Te76  1  0.11155258  0.40368015  0.43880091  1
  Te  Te77  1  0.10736415  0.41875422  0.76974474  1
  Te  Te78  1  0.08265326  0.74340970  0.10324443  1
  Te  Te79  1  0.07170573  0.75557269  0.43739336  1
  Te  Te80  1  0.08869503  0.74661553  0.74830018  1
  Te  Te81  1  0.38921386  0.09296984  0.09301850  1
  Te  Te82  1  0.39530642  0.09200800  0.42848177  1
  Te  Te83  1  0.40547662  0.09029510  0.74933862  1
  Te  Te84  1  0.41018651  0.41817505  0.07491994  1
  Te  Te85  1  0.41556389  0.42751219  0.40468891  1
  Te  Te86  1  0.41308891  0.40524677  0.76548936  1
  Te  Te87  1  0.42888859  0.76367219  0.07089900  1
  Te  Te88  1  0.42113984  0.76868834  0.41042366  1
  Te  Te89  1  0.42523923  0.75516659  0.74151301  1
  Te  Te90  1  0.74316964  0.08339010  0.07568661  1
  Te  Te91  1  0.76068283  0.08899871  0.41817661  1
  Te  Te92  1  0.77790560  0.07948304  0.75502475  1
  Te  Te93  1  0.77461326  0.42261512  0.05157967  1
  Te  Te94  1  0.75395838  0.41667196  0.41834556  1
  Te  Te95  1  0.75877303  0.41208012  0.75072378  1
  Te  Te96  1  0.75068859  0.76352794  0.07938911  1
  Te  Te97  1  0.80010612  0.74441383  0.45224497  1
  Te  Te98  1  0.73650856  0.77923103  0.78124539  1
  Te  Te99  1  0.08278713  0.26497377  0.24781903  1
  Te  Te100  1  0.09793147  0.24462706  0.57992256  1
  Te  Te101  1  0.08583311  0.31837101  0.92854327  1
  Te  Te102  1  0.07414668  0.56127997  0.25622363  1
  Te  Te103  1  0.08145721  0.58443894  0.60382894  1
  Te  Te104  1  0.08608967  0.54832944  0.92302058  1
  Te  Te105  1  0.08495829  0.92156756  0.25527227  1
  Te  Te106  1  0.04192638  0.92832365  0.58416615  1
  Te  Te107  1  0.08303051  0.90982014  0.91352959  1
  Te  Te108  1  0.39933430  0.24147312  0.23215802  1
  Te  Te109  1  0.39381903  0.24590512  0.58845804  1
  Te  Te110  1  0.41930282  0.26170105  0.92604445  1
  Te  Te111  1  0.41482612  0.58226316  0.24500485  1
  Te  Te112  1  0.40876531  0.58857421  0.58133050  1
  Te  Te113  1  0.39150363  0.57376632  0.89741159  1
  Te  Te114  1  0.43744046  0.91062636  0.26561032  1
  Te  Te115  1  0.40765540  0.93887889  0.60093989  1
  Te  Te116  1  0.40542979  0.93572997  0.93775650  1
  Te  Te117  1  0.74972287  0.22924523  0.24529834  1
  Te  Te118  1  0.74142406  0.22600566  0.57159312  1
  Te  Te119  1  0.75575081  0.24891231  0.89806453  1
  Te  Te120  1  0.73683970  0.58443816  0.24872694  1
  Te  Te121  1  0.75327259  0.62682027  0.59635630  1
  Te  Te122  1  0.77879226  0.57893215  0.91238921  1
  Te  Te123  1  0.76313908  0.90749301  0.27438298  1
  Te  Te124  1  0.74993426  0.90194591  0.58782115  1
  Te  Te125  1  0.77969725  0.89252928  0.88353649  1
  Te  Te126  1  0.22551565  0.24760448  0.09062534  1
  Te  Te127  1  0.25149464  0.24418823  0.43209318  1
  Te  Te128  1  0.20937158  0.24996751  0.76205377  1
  Te  Te129  1  0.22799938  0.56764056  0.06493631  1
  Te  Te130  1  0.22705882  0.58754708  0.41274326  1
  Te  Te131  1  0.24752216  0.55093770  0.73348943  1
  Te  Te132  1  0.26585550  0.91630027  0.09959982  1
  Te  Te133  1  0.24157529  0.92203205  0.43291638  1
  Te  Te134  1  0.24500067  0.90709478  0.74456756  1
  Te  Te135  1  0.59676676  0.23890013  0.09595574  1
  Te  Te136  1  0.58031300  0.24345312  0.42572117  1
  Te  Te137  1  0.55879757  0.27126929  0.75489493  1
  Te  Te138  1  0.60461835  0.58170200  0.08189472  1
  Te  Te139  1  0.58450927  0.58729914  0.41074629  1
  Te  Te140  1  0.59485763  0.60251670  0.73081253  1
  Te  Te141  1  0.58657792  0.93044095  0.06702446  1
  Te  Te142  1  0.59487456  0.89120390  0.43062261  1
  Te  Te143  1  0.59649892  0.90174685  0.77252605  1
  Te  Te144  1  0.92713785  0.24644118  0.06576276  1
  Te  Te145  1  0.90751604  0.23164255  0.39505525  1
  Te  Te146  1  0.94991787  0.23176634  0.76876967  1
  Te  Te147  1  0.92909218  0.57706197  0.08623231  1
  Te  Te148  1  0.90740294  0.58934313  0.43555721  1
  Te  Te149  1  0.94030599  0.57308823  0.75587005  1
  Te  Te150  1  0.89896088  0.90883098  0.06031571  1
  Te  Te151  1  0.93504990  0.89522581  0.43781476  1
  Te  Te152  1  0.85956250  0.90155730  0.74932949  1
  Te  Te153  1  0.24614935  0.09134178  0.25048219  1
  Te  Te154  1  0.20057695  0.12491065  0.57400113  1
  Te  Te155  1  0.26948697  0.06331355  0.91979827  1
  Te  Te156  1  0.22551063  0.41306429  0.25456887  1
  Te  Te157  1  0.22589691  0.41600236  0.58662022  1
  Te  Te158  1  0.22034840  0.39195604  0.87495745  1
  Te  Te159  1  0.26513949  0.76010877  0.23948855  1
  Te  Te160  1  0.23074711  0.73260298  0.56692480  1
  Te  Te161  1  0.24192137  0.73884896  0.91596687  1
  Te  Te162  1  0.58604488  0.08291456  0.25173487  1
  Te  Te163  1  0.58989198  0.07557475  0.57262674  1
  Te  Te164  1  0.59225524  0.09060782  0.90929452  1
  Te  Te165  1  0.57120137  0.42562619  0.26400320  1
  Te  Te166  1  0.58611870  0.42503683  0.58198564  1
  Te  Te167  1  0.57777195  0.42069596  0.91117578  1
  Te  Te168  1  0.59401639  0.75063988  0.26066423  1
  Te  Te169  1  0.60883564  0.76107596  0.57027618  1
  Te  Te170  1  0.55732549  0.75631038  0.94094709  1
  Te  Te171  1  0.92054788  0.08973371  0.23312079  1
  Te  Te172  1  0.94495232  0.05162787  0.60325931  1
  Te  Te173  1  0.94553007  0.07240534  0.89854920  1
  Te  Te174  1  0.92030046  0.41014739  0.23659820  1
  Te  Te175  1  0.92098462  0.40910781  0.59056744  1
  Te  Te176  1  0.96805100  0.41753453  0.92982183  1
  Te  Te177  1  0.90527555  0.75871577  0.26246813  1
  Te  Te178  1  0.87539523  0.76933839  0.58776423  1
  Te  Te179  1  0.91660514  0.75420926  0.91924719  1
