# generated using pymatgen
data_In2Te3
_symmetry_space_group_name_H-M   'P 1'
_cell_length_a   18.86785765
_cell_length_b   18.86401616
_cell_length_c   18.87737059
_cell_angle_alpha   89.99356155
_cell_angle_beta   90.01102843
_cell_angle_gamma   90.00086333
_symmetry_Int_Tables_number   1
_chemical_formula_structural   In2Te3
_chemical_formula_sum   'In72 Te108'
_cell_volume   6718.90099709
_cell_formula_units_Z   36
loop_
 _symmetry_equiv_pos_site_id
 _symmetry_equiv_pos_as_xyz
  1  'x, y, z'
loop_
 _atom_site_type_symbol
 _atom_site_label
 _atom_site_symmetry_multiplicity
 _atom_site_fract_x
 _atom_site_fract_y
 _atom_site_fract_z
 _atom_site_occupancy
  In  In0  1  0.00772335  0.15433029  0.50858036  1
  In  In1  1  0.52168713  0.31942042  0.14892520  1
  In  In2  1  0.00408265  0.83303265  0.81981503  1
  In  In3  1  0.68043796  0.68085410  0.01697087  1
  In  In4  1  0.84747212  0.49163156  0.00609686  1
  In  In5  1  0.68140594  0.50361870  0.18228626  1
  In  In6  1  0.17408468  0.86040001  -0.02550062  1
  In  In7  1  0.15313543  0.31867055  0.84100244  1
  In  In8  1  0.68201040  0.00837538  0.66699135  1
  In  In9  1  0.48534329  0.00232660  0.82468288  1
  In  In10  1  0.32470902  0.01711492  -0.00212384  1
  In  In11  1  0.69931909  0.82056232  0.82280325  1
  In  In12  1  -0.01449218  0.80955970  0.50376318  1
  In  In13  1  0.16693351  0.16608808  0.65609379  1
  In  In14  1  0.66472868  0.00047314  0.33011149  1
  In  In15  1  0.15766672  0.48929660  0.66240265  1
  In  In16  1  0.32664321  0.65816735  0.34993042  1
  In  In17  1  0.15794276  0.50945163  0.32398621  1
  In  In18  1  0.82037589  0.52923408  0.63917824  1
  In  In19  1  0.67069333  0.83643102  0.17787528  1
  In  In20  1  -0.00299950  0.65562880  0.00948528  1
  In  In21  1  0.31241641  0.30799753  0.36386050  1
  In  In22  1  0.35500344  0.32787406  0.66113426  1
  In  In23  1  0.50300607  0.84554333  0.63707605  1
  In  In24  1  0.32379643  0.82252632  0.49417562  1
  In  In25  1  0.50421977  0.51851529  0.33022586  1
  In  In26  1  0.82501609  0.33104185  0.49116978  1
  In  In27  1  0.53112174  0.16695418  0.32677685  1
  In  In28  1  0.50297308  0.48776906  -0.01510636  1
  In  In29  1  0.50821517  0.16687874  0.01325185  1
  In  In30  1  0.14449724  0.00299470  0.83611864  1
  In  In31  1  0.33142718  0.17586442  0.15830158  1
  In  In32  1  0.14594524  0.67740407  0.81137623  1
  In  In33  1  0.34935679  -0.00623145  0.32164589  1
  In  In34  1  0.32609124  0.50726200  0.49024770  1
  In  In35  1  0.14999296  0.49238387  -0.00910207  1
  In  In36  1  0.00916142  0.34927619  0.32466531  1
  In  In37  1  0.33530708  0.85546408  0.81141907  1
  In  In38  1  0.30234493  0.68283860  0.65943457  1
  In  In39  1  0.84097394  0.82846510  0.33818193  1
  In  In40  1  0.29125182  0.01250758  0.68320548  1
  In  In41  1  0.49372296  0.32691125  0.83420296  1
  In  In42  1  0.83300847  0.31439510  0.17043832  1
  In  In43  1  -0.01712840  0.84744919  0.15745625  1
  In  In44  1  0.34826780  0.82124151  0.17749451  1
  In  In45  1  0.51911931  0.67264311  0.48854255  1
  In  In46  1  -0.02904373  0.30029639  0.69027375  1
  In  In47  1  0.81551271  0.15428291  0.33586896  1
  In  In48  1  -0.00512168  -0.01138196  0.33992528  1
  In  In49  1  0.68845024  0.19087983  0.84284485  1
  In  In50  1  0.65361560  0.47376484  0.83570362  1
  In  In51  1  0.68861819  0.32674355  0.67030805  1
  In  In52  1  0.51726573  0.50783633  0.66413420  1
  In  In53  1  -0.01925568  0.31640578  -0.00030801  1
  In  In54  1  0.15326205  0.66428682  0.17346065  1
  In  In55  1  0.52506232  0.31747699  0.50121845  1
  In  In56  1  -0.04412964  0.01009473  0.66851514  1
  In  In57  1  0.67934751  0.01145158  0.02132093  1
  In  In58  1  0.15975109  -0.00359435  0.50712208  1
  In  In59  1  0.14255193  0.00918266  0.17787803  1
  In  In60  1  0.00394861  0.50711250  0.49696597  1
  In  In61  1  0.83684188  0.65697426  0.82101218  1
  In  In62  1  0.82338932  0.51023543  0.34479078  1
  In  In63  1  0.68015322  0.83358147  0.50547775  1
  In  In64  1  0.17536570  0.34669752  0.15851872  1
  In  In65  1  0.51433029  0.68187752  0.18673237  1
  In  In66  1  0.33543097  0.33191151  0.00132972  1
  In  In67  1  0.82431475  0.85271572  0.00896887  1
  In  In68  1  -0.00209288  0.18348817  0.15018977  1
  In  In69  1  0.51361774  0.66786562  0.84708563  1
  In  In70  1  0.32625185  0.66162843  0.01804467  1
  In  In71  1  0.51545650  0.00720100  0.49873618  1
  Te  Te72  1  0.07832768  0.08688972  0.07212114  1
  Te  Te73  1  0.09314425  0.08739796  0.40259671  1
  Te  Te74  1  0.06216291  0.09646375  0.74391799  1
  Te  Te75  1  0.06031673  0.41625649  0.08683900  1
  Te  Te76  1  0.10127968  0.41113355  0.42713704  1
  Te  Te77  1  0.06549898  0.40493005  0.75301262  1
  Te  Te78  1  0.09243646  0.76241150  0.06910787  1
  Te  Te79  1  0.10799601  0.74666714  0.45312123  1
  Te  Te80  1  0.04796832  0.73509806  0.71677901  1
  Te  Te81  1  0.42521304  0.07197282  0.09894693  1
  Te  Te82  1  0.42669634  0.09208400  0.40941361  1
  Te  Te83  1  0.40333065  0.08877123  0.73920485  1
  Te  Te84  1  0.41808248  0.41975834  0.09203721  1
  Te  Te85  1  0.42455183  0.41479342  0.42069879  1
  Te  Te86  1  0.41995364  0.43268775  0.75366364  1
  Te  Te87  1  0.43573935  0.75056664  0.07358634  1
  Te  Te88  1  0.42787289  0.75890085  0.40287184  1
  Te  Te89  1  0.42032178  0.74853452  0.74458327  1
  Te  Te90  1  0.79766053  0.07729075  0.07843340  1
  Te  Te91  1  0.74468663  0.06976740  0.43243230  1
  Te  Te92  1  0.76354416  0.08882305  0.76407201  1
  Te  Te93  1  0.74645459  0.40839642  0.08414398  1
  Te  Te94  1  0.73553500  0.40755701  0.40399945  1
  Te  Te95  1  0.76768239  0.42878142  0.74855449  1
  Te  Te96  1  0.77992017  0.74657956  0.10734102  1
  Te  Te97  1  0.77502015  0.73448755  0.43939691  1
  Te  Te98  1  0.78512082  0.75333639  0.71503178  1
  Te  Te99  1  0.09632638  0.25151453  0.24696744  1
  Te  Te100  1  0.07706947  0.26599724  0.58469835  1
  Te  Te101  1  0.06719250  0.22161402  0.91842373  1
  Te  Te102  1  0.05631953  0.59368262  0.25847865  1
  Te  Te103  1  0.06715524  0.59083654  0.60358011  1
  Te  Te104  1  0.06602038  0.57864766  0.89816514  1
  Te  Te105  1  0.08618522  0.89557655  0.26187029  1
  Te  Te106  1  0.05510394  0.92469334  0.58734393  1
  Te  Te107  1  0.04961659  0.93347265  0.93219549  1
  Te  Te108  1  0.41800625  0.25769230  0.25294402  1
  Te  Te109  1  0.43376274  0.23431617  0.58104259  1
  Te  Te110  1  0.40909680  0.23051791  0.91577888  1
  Te  Te111  1  0.40499484  0.58871859  0.23858548  1
  Te  Te112  1  0.41179514  0.59556880  0.58263849  1
  Te  Te113  1  0.40700781  0.58158548  0.91337530  1
  Te  Te114  1  0.44320494  0.90674305  0.24898960  1
  Te  Te115  1  0.38981385  0.92976245  0.58412938  1
  Te  Te116  1  0.41370126  0.91368442  0.92687058  1
  Te  Te117  1  0.73214089  0.24020360  0.24837891  1
  Te  Te118  1  0.76869637  0.23178529  0.58816894  1
  Te  Te119  1  0.78582491  0.28641134  0.90078420  1
  Te  Te120  1  0.73996619  0.60980046  0.26684784  1
  Te  Te121  1  0.76343809  0.60164967  0.52352713  1
  Te  Te122  1  0.74077161  0.57936384  0.91948515  1
  Te  Te123  1  0.77048116  0.92749506  0.24670544  1
  Te  Te124  1  0.76719342  0.90887849  0.59805855  1
  Te  Te125  1  0.75357304  0.93688144  0.90449534  1
  Te  Te126  1  0.23100418  0.24065535  0.06397295  1
  Te  Te127  1  0.23405102  0.21831363  0.44479706  1
  Te  Te128  1  0.25313543  0.25048831  0.74884391  1
  Te  Te129  1  0.23763180  0.56396855  0.09412970  1
  Te  Te130  1  0.21589964  0.59761511  0.43652936  1
  Te  Te131  1  0.24630911  0.57731563  0.75309462  1
  Te  Te132  1  0.25023932  0.91595146  0.09518079  1
  Te  Te133  1  0.24543792  0.91907191  0.40647201  1
  Te  Te134  1  0.20975949  0.89806783  0.74057542  1
  Te  Te135  1  0.61967109  0.22239232  0.09442964  1
  Te  Te136  1  0.61986696  0.23889002  0.42008622  1
  Te  Te137  1  0.58228344  0.24450868  0.74366278  1
  Te  Te138  1  0.58090289  0.57946409  0.08074510  1
  Te  Te139  1  0.60289812  0.56783068  0.42859532  1
  Te  Te140  1  0.60693197  0.59477749  0.75156683  1
  Te  Te141  1  0.59097856  0.91002863  0.07914702  1
  Te  Te142  1  0.57969166  0.90178064  0.41267177  1
  Te  Te143  1  0.58186791  0.90400949  0.75359095  1
  Te  Te144  1  0.87139584  0.21387011  0.05367530  1
  Te  Te145  1  0.92825258  0.24849937  0.40486175  1
  Te  Te146  1  0.87626602  0.22634028  0.78838832  1
  Te  Te147  1  0.90579416  0.58730860  0.10114110  1
  Te  Te148  1  0.91402061  0.59957127  0.42359818  1
  Te  Te149  1  0.92353880  0.57418571  0.73494561  1
  Te  Te150  1  0.90582194  0.95376292  0.08504492  1
  Te  Te151  1  0.90101311  0.92724146  0.43818381  1
  Te  Te152  1  0.89732732  0.92220650  0.77176443  1
  Te  Te153  1  0.24969991  0.08880889  0.25223801  1
  Te  Te154  1  0.26350717  0.10674628  0.55262888  1
  Te  Te155  1  0.25011110  0.08853706  0.89384309  1
  Te  Te156  1  0.26239745  0.41314965  0.26494238  1
  Te  Te157  1  0.25355788  0.40638274  0.57691679  1
  Te  Te158  1  0.25154217  0.41675361  0.90679109  1
  Te  Te159  1  0.24295151  0.75041597  0.26143061  1
  Te  Te160  1  0.20881062  0.76072043  0.57053874  1
  Te  Te161  1  0.25433819  0.74720793  0.90884114  1
  Te  Te162  1  0.59590143  0.08128314  0.22618331  1
  Te  Te163  1  0.58643943  0.09294034  0.59311362  1
  Te  Te164  1  0.58501690  0.08471491  0.90781366  1
  Te  Te165  1  0.58410321  0.41142475  0.25406984  1
  Te  Te166  1  0.60741577  0.42211655  0.58065592  1
  Te  Te167  1  0.59443043  0.37639822  0.93701496  1
  Te  Te168  1  0.62394720  0.73017929  0.27347225  1
  Te  Te169  1  0.59935795  0.73654945  0.60042350  1
  Te  Te170  1  0.59657107  0.76921568  0.92479399  1
  Te  Te171  1  0.92640623  0.09164665  0.25197082  1
  Te  Te172  1  0.88588340  0.10976259  0.58058513  1
  Te  Te173  1  0.95442954  0.12472108  0.86799742  1
  Te  Te174  1  0.90725590  0.42482897  0.24405759  1
  Te  Te175  1  0.91798426  0.40721748  0.58451378  1
  Te  Te176  1  0.91485214  0.40831927  0.90345554  1
  Te  Te177  1  0.94327103  0.75198523  0.26220746  1
  Te  Te178  1  0.88549807  0.74873140  0.59505786  1
  Te  Te179  1  0.91044693  0.75070939  0.92350589  1
