# generated using pymatgen
data_In2Te3
_symmetry_space_group_name_H-M   'P 1'
_cell_length_a   18.82813185
_cell_length_b   18.83408584
_cell_length_c   18.82824681
_cell_angle_alpha   90.09453720
_cell_angle_beta   89.96368762
_cell_angle_gamma   90.15563691
_symmetry_Int_Tables_number   1
_chemical_formula_structural   In2Te3
_chemical_formula_sum   'In72 Te108'
_cell_volume   6676.66182641
_cell_formula_units_Z   36
loop_
 _symmetry_equiv_pos_site_id
 _symmetry_equiv_pos_as_xyz
  1  'x, y, z'
loop_
 _atom_site_type_symbol
 _atom_site_label
 _atom_site_symmetry_multiplicity
 _atom_site_fract_x
 _atom_site_fract_y
 _atom_site_fract_z
 _atom_site_occupancy
  In  In0  1  0.85598906  0.65568082  0.51674148  1
  In  In1  1  0.84666457  0.31607687  0.50525250  1
  In  In2  1  0.46516522  0.49083874  0.36549136  1
  In  In3  1  0.66417760  0.33722061  0.33525345  1
  In  In4  1  0.49608116  0.85129708  0.66407764  1
  In  In5  1  0.31884861  0.34264305  0.67456468  1
  In  In6  1  0.01256444  0.01399182  -0.00440660  1
  In  In7  1  0.01561936  0.81401313  0.81435783  1
  In  In8  1  0.82954751  0.23556613  -0.03929571  1
  In  In9  1  0.67400792  0.18485538  0.13424602  1
  In  In10  1  0.63414429  0.02101332  -0.04272822  1
  In  In11  1  0.48146961  0.15354695  0.31778612  1
  In  In12  1  0.66794097  0.15263074  0.51701719  1
  In  In13  1  0.84604503  0.63641368  0.82403444  1
  In  In14  1  -0.00041146  0.50361780  0.49854207  1
  In  In15  1  0.32047387  0.16067315  0.50445359  1
  In  In16  1  0.83217557  0.83109279  0.65245074  1
  In  In17  1  0.16037537  0.15425277  0.32849291  1
  In  In18  1  0.00325337  0.83726985  0.18190107  1
  In  In19  1  0.83586470  0.17221368  0.67689935  1
  In  In20  1  0.15690701  0.51794575  0.34477641  1
  In  In21  1  0.16298658  0.16606430  -0.03087433  1
  In  In22  1  0.86454293  0.66195720  0.15093083  1
  In  In23  1  0.32016059  -0.00468537  0.34961429  1
  In  In24  1  0.65785620  0.51695270  0.53579256  1
  In  In25  1  0.01553678  0.63429593  0.70665748  1
  In  In26  1  0.29317486  0.52730771  0.13908337  1
  In  In27  1  0.83040671  0.82937868  0.01364218  1
  In  In28  1  0.83455633  0.15989178  0.32707596  1
  In  In29  1  0.03792288  0.65228078  -0.02571071  1
  In  In30  1  0.49147976  0.66817231  0.84175601  1
  In  In31  1  0.31427904  0.82455357  0.17167057  1
  In  In32  1  0.66812774  0.66524652  0.69500595  1
  In  In33  1  0.00706979  0.36449490  0.33157887  1
  In  In34  1  0.47109760  0.83488568  -0.02794896  1
  In  In35  1  0.49953487  0.34464098  0.50807280  1
  In  In36  1  0.66379398  -0.01231495  0.34048893  1
  In  In37  1  0.19608388  0.82573835  -0.01513230  1
  In  In38  1  0.33926343  0.34271848  -0.02519615  1
  In  In39  1  0.61966833  0.83828434  0.82923931  1
  In  In40  1  0.83370063  0.52243537  0.35414906  1
  In  In41  1  0.81793107  0.02620506  0.17984017  1
  In  In42  1  0.35347157  0.17718574  0.15367368  1
  In  In43  1  0.16620411  -0.02298531  0.14349035  1
  In  In44  1  0.48711932  -0.00020491  0.16878263  1
  In  In45  1  0.00278646  0.00437673  0.63831571  1
  In  In46  1  0.01620068  0.32510648  0.64680452  1
  In  In47  1  0.67263330  0.85656794  0.51154916  1
  In  In48  1  0.47495112  0.65728007  0.52415394  1
  In  In49  1  0.34741846  0.82846412  0.50511388  1
  In  In50  1  0.17484730  0.18294541  0.66575479  1
  In  In51  1  0.51348050  0.66811895  0.17549958  1
  In  In52  1  -0.00542985  0.18645740  0.82228695  1
  In  In53  1  0.14480324  0.68918795  0.48585021  1
  In  In54  1  0.67661940  0.67930184  0.33982752  1
  In  In55  1  0.18013463  0.34580859  0.82140258  1
  In  In56  1  0.49805340  0.14471539  0.68843330  1
  In  In57  1  0.16550498  0.35517133  0.16324825  1
  In  In58  1  0.01708953  0.51773488  0.16625869  1
  In  In59  1  0.20411472  -0.00419052  0.81655240  1
  In  In60  1  0.50014648  0.30390813  0.15400282  1
  In  In61  1  -0.01855622  -0.02069843  0.36305576  1
  In  In62  1  0.67938001  0.85342261  0.16196938  1
  In  In63  1  0.47975496  0.32813665  0.81034638  1
  In  In64  1  0.67149881  0.48822715  0.82455789  1
  In  In65  1  0.81419435  0.00769727  0.82261882  1
  In  In66  1  0.31662518  0.63932337  0.67454313  1
  In  In67  1  0.67042845  0.46821190  0.15574463  1
  In  In68  1  0.85533523  0.35692789  0.11062310  1
  In  In69  1  0.32029467  0.68062600  0.32814473  1
  In  In70  1  0.48034603  0.50560246  -0.00696345  1
  In  In71  1  0.17840239  -0.01685050  0.51422108  1
  Te  Te72  1  0.09384781  0.10008332  0.09066269  1
  Te  Te73  1  0.08490710  0.07173331  0.43246061  1
  Te  Te74  1  0.08545966  0.08553067  0.75518627  1
  Te  Te75  1  0.07828803  0.42609161  0.06942463  1
  Te  Te76  1  0.10418510  0.40750221  0.44077310  1
  Te  Te77  1  0.10269845  0.42099963  0.71986178  1
  Te  Te78  1  0.07893608  0.76762505  0.06744310  1
  Te  Te79  1  0.04807140  0.77910840  0.41715778  1
  Te  Te80  1  0.12383705  0.72434803  0.76531749  1
  Te  Te81  1  0.44251415  0.09615186  0.06685335  1
  Te  Te82  1  0.42446978  0.07096852  0.43050547  1
  Te  Te83  1  0.43411278  0.04557189  0.78268657  1
  Te  Te84  1  0.40464902  0.41898997  0.09785437  1
  Te  Te85  1  0.37250586  0.41010441  0.45403951  1
  Te  Te86  1  0.39170852  0.43747080  0.76116400  1
  Te  Te87  1  0.41774112  0.74823175  0.08786674  1
  Te  Te88  1  0.43348258  0.74596648  0.40891042  1
  Te  Te89  1  0.41284015  0.74526861  0.73680853  1
  Te  Te90  1  0.74248137  0.07405212  0.05517511  1
  Te  Te91  1  0.76094300  0.07034641  0.42556656  1
  Te  Te92  1  0.72689954  0.11127209  0.76180044  1
  Te  Te93  1  0.74375523  0.42266557  0.03426796  1
  Te  Te94  1  0.74703002  0.42207599  0.43178437  1
  Te  Te95  1  0.76298387  0.37779730  0.78797769  1
  Te  Te96  1  0.74216308  0.73261876  0.09067591  1
  Te  Te97  1  0.76343149  0.75124570  0.44161609  1
  Te  Te98  1  0.75514494  0.76618004  0.76817037  1
  Te  Te99  1  0.08012617  0.26100546  0.24709503  1
  Te  Te100  1  0.08191127  0.22574732  0.56060642  1
  Te  Te101  1  0.07571748  0.27638121  0.91400026  1
  Te  Te102  1  0.10078797  0.61312276  0.24337787  1
  Te  Te103  1  0.09579695  0.58177413  0.58517706  1
  Te  Te104  1  0.12887867  0.56085303  0.89936445  1
  Te  Te105  1  0.09428781  0.92571004  0.26512183  1
  Te  Te106  1  0.10137976  0.90044939  0.60931420  1
  Te  Te107  1  0.08951641  0.91586592  0.90900184  1
  Te  Te108  1  0.39983248  0.27000477  0.26768131  1
  Te  Te109  1  0.41904189  0.24198111  0.59147958  1
  Te  Te110  1  0.42596900  0.23711001  0.91865459  1
  Te  Te111  1  0.40767513  0.58241644  0.24630503  1
  Te  Te112  1  0.41402947  0.55063370  0.60450552  1
  Te  Te113  1  0.38495627  0.59262177  0.91736937  1
  Te  Te114  1  0.40989381  0.90732107  0.26005773  1
  Te  Te115  1  0.39692935  0.93559103  0.59436942  1
  Te  Te116  1  0.40467090  0.91089128  0.86208237  1
  Te  Te117  1  0.75601794  0.26040510  0.24237843  1
  Te  Te118  1  0.73597920  0.26437982  0.59336443  1
  Te  Te119  1  0.71605597  0.24820260  0.86006790  1
  Te  Te120  1  0.74155650  0.57719868  0.24410641  1
  Te  Te121  1  0.76954463  0.57842667  0.61923678  1
  Te  Te122  1  0.73605728  0.59261528  0.90937723  1
  Te  Te123  1  0.77477279  0.90926371  0.26779599  1
  Te  Te124  1  0.75428199  0.94371236  0.59886458  1
  Te  Te125  1  0.74035643  0.90848688  0.91927517  1
  Te  Te126  1  0.24849948  0.25678614  0.07533609  1
  Te  Te127  1  0.24944711  0.24296226  0.40539380  1
  Te  Te128  1  0.27020319  0.23315109  0.77238150  1
  Te  Te129  1  0.22679117  0.62324493  0.04884740  1
  Te  Te130  1  0.25615130  0.59314095  0.43295844  1
  Te  Te131  1  0.21154027  0.58440457  0.76728259  1
  Te  Te132  1  0.28327820  0.92727096  0.06174917  1
  Te  Te133  1  0.23847621  0.88524479  0.41240671  1
  Te  Te134  1  0.27762503  0.87435806  0.78040585  1
  Te  Te135  1  0.59748173  0.27520510  0.04777795  1
  Te  Te136  1  0.57887662  0.23816582  0.41280160  1
  Te  Te137  1  0.58961072  0.25263666  0.74123978  1
  Te  Te138  1  0.58532075  0.57368771  0.08092662  1
  Te  Te139  1  0.58510507  0.58036848  0.41618779  1
  Te  Te140  1  0.56346206  0.57101082  0.74957962  1
  Te  Te141  1  0.57569318  0.91836422  0.06986114  1
  Te  Te142  1  0.56935401  0.91140084  0.42253812  1
  Te  Te143  1  0.60004072  0.94033272  0.72536544  1
  Te  Te144  1  0.91293957  0.22389690  0.08443114  1
  Te  Te145  1  0.93411923  0.24778158  0.40428700  1
  Te  Te146  1  0.90756898  0.28823851  0.75129745  1
  Te  Te147  1  0.92809095  0.57313557  0.04823874  1
  Te  Te148  1  0.94803509  0.60914499  0.39989792  1
  Te  Te149  1  0.94345000  0.53371710  0.78868577  1
  Te  Te150  1  0.91642341  0.93397395  0.08709589  1
  Te  Te151  1  0.94125541  0.87621336  0.45917005  1
  Te  Te152  1  0.92334523  0.92347677  0.75531480  1
  Te  Te153  1  0.26330740  0.07760733  0.23388793  1
  Te  Te154  1  0.26243324  0.06841483  0.61207213  1
  Te  Te155  1  0.26802124  0.07591498  0.92271901  1
  Te  Te156  1  0.25242883  0.43682521  0.25737701  1
  Te  Te157  1  0.25391190  0.39481880  0.55516406  1
  Te  Te158  1  0.23767724  0.43938010  0.92608922  1
  Te  Te159  1  0.21362478  0.74126205  0.24380240  1
  Te  Te160  1  0.24892421  0.74554081  0.58558048  1
  Te  Te161  1  0.28045246  0.71463700  0.93395882  1
  Te  Te162  1  0.60151711  0.08871163  0.24088283  1
  Te  Te163  1  0.57501256  0.06323314  0.58832862  1
  Te  Te164  1  0.53217422  0.10375305  0.89123507  1
  Te  Te165  1  0.56353471  0.41832004  0.25568152  1
  Te  Te166  1  0.58484322  0.41203496  0.60792396  1
  Te  Te167  1  0.56489176  0.41432999  0.90883743  1
  Te  Te168  1  0.58885376  0.77262862  0.25728351  1
  Te  Te169  1  0.59126307  0.73810353  0.58574306  1
  Te  Te170  1  0.58592753  0.73912548  0.93893391  1
  Te  Te171  1  0.94002496  0.08080791  0.25101480  1
  Te  Te172  1  0.90530398  0.09252029  0.57351398  1
  Te  Te173  1  0.91097600  0.09238896  0.91127473  1
  Te  Te174  1  0.90195248  0.43243176  0.24495579  1
  Te  Te175  1  0.90698634  0.42623599  0.58963168  1
  Te  Te176  1  0.89086293  0.37289798  0.96119867  1
  Te  Te177  1  0.90664763  0.75444769  0.25608844  1
  Te  Te178  1  0.94279290  0.73646965  0.61169806  1
  Te  Te179  1  0.92109382  0.75006971  0.91878278  1
