# generated using pymatgen
data_In2Te3
_symmetry_space_group_name_H-M   'P 1'
_cell_length_a   18.91476511
_cell_length_b   18.89507934
_cell_length_c   18.92061055
_cell_angle_alpha   90.00084092
_cell_angle_beta   89.95170149
_cell_angle_gamma   90.03331558
_symmetry_Int_Tables_number   1
_chemical_formula_structural   In2Te3
_chemical_formula_sum   'In72 Te108'
_cell_volume   6762.14674274
_cell_formula_units_Z   36
loop_
 _symmetry_equiv_pos_site_id
 _symmetry_equiv_pos_as_xyz
  1  'x, y, z'
loop_
 _atom_site_type_symbol
 _atom_site_label
 _atom_site_symmetry_multiplicity
 _atom_site_fract_x
 _atom_site_fract_y
 _atom_site_fract_z
 _atom_site_occupancy
  In  In0  1  0.66583834  0.81666737  0.14574730  1
  In  In1  1  0.67270599  0.64666306  0.68011583  1
  In  In2  1  0.17817235  0.50623683  0.34429291  1
  In  In3  1  0.84256976  0.15492235  0.32659694  1
  In  In4  1  0.65349808  0.49276836  0.83562318  1
  In  In5  1  0.14614793  0.48462701  0.71499866  1
  In  In6  1  0.33834968  0.66280243  0.66460024  1
  In  In7  1  0.15547320  0.85663140  -0.01624798  1
  In  In8  1  0.16383966  -0.00781594  0.48301613  1
  In  In9  1  0.64633418  0.17107126  0.15216198  1
  In  In10  1  0.15863552  -0.00333222  0.19612607  1
  In  In11  1  0.32223161  -0.00915937  0.63106085  1
  In  In12  1  0.82414150  0.16399044  -0.01122980  1
  In  In13  1  0.29648307  0.33273175  0.68278735  1
  In  In14  1  0.48168171  0.34521159  0.15697141  1
  In  In15  1  0.85995108  0.69417696  0.85109599  1
  In  In16  1  0.31858886  0.82724649  0.19096113  1
  In  In17  1  0.33833925  0.51069878  0.85445970  1
  In  In18  1  0.84193404  0.36203868  0.15509385  1
  In  In19  1  0.02580272  0.67389831  0.35729888  1
  In  In20  1  0.01076987  0.50195282  0.51686057  1
  In  In21  1  0.32218620  0.33962143  0.01391610  1
  In  In22  1  0.50415363  -0.01012447  0.50329004  1
  In  In23  1  0.49424219  0.33854303  0.84027126  1
  In  In24  1  0.33631330  0.82957788  0.82101984  1
  In  In25  1  0.86647578  0.16763213  0.70088318  1
  In  In26  1  0.85420632  0.49902122  0.32402724  1
  In  In27  1  0.84203068  0.84265085  0.33200125  1
  In  In28  1  0.84990612  0.33347032  0.84190391  1
  In  In29  1  0.17804820  0.15147361  0.01509820  1
  In  In30  1  0.65788912  0.81890432  0.86866810  1
  In  In31  1  0.66441655  0.17207421  0.48147021  1
  In  In32  1  0.50176441  0.65781974  0.15775566  1
  In  In33  1  0.66394625  0.32096492  0.65981733  1
  In  In34  1  0.86084531  -0.03880663  0.14501064  1
  In  In35  1  0.67153857  0.66215121  0.30073328  1
  In  In36  1  0.15538099  0.82310369  0.69016367  1
  In  In37  1  0.82297609  0.51796844  0.00412688  1
  In  In38  1  0.64701233  0.30426306  0.32957437  1
  In  In39  1  0.85937210  0.70535453  0.13263152  1
  In  In40  1  0.66984566  0.00059064  -0.01529327  1
  In  In41  1  0.34802336  0.00751538  -0.00065184  1
  In  In42  1  0.14749583  0.50797681  -0.03134426  1
  In  In43  1  0.84917221  0.85947498  0.67527244  1
  In  In44  1  0.48939921  0.67419754  0.50188074  1
  In  In45  1  0.50827400  0.17132730  0.33822127  1
  In  In46  1  0.34154597  0.83560646  0.48264236  1
  In  In47  1  -0.00350230  0.68931358  0.69106957  1
  In  In48  1  0.50539584  0.00199062  0.84199792  1
  In  In49  1  0.15908946  0.66875463  0.48440887  1
  In  In50  1  0.48207245  -0.01387666  0.16581532  1
  In  In51  1  0.32197873  0.17496571  0.82249392  1
  In  In52  1  0.82543221  0.34459971  0.50745584  1
  In  In53  1  0.65193330  0.81763940  0.47327604  1
  In  In54  1  0.47133943  0.50124448  0.32394826  1
  In  In55  1  0.65480978  0.52092206  0.14449663  1
  In  In56  1  0.30111891  0.16111741  0.50627574  1
  In  In57  1  0.48892484  0.18916182  0.66993582  1
  In  In58  1  0.00247025  0.48957689  0.16243500  1
  In  In59  1  0.88291605  0.00165222  0.84259418  1
  In  In60  1  0.34651446  0.66397950  0.00480229  1
  In  In61  1  0.32108699  0.32037928  0.34919575  1
  In  In62  1  0.00681174  0.81578082  0.49906522  1
  In  In63  1  0.01586166  0.15634918  0.17955399  1
  In  In64  1  0.64430510  0.48733188  0.50945130  1
  In  In65  1  0.17380892  0.33247562  0.50162697  1
  In  In66  1  0.31417441  0.50808704  0.14823061  1
  In  In67  1  0.83403627  0.02510903  0.50328644  1
  In  In68  1  0.68182763  0.00225200  0.68526552  1
  In  In69  1  0.84571601  0.51361452  0.65962634  1
  In  In70  1  0.01757137  0.31671232  -0.00663507  1
  In  In71  1  0.01042174  0.15776621  0.50170484  1
  Te  Te72  1  0.07721731  0.05748541  0.08203596  1
  Te  Te73  1  0.05898594  0.05836597  0.40365313  1
  Te  Te74  1  0.02385795  0.05208459  0.79710091  1
  Te  Te75  1  0.10070209  0.40853568  0.08145322  1
  Te  Te76  1  0.07902617  0.41401171  0.41424386  1
  Te  Te77  1  0.03856877  0.40005968  0.76363021  1
  Te  Te78  1  0.05659809  0.77209682  0.05934316  1
  Te  Te79  1  0.12216973  0.79290916  0.39998687  1
  Te  Te80  1  0.09934781  0.72858261  0.79460834  1
  Te  Te81  1  0.41493049  0.09512004  0.09528064  1
  Te  Te82  1  0.41842960  0.09423372  0.43364464  1
  Te  Te83  1  0.41139814  0.07421212  0.73373154  1
  Te  Te84  1  0.42261291  0.44846725  0.06147003  1
  Te  Te85  1  0.40202522  0.41914587  0.42308284  1
  Te  Te86  1  0.40261645  0.41879805  0.75064660  1
  Te  Te87  1  0.41689419  0.76633878  0.09143877  1
  Te  Te88  1  0.41286425  0.74145801  0.39615440  1
  Te  Te89  1  0.42954604  0.74750991  0.74307754  1
  Te  Te90  1  0.75958020  0.07395827  0.09495220  1
  Te  Te91  1  0.73575147  0.07018371  0.39492571  1
  Te  Te92  1  0.76444319  0.08602499  0.77817633  1
  Te  Te93  1  0.73092200  0.41283010  0.06715813  1
  Te  Te94  1  0.74512460  0.41598052  0.39993568  1
  Te  Te95  1  0.75866364  0.41361735  0.73731120  1
  Te  Te96  1  0.75531598  0.75798911  0.04481916  1
  Te  Te97  1  0.75869269  0.73628589  0.40201919  1
  Te  Te98  1  0.75917207  0.75827114  0.74778329  1
  Te  Te99  1  0.12514690  0.23308056  0.24321375  1
  Te  Te100  1  0.08704431  0.25042902  0.58739901  1
  Te  Te101  1  0.11232114  0.23856707  0.91319534  1
  Te  Te102  1  0.08613101  0.58360343  0.25009161  1
  Te  Te103  1  0.08834769  0.59862608  0.60493726  1
  Te  Te104  1  0.07544949  0.59969090  0.88081825  1
  Te  Te105  1  0.09613191  0.87122375  0.24527798  1
  Te  Te106  1  0.08285329  0.91035039  0.58927175  1
  Te  Te107  1  0.08126646  0.93271601  0.87800957  1
  Te  Te108  1  0.41142022  0.24711938  0.24989787  1
  Te  Te109  1  0.38691326  0.25953931  0.58349449  1
  Te  Te110  1  0.40600118  0.24665327  0.92474538  1
  Te  Te111  1  0.38904558  0.59989410  0.24328989  1
  Te  Te112  1  0.41177824  0.57322575  0.57370371  1
  Te  Te113  1  0.43925774  0.61280287  0.89887784  1
  Te  Te114  1  0.38648699  0.93530530  0.26880301  1
  Te  Te115  1  0.43108631  0.89276155  0.59393369  1
  Te  Te116  1  0.42615051  0.90172647  0.92292956  1
  Te  Te117  1  0.75956207  0.25289138  0.24030379  1
  Te  Te118  1  0.76617177  0.22333784  0.58930363  1
  Te  Te119  1  0.74545607  0.26201510  0.91579672  1
  Te  Te120  1  0.77779185  0.58302560  0.22159414  1
  Te  Te121  1  0.74994585  0.58212140  0.56388123  1
  Te  Te122  1  0.75214007  0.59462226  0.89602725  1
  Te  Te123  1  0.74819360  0.91050724  0.23490111  1
  Te  Te124  1  0.74326711  0.91786497  0.57223431  1
  Te  Te125  1  0.76702034  0.91681363  0.90648854  1
  Te  Te126  1  0.25356709  0.24410159  0.10489247  1
  Te  Te127  1  0.21098545  0.21667515  0.39899888  1
  Te  Te128  1  0.20864336  0.23523983  0.75013098  1
  Te  Te129  1  0.22331183  0.59864303  0.06850898  1
  Te  Te130  1  0.26742340  0.59312216  0.42179937  1
  Te  Te131  1  0.24701686  0.58974441  0.76336460  1
  Te  Te132  1  0.24986302  0.92560295  0.08653122  1
  Te  Te133  1  0.28143508  0.94666064  0.40222969  1
  Te  Te134  1  0.24658850  0.92943144  0.74861791  1
  Te  Te135  1  0.57005146  0.26440794  0.07104771  1
  Te  Te136  1  0.55630605  0.27187324  0.44528430  1
  Te  Te137  1  0.59173195  0.24134660  0.76716166  1
  Te  Te138  1  0.60105818  0.62369683  0.05041829  1
  Te  Te139  1  0.58599841  0.58163048  0.39832660  1
  Te  Te140  1  0.57077395  0.55489181  0.73081354  1
  Te  Te141  1  0.57846336  0.91423454  0.06949147  1
  Te  Te142  1  0.57628348  0.91725508  0.39899946  1
  Te  Te143  1  0.59047812  0.90703803  0.75922364  1
  Te  Te144  1  0.91981409  0.24415042  0.09645555  1
  Te  Te145  1  0.91143879  0.24804039  0.42434288  1
  Te  Te146  1  0.96115522  0.26274361  0.76870397  1
  Te  Te147  1  0.93932362  0.59157000  0.06913776  1
  Te  Te148  1  0.92060953  0.58711192  0.42847557  1
  Te  Te149  1  0.92538808  0.57880424  0.77046936  1
  Te  Te150  1  0.94944488  0.89000499  0.05081594  1
  Te  Te151  1  0.92380018  0.92533103  0.42854064  1
  Te  Te152  1  0.96033748  0.88880919  0.77197671  1
  Te  Te153  1  0.22586212  0.11924843  0.24796042  1
  Te  Te154  1  0.20852468  0.08546212  0.59815464  1
  Te  Te155  1  0.24854116  0.06948694  0.90352490  1
  Te  Te156  1  0.25107983  0.41363968  0.24763420  1
  Te  Te157  1  0.23090935  0.43841132  0.59462356  1
  Te  Te158  1  0.23984448  0.40515568  0.90457529  1
  Te  Te159  1  0.20100337  0.75816352  0.24490035  1
  Te  Te160  1  0.24407729  0.76205269  0.58143458  1
  Te  Te161  1  0.25361641  0.75429545  0.92352302  1
  Te  Te162  1  0.58330603  0.07525762  0.24897707  1
  Te  Te163  1  0.58932265  0.08944783  0.59480052  1
  Te  Te164  1  0.57861362  0.09753167  0.92465607  1
  Te  Te165  1  0.58857039  0.42103417  0.24801689  1
  Te  Te166  1  0.56183989  0.40952476  0.60221890  1
  Te  Te167  1  0.56757260  0.42599139  0.93421151  1
  Te  Te168  1  0.56926528  0.76092460  0.24982957  1
  Te  Te169  1  0.59186719  0.74429421  0.58994938  1
  Te  Te170  1  0.56546337  0.71877083  0.92031905  1
  Te  Te171  1  0.92598406  0.05350492  0.25020974  1
  Te  Te172  1  0.93414408  0.06887100  0.60679960  1
  Te  Te173  1  0.94781983  0.10318910  0.93461998  1
  Te  Te174  1  0.94382097  0.39123682  0.26429994  1
  Te  Te175  1  0.93172103  0.40171085  0.59975238  1
  Te  Te176  1  0.92428762  0.42481781  0.93688987  1
  Te  Te177  1  0.93421868  0.74995055  0.25601701  1
  Te  Te178  1  0.90298699  0.74628426  0.58552675  1
  Te  Te179  1  0.94254360  0.77122886  0.94753950  1
