# generated using pymatgen
data_In2Te3
_symmetry_space_group_name_H-M   'P 1'
_cell_length_a   18.79534755
_cell_length_b   18.78708307
_cell_length_c   18.79417140
_cell_angle_alpha   90.01952815
_cell_angle_beta   89.96956218
_cell_angle_gamma   90.03076431
_symmetry_Int_Tables_number   1
_chemical_formula_structural   In2Te3
_chemical_formula_sum   'In72 Te108'
_cell_volume   6636.40299149
_cell_formula_units_Z   36
loop_
 _symmetry_equiv_pos_site_id
 _symmetry_equiv_pos_as_xyz
  1  'x, y, z'
loop_
 _atom_site_type_symbol
 _atom_site_label
 _atom_site_symmetry_multiplicity
 _atom_site_fract_x
 _atom_site_fract_y
 _atom_site_fract_z
 _atom_site_occupancy
  In  In0  1  0.47198366  0.15876066  -0.00819950  1
  In  In1  1  0.02411431  0.49793998  0.17397525  1
  In  In2  1  0.01848538  0.34551856  0.32557354  1
  In  In3  1  0.31604184  0.00656536  0.29568735  1
  In  In4  1  0.00382017  0.14240027  0.84895554  1
  In  In5  1  0.15127505  0.33048610  0.82069291  1
  In  In6  1  0.02938242  -0.01750985  -0.03085061  1
  In  In7  1  0.49502106  0.50917345  0.00131762  1
  In  In8  1  0.67706045  0.16090961  0.83580913  1
  In  In9  1  0.68992720  0.16376270  0.50337317  1
  In  In10  1  0.84104111  0.83440288  -0.01956062  1
  In  In11  1  0.83550270  0.32543175  0.82770898  1
  In  In12  1  0.16509965  0.66968472  0.84358250  1
  In  In13  1  0.49842882  0.35705389  0.48066916  1
  In  In14  1  0.31157604  0.34185702  0.67049840  1
  In  In15  1  0.30050787  -0.00142802  -0.02096434  1
  In  In16  1  0.66445083  0.52445751  0.17294919  1
  In  In17  1  0.00825872  0.50372613  0.50456326  1
  In  In18  1  0.01027185  0.68402401  -0.00719425  1
  In  In19  1  0.48160746  0.14678282  0.68643666  1
  In  In20  1  0.66441552  0.30784142  0.67155044  1
  In  In21  1  0.30940494  0.35337556  0.28987222  1
  In  In22  1  0.50023410  0.17134289  0.31929904  1
  In  In23  1  0.01023070  -0.01684570  0.34917370  1
  In  In24  1  0.00271256  0.66106641  0.31397563  1
  In  In25  1  0.66614368  -0.00739904  0.36782656  1
  In  In26  1  0.83800994  0.17604380  0.33678742  1
  In  In27  1  0.17006445  0.34097375  0.49543669  1
  In  In28  1  0.68048751  -0.02656299  0.01635414  1
  In  In29  1  0.01493307  0.65520007  0.69474683  1
  In  In30  1  0.50741606  -0.02349322  0.82570770  1
  In  In31  1  0.68365638  0.36531893  0.33802277  1
  In  In32  1  0.82968934  0.67136256  0.18631308  1
  In  In33  1  0.48009744  0.53374048  0.34152694  1
  In  In34  1  0.49140578  -0.02947990  0.15201040  1
  In  In35  1  0.65414563  0.82631837  0.17614515  1
  In  In36  1  0.18482860  0.82862965  0.34035856  1
  In  In37  1  0.82405117  0.67658452  0.50014301  1
  In  In38  1  0.66866484  0.69553811  0.66688736  1
  In  In39  1  0.48177385  0.66942521  0.15593343  1
  In  In40  1  0.17248135  0.52383710  0.01590189  1
  In  In41  1  0.31658012  0.81642395  0.83985790  1
  In  In42  1  0.15423299  0.48796502  0.66612564  1
  In  In43  1  0.83954825  0.36027398  0.15702034  1
  In  In44  1  0.85337530  0.85446976  0.70102479  1
  In  In45  1  0.67133474  0.82573980  0.50468925  1
  In  In46  1  0.63405376  0.17646870  0.15835683  1
  In  In47  1  0.65162893  0.50752728  0.47094609  1
  In  In48  1  0.15615851  -0.00873687  0.49336088  1
  In  In49  1  0.47661629  0.51952570  0.65987703  1
  In  In50  1  0.00503216  0.83306971  0.50956836  1
  In  In51  1  0.03197360  0.81179865  0.16523754  1
  In  In52  1  0.85504577  0.17663727  -0.02302337  1
  In  In53  1  0.01561820  0.33141565  -0.02268040  1
  In  In54  1  0.32583600  0.67924202  0.62868776  1
  In  In55  1  0.32025627  0.83641414  0.15601375  1
  In  In56  1  0.15897205  0.15246780  0.67996546  1
  In  In57  1  0.49860815  -0.02351938  0.50842462  1
  In  In58  1  0.66278577  -0.02616220  0.67762910  1
  In  In59  1  0.33613226  -0.02206123  0.67723448  1
  In  In60  1  0.48322840  0.33625146  0.16184874  1
  In  In61  1  0.66694784  0.50675899  0.85108324  1
  In  In62  1  0.01195063  0.15782481  0.50824742  1
  In  In63  1  0.85951086  0.51852043  0.66415461  1
  In  In64  1  0.50943643  0.69292401  0.86051666  1
  In  In65  1  0.81845356  0.51698933  0.00586063  1
  In  In66  1  0.34370770  0.50727222  0.83953520  1
  In  In67  1  0.30341524  0.31158137  0.01930494  1
  In  In68  1  0.83288289  -0.00764869  0.16013038  1
  In  In69  1  0.33890454  0.18148945  0.49146163  1
  In  In70  1  0.03612421  0.15341722  0.15608764  1
  In  In71  1  0.84671503  0.15367767  0.65184467  1
  Te  Te72  1  0.11250376  0.05282668  0.07414411  1
  Te  Te73  1  0.09998770  0.09728099  0.39843257  1
  Te  Te74  1  0.06319366  0.05603742  0.74105927  1
  Te  Te75  1  0.09993878  0.40232888  0.08211533  1
  Te  Te76  1  0.10680710  0.44443343  0.40276801  1
  Te  Te77  1  0.05484540  0.41827598  0.75091117  1
  Te  Te78  1  0.12426657  0.73658786  0.07453636  1
  Te  Te79  1  0.08377176  0.74182601  0.41608130  1
  Te  Te80  1  0.10693425  0.76366077  0.74257773  1
  Te  Te81  1  0.39665073  0.06848442  0.08690994  1
  Te  Te82  1  0.42433399  0.07906348  0.41434504  1
  Te  Te83  1  0.39492388  0.07354698  0.78483031  1
  Te  Te84  1  0.39219719  0.42502885  0.07979140  1
  Te  Te85  1  0.38916634  0.42449708  0.40243597  1
  Te  Te86  1  0.42163483  0.40895975  0.75260641  1
  Te  Te87  1  0.40206271  0.75340973  0.06250774  1
  Te  Te88  1  0.36664856  0.73987005  0.44689654  1
  Te  Te89  1  0.40705437  0.73133817  0.75150113  1
  Te  Te90  1  0.75000798  0.09818220  0.08342695  1
  Te  Te91  1  0.78407818  0.06853833  0.43152227  1
  Te  Te92  1  0.76072395  0.07011412  0.74842002  1
  Te  Te93  1  0.72417925  0.41868760  0.07837033  1
  Te  Te94  1  0.77052336  0.42453756  0.43928214  1
  Te  Te95  1  0.74737004  0.41745080  0.74374452  1
  Te  Te96  1  0.75634319  0.75662715  0.08505613  1
  Te  Te97  1  0.74125559  0.74558006  0.40061131  1
  Te  Te98  1  0.75607896  0.76159652  0.76580908  1
  Te  Te99  1  0.10401392  0.26192351  0.23493443  1
  Te  Te100  1  0.08861035  0.25930414  0.59467701  1
  Te  Te101  1  0.11210679  0.21719185  0.93296862  1
  Te  Te102  1  0.11617967  0.59156498  0.24558128  1
  Te  Te103  1  0.09885607  0.60072495  0.57877819  1
  Te  Te104  1  0.07247416  0.56837362  0.91075279  1
  Te  Te105  1  0.10271502  0.92064464  0.24677288  1
  Te  Te106  1  0.08961890  0.91480176  0.59974646  1
  Te  Te107  1  0.07803318  0.87525483  0.87876130  1
  Te  Te108  1  0.39531713  0.23345976  0.23226093  1
  Te  Te109  1  0.43047518  0.25935291  0.58654308  1
  Te  Te110  1  0.39580569  0.25897344  0.91616944  1
  Te  Te111  1  0.38277028  0.60061147  0.24952114  1
  Te  Te112  1  0.41841292  0.59400988  0.54274479  1
  Te  Te113  1  0.40157405  0.61118024  0.93398328  1
  Te  Te114  1  0.41680480  0.89764157  0.26232410  1
  Te  Te115  1  0.42458872  0.88826738  0.59963712  1
  Te  Te116  1  0.40877142  0.90897027  0.92110163  1
  Te  Te117  1  0.74300634  0.25286827  0.24256549  1
  Te  Te118  1  0.77612276  0.26672998  0.57478540  1
  Te  Te119  1  0.73947898  0.26447493  0.93003966  1
  Te  Te120  1  0.75209940  0.58263173  0.27524408  1
  Te  Te121  1  0.73693873  0.57741889  0.59056400  1
  Te  Te122  1  0.74674530  0.61057488  0.91830414  1
  Te  Te123  1  0.74793906  0.91503708  0.25937644  1
  Te  Te124  1  0.76681391  0.91288211  0.58554997  1
  Te  Te125  1  0.73069357  0.89680244  0.89714282  1
  Te  Te126  1  0.23840547  0.22947583  0.12552088  1
  Te  Te127  1  0.24767580  0.25415636  0.39668266  1
  Te  Te128  1  0.25734727  0.23493064  0.76301626  1
  Te  Te129  1  0.27780806  0.56520828  0.11198019  1
  Te  Te130  1  0.26956138  0.63321439  0.46089919  1
  Te  Te131  1  0.25444519  0.58384087  0.74122437  1
  Te  Te132  1  0.22089032  0.91979661  0.07895189  1
  Te  Te133  1  0.27364134  0.92826858  0.41968180  1
  Te  Te134  1  0.23330177  0.91244097  0.76177387  1
  Te  Te135  1  0.56651684  0.26485032  0.05646616  1
  Te  Te136  1  0.59410574  0.24721011  0.41613052  1
  Te  Te137  1  0.56639701  0.24375208  0.77061191  1
  Te  Te138  1  0.59402191  0.60553072  0.06696803  1
  Te  Te139  1  0.58102122  0.62097469  0.40769667  1
  Te  Te140  1  0.57351171  0.59316280  0.75383881  1
  Te  Te141  1  0.56406650  0.87537286  0.05437461  1
  Te  Te142  1  0.56387481  0.88710214  0.40480870  1
  Te  Te143  1  0.57361220  0.87474300  0.74100697  1
  Te  Te144  1  0.92621738  0.25076179  0.09302964  1
  Te  Te145  1  0.93344961  0.25968500  0.41991328  1
  Te  Te146  1  0.93020501  0.23661959  0.75069085  1
  Te  Te147  1  0.92760714  0.59100791  0.09381229  1
  Te  Te148  1  0.91588020  0.58691484  0.41620106  1
  Te  Te149  1  0.90703048  0.59703458  0.77980340  1
  Te  Te150  1  0.93628943  0.90909335  0.08344927  1
  Te  Te151  1  0.91053202  0.89997100  0.41680252  1
  Te  Te152  1  0.96278749  0.91775966  0.78328330  1
  Te  Te153  1  0.23720293  0.10445987  0.22063298  1
  Te  Te154  1  0.26090106  0.08581351  0.58173059  1
  Te  Te155  1  0.21039562  0.09581594  0.91516929  1
  Te  Te156  1  0.23487483  0.46188464  0.21991987  1
  Te  Te157  1  0.26320715  0.43946262  0.56730768  1
  Te  Te158  1  0.23789274  0.42097375  0.91077369  1
  Te  Te159  1  0.25877434  0.73694090  0.25073661  1
  Te  Te160  1  0.24640068  0.77209197  0.54340445  1
  Te  Te161  1  0.23732381  0.74805202  0.94894790  1
  Te  Te162  1  0.58999508  0.05741303  0.24405006  1
  Te  Te163  1  0.58754227  0.08626122  0.58868146  1
  Te  Te164  1  0.58890842  0.07038571  0.92672288  1
  Te  Te165  1  0.56464412  0.42370746  0.25699325  1
  Te  Te166  1  0.58466003  0.41918865  0.59082698  1
  Te  Te167  1  0.56583862  0.41776109  0.90976395  1
  Te  Te168  1  0.57352563  0.73199106  0.25647524  1
  Te  Te169  1  0.56559319  0.75125922  0.57786818  1
  Te  Te170  1  0.60293249  0.79012847  0.92311744  1
  Te  Te171  1  0.92393911  0.08430716  0.24617852  1
  Te  Te172  1  0.93243983  0.05701182  0.58051696  1
  Te  Te173  1  0.89792842  0.04786465  0.91388782  1
  Te  Te174  1  0.91238800  0.43819520  0.26298390  1
  Te  Te175  1  0.93914879  0.41284592  0.59930488  1
  Te  Te176  1  0.90845658  0.42300357  0.92036482  1
  Te  Te177  1  0.91654422  0.77450542  0.25855859  1
  Te  Te178  1  0.91356531  0.74039652  0.60572118  1
  Te  Te179  1  0.91988835  0.74345505  0.89183011  1
