# generated using pymatgen
data_In2Te3
_symmetry_space_group_name_H-M   'P 1'
_cell_length_a   19.01582396
_cell_length_b   19.02335525
_cell_length_c   19.03478090
_cell_angle_alpha   89.85909327
_cell_angle_beta   90.10603433
_cell_angle_gamma   90.09353699
_symmetry_Int_Tables_number   1
_chemical_formula_structural   In2Te3
_chemical_formula_sum   'In72 Te108'
_cell_volume   6885.69078673
_cell_formula_units_Z   36
loop_
 _symmetry_equiv_pos_site_id
 _symmetry_equiv_pos_as_xyz
  1  'x, y, z'
loop_
 _atom_site_type_symbol
 _atom_site_label
 _atom_site_symmetry_multiplicity
 _atom_site_fract_x
 _atom_site_fract_y
 _atom_site_fract_z
 _atom_site_occupancy
  In  In0  1  0.00785622  0.00603468  0.34538930  1
  In  In1  1  0.33375331  -0.00931515  -0.01901590  1
  In  In2  1  -0.00070367  0.18424013  0.16282876  1
  In  In3  1  0.34694094  0.18822084  0.52703072  1
  In  In4  1  0.67561169  0.46855203  0.85588627  1
  In  In5  1  0.82516548  0.16164844  0.67249122  1
  In  In6  1  0.66292497  0.50802506  0.15905522  1
  In  In7  1  0.82447217  0.30638230  0.51558699  1
  In  In8  1  0.66232047  0.80654493  0.17572560  1
  In  In9  1  0.00814576  0.66734096  0.00482412  1
  In  In10  1  0.65423685  0.84715326  0.82327523  1
  In  In11  1  0.47853220  0.47780004  0.01594542  1
  In  In12  1  0.50166878  0.67312963  0.81637195  1
  In  In13  1  0.48220367  0.83616857  0.31262899  1
  In  In14  1  0.18098838  0.32619845  0.51675187  1
  In  In15  1  0.16646703  0.67726751  0.15091477  1
  In  In16  1  0.20187225  0.17402516  -0.00064080  1
  In  In17  1  0.17566986  0.50257602  0.00190910  1
  In  In18  1  0.65728140  0.33251074  0.01013701  1
  In  In19  1  0.30457316  0.00836081  0.34962074  1
  In  In20  1  0.83115396  0.48130773  0.30681995  1
  In  In21  1  0.50367822  0.50252415  0.66340934  1
  In  In22  1  0.13756118  -0.00663731  0.18120746  1
  In  In23  1  0.69058791  -0.00219391  0.34259945  1
  In  In24  1  0.47439450  0.32753416  0.18307364  1
  In  In25  1  0.82878024  0.31569965  0.84023367  1
  In  In26  1  0.82256932  0.48820501  0.68549721  1
  In  In27  1  0.67628612  0.82858273  0.50370099  1
  In  In28  1  0.00416235  0.83702081  0.48184744  1
  In  In29  1  0.85404985  0.02440271  0.50952926  1
  In  In30  1  0.33955161  -0.00432831  0.68592082  1
  In  In31  1  0.82555127  0.64081758  0.83677265  1
  In  In32  1  0.66995014  -0.00761519  -0.01383006  1
  In  In33  1  0.49972158  -0.00243744  0.82941388  1
  In  In34  1  0.50164800  0.68469794  0.48879850  1
  In  In35  1  0.66952996  0.66390772  0.64758211  1
  In  In36  1  0.28140958  0.36025512  0.31487402  1
  In  In37  1  -0.00944762  0.48404042  0.51886861  1
  In  In38  1  0.32670786  0.15699988  0.17135725  1
  In  In39  1  0.84184702  0.67067548  0.47480809  1
  In  In40  1  0.03110189  0.47082069  0.84727983  1
  In  In41  1  0.69147192  0.15938442  0.15241100  1
  In  In42  1  0.83133338  0.83407029  0.02313005  1
  In  In43  1  0.50431240  0.51149218  0.33009946  1
  In  In44  1  -0.00291873  -0.01372604  -0.00546687  1
  In  In45  1  0.16351886  -0.00192744  0.50297232  1
  In  In46  1  0.48521283  0.33147166  0.51154968  1
  In  In47  1  0.45122528  0.18843447  -0.04963790  1
  In  In48  1  0.82441535  0.87624782  0.68637142  1
  In  In49  1  0.35622178  0.52253151  0.48526973  1
  In  In50  1  0.52275423  0.01254566  0.16109785  1
  In  In51  1  0.86187563  0.16419407  0.33295065  1
  In  In52  1  0.35459068  0.83592738  0.14118978  1
  In  In53  1  0.64181298  0.17495543  0.80362292  1
  In  In54  1  0.33116982  0.71094517  0.69192174  1
  In  In55  1  0.30496062  0.70087101  -0.04241360  1
  In  In56  1  0.15752291  0.17395193  0.69280735  1
  In  In57  1  0.02275054  0.35687443  0.32255833  1
  In  In58  1  0.00488340  0.84211944  0.83047066  1
  In  In59  1  0.16621909  0.51305631  0.67024129  1
  In  In60  1  0.02367698  0.66604253  0.31786892  1
  In  In61  1  0.17248344  0.85211476  0.66863954  1
  In  In62  1  0.00472643  0.15085761  0.85987759  1
  In  In63  1  0.00727574  0.33463726  0.01154531  1
  In  In64  1  -0.01461126  0.67619442  0.63923929  1
  In  In65  1  0.47153963  0.14173469  0.40155943  1
  In  In66  1  0.84522370  0.51867061  0.02724486  1
  In  In67  1  0.83547953  0.80955826  0.30761948  1
  In  In68  1  0.33941108  0.31652566  0.66351257  1
  In  In69  1  0.68779120  0.32059739  0.34372555  1
  In  In70  1  0.33662056  0.64292938  0.30686086  1
  In  In71  1  0.32588220  0.49866049  0.82021591  1
  Te  Te72  1  0.09129661  0.09060573  0.07309248  1
  Te  Te73  1  0.07835173  0.09599861  0.43404403  1
  Te  Te74  1  0.09226594  0.07026234  0.77338379  1
  Te  Te75  1  0.09805474  0.41678948  0.09563784  1
  Te  Te76  1  0.10132434  0.42554360  0.43446702  1
  Te  Te77  1  0.09141545  0.40524067  0.73375943  1
  Te  Te78  1  0.08421515  0.77345646  0.07424524  1
  Te  Te79  1  0.09680164  0.74626633  0.41666507  1
  Te  Te80  1  0.07653181  0.74956925  0.73383038  1
  Te  Te81  1  0.42185672  0.09370239  0.06893918  1
  Te  Te82  1  0.41291417  0.00521581  0.46398171  1
  Te  Te83  1  0.40605317  0.09453506  0.77217313  1
  Te  Te84  1  0.38103078  0.39191004  0.08846779  1
  Te  Te85  1  0.40510651  0.40401336  0.39917135  1
  Te  Te86  1  0.42649098  0.40761849  0.75101110  1
  Te  Te87  1  0.41757873  0.76575624  0.02895657  1
  Te  Te88  1  0.39838409  0.75051106  0.40454005  1
  Te  Te89  1  0.42126965  0.78913050  0.77650883  1
  Te  Te90  1  0.76416273  0.05626431  0.08007440  1
  Te  Te91  1  0.75697387  0.10575842  0.42485015  1
  Te  Te92  1  0.74371541  0.07963099  0.76392085  1
  Te  Te93  1  0.75704798  0.41125635  0.09049641  1
  Te  Te94  1  0.76470109  0.41893057  0.42742676  1
  Te  Te95  1  0.73096325  0.38303758  0.74463396  1
  Te  Te96  1  0.75263283  0.73136918  0.08896574  1
  Te  Te97  1  0.73193987  0.73789424  0.39642835  1
  Te  Te98  1  0.76172495  0.74117464  0.74105990  1
  Te  Te99  1  0.09474102  0.25251327  0.24908221  1
  Te  Te100  1  0.08309276  0.24705702  0.58939212  1
  Te  Te101  1  0.09604341  0.25611140  0.92186056  1
  Te  Te102  1  0.11815823  0.57227321  0.24742394  1
  Te  Te103  1  0.08829243  0.59226004  0.56784645  1
  Te  Te104  1  0.09597226  0.59208377  0.90664676  1
  Te  Te105  1  0.08431908  0.89881184  0.28007476  1
  Te  Te106  1  0.06158135  0.92393415  0.58903215  1
  Te  Te107  1  0.10395482  0.91047274  0.91960231  1
  Te  Te108  1  0.42552347  0.21343244  0.27020029  1
  Te  Te109  1  0.47042973  0.21633012  0.61834823  1
  Te  Te110  1  0.34907863  0.28125213  0.90314207  1
  Te  Te111  1  0.41711853  0.55544708  0.22204921  1
  Te  Te112  1  0.41221367  0.60613798  0.60049337  1
  Te  Te113  1  0.42194855  0.57874156  0.90499679  1
  Te  Te114  1  0.40814134  0.95454139  0.24320275  1
  Te  Te115  1  0.38890948  0.90949769  0.57987643  1
  Te  Te116  1  0.44152139  0.90402875  0.92931453  1
  Te  Te117  1  0.77451583  0.24999146  0.24316689  1
  Te  Te118  1  0.72493718  0.23156497  0.59040276  1
  Te  Te119  1  0.72929138  0.23700384  0.91953565  1
  Te  Te120  1  0.74301961  0.58407054  0.25400216  1
  Te  Te121  1  0.76966258  0.57868644  0.57423415  1
  Te  Te122  1  0.73480538  0.57877601  0.94093519  1
  Te  Te123  1  0.75406708  0.91451615  0.23455192  1
  Te  Te124  1  0.74231278  0.94228749  0.57826813  1
  Te  Te125  1  0.76711468  0.90746507  0.90746590  1
  Te  Te126  1  0.26449572  0.26794360  0.09634360  1
  Te  Te127  1  0.26015816  0.24593803  0.41691135  1
  Te  Te128  1  0.26527518  0.24593865  0.77000496  1
  Te  Te129  1  0.26853612  0.60293104  0.06679613  1
  Te  Te130  1  0.24953302  0.58221835  0.40778194  1
  Te  Te131  1  0.24092066  0.60847494  0.76033768  1
  Te  Te132  1  0.25153015  0.93522290  0.09524398  1
  Te  Te133  1  0.22325227  0.90199473  0.40874254  1
  Te  Te134  1  0.26331012  0.90156224  0.77828339  1
  Te  Te135  1  0.57519905  0.24674478  0.10219367  1
  Te  Te136  1  0.58161650  0.25098912  0.42347031  1
  Te  Te137  1  0.53661865  0.25934513  0.74957140  1
  Te  Te138  1  0.55802881  0.57857438  0.08525530  1
  Te  Te139  1  0.58306351  0.57799772  0.43280285  1
  Te  Te140  1  0.61266855  0.56826270  0.75337038  1
  Te  Te141  1  0.58767888  0.90647570  0.08090485  1
  Te  Te142  1  0.59086317  0.90023519  0.39990818  1
  Te  Te143  1  0.59689034  0.94571079  0.73266538  1
  Te  Te144  1  0.90625736  0.24566822  0.06699354  1
  Te  Te145  1  0.92906602  0.27179688  0.41231595  1
  Te  Te146  1  0.92804946  0.23968501  0.76254765  1
  Te  Te147  1  0.94386925  0.58770699  0.11190639  1
  Te  Te148  1  0.93244213  0.57150703  0.40742324  1
  Te  Te149  1  0.93177824  0.57718363  0.74409573  1
  Te  Te150  1  0.95248833  0.88328633  0.09167376  1
  Te  Te151  1  0.88984017  0.91245217  0.40722198  1
  Te  Te152  1  0.93098061  0.94544418  0.75617160  1
  Te  Te153  1  0.22009600  0.09521291  0.25926214  1
  Te  Te154  1  0.25058164  0.09251253  0.59206685  1
  Te  Te155  1  0.23979300  0.07091435  0.90276979  1
  Te  Te156  1  0.20246659  0.44334838  0.22379333  1
  Te  Te157  1  0.27503247  0.43179118  0.58778885  1
  Te  Te158  1  0.24782681  0.40941720  0.90994460  1
  Te  Te159  1  0.26549359  0.75842400  0.23359242  1
  Te  Te160  1  0.25508103  0.76846225  0.58089518  1
  Te  Te161  1  0.22610240  0.81109788  0.90074198  1
  Te  Te162  1  0.60469616  0.09230803  0.26005815  1
  Te  Te163  1  0.53750610  0.08145775  0.51718728  1
  Te  Te164  1  0.57611819  0.09777743  0.92900488  1
  Te  Te165  1  0.59112201  0.40092446  0.25603154  1
  Te  Te166  1  0.58206715  0.42403815  0.56985209  1
  Te  Te167  1  0.55803084  0.39504624  0.91585310  1
  Te  Te168  1  0.54766758  0.73474186  0.23206342  1
  Te  Te169  1  0.57216506  0.76683487  0.59610164  1
  Te  Te170  1  0.60160378  0.73702952  0.90149805  1
  Te  Te171  1  0.92480034  0.06957862  0.23556422  1
  Te  Te172  1  0.93663719  0.11358370  0.58852281  1
  Te  Te173  1  0.90447232  0.09155022  0.95053056  1
  Te  Te174  1  0.93665441  0.42507772  0.22488576  1
  Te  Te175  1  0.91134015  0.39342185  0.60877312  1
  Te  Te176  1  0.90326527  0.42744797  0.91496839  1
  Te  Te177  1  0.91460640  0.71307742  0.22984506  1
  Te  Te178  1  0.89006224  0.77579529  0.57630696  1
  Te  Te179  1  0.91178849  0.74135407  0.90974505  1
