# generated using pymatgen
data_In2Te3
_symmetry_space_group_name_H-M   'P 1'
_cell_length_a   18.80174404
_cell_length_b   18.79123391
_cell_length_c   18.79047922
_cell_angle_alpha   89.95674744
_cell_angle_beta   90.03083986
_cell_angle_gamma   90.06140326
_symmetry_Int_Tables_number   1
_chemical_formula_structural   In2Te3
_chemical_formula_sum   'In72 Te108'
_cell_volume   6638.81940557
_cell_formula_units_Z   36
loop_
 _symmetry_equiv_pos_site_id
 _symmetry_equiv_pos_as_xyz
  1  'x, y, z'
loop_
 _atom_site_type_symbol
 _atom_site_label
 _atom_site_symmetry_multiplicity
 _atom_site_fract_x
 _atom_site_fract_y
 _atom_site_fract_z
 _atom_site_occupancy
  In  In0  1  0.68621360  0.14694462  0.85527416  1
  In  In1  1  0.30507534  0.31270095  0.65984244  1
  In  In2  1  0.50559120  0.69124214  0.82382366  1
  In  In3  1  0.16493143  0.50605771  0.00064047  1
  In  In4  1  0.84172295  0.16634811  -0.00644601  1
  In  In5  1  -0.00373754  -0.00848392  0.31241260  1
  In  In6  1  0.67367139  0.34571066  0.67100860  1
  In  In7  1  -0.00230548  0.85644286  0.14305033  1
  In  In8  1  0.50351171  0.51094351  0.33242532  1
  In  In9  1  0.18338185  -0.01062981  0.49733934  1
  In  In10  1  0.49981465  0.68711853  0.16831244  1
  In  In11  1  0.69746821  0.86993573  0.86791217  1
  In  In12  1  0.67931588  0.47647077  0.81209050  1
  In  In13  1  0.17965991  -0.01740102  0.85568933  1
  In  In14  1  0.00906335  0.68169562  0.00704321  1
  In  In15  1  0.68797116  0.50304221  0.18239728  1
  In  In16  1  0.85564774  0.67941150  0.83906674  1
  In  In17  1  0.51732094  0.17207203  0.00345453  1
  In  In18  1  0.82793767  0.00932521  0.51027714  1
  In  In19  1  0.81600583  0.83809690  0.32807582  1
  In  In20  1  0.02468514  0.48510366  0.17204747  1
  In  In21  1  0.16873377  0.15142934  0.31824616  1
  In  In22  1  0.49045399  -0.00183210  0.84757248  1
  In  In23  1  0.49574590  0.65975945  0.49436790  1
  In  In24  1  0.65800236  0.32291720  0.33325212  1
  In  In25  1  0.50962485  0.16244904  0.66266119  1
  In  In26  1  0.31659541  0.32446110  0.00490831  1
  In  In27  1  0.66605278  0.18890850  0.49414493  1
  In  In28  1  0.14472251  0.15552947  0.67358502  1
  In  In29  1  0.16798837  0.82932093  0.69755684  1
  In  In30  1  0.31766019  0.52238607  0.84647603  1
  In  In31  1  0.84211192  0.30740723  0.15491622  1
  In  In32  1  0.82994321  0.68622723  0.48787269  1
  In  In33  1  0.01098317  0.31863642  0.34834882  1
  In  In34  1  0.31015424  0.12798753  0.84725096  1
  In  In35  1  0.31123674  -0.01220462  0.00572435  1
  In  In36  1  0.82931674  0.33052660  0.50495701  1
  In  In37  1  0.01794852  0.12120897  0.15385111  1
  In  In38  1  0.49653740  0.34505279  0.47357051  1
  In  In39  1  0.82494772  0.69227820  0.15115645  1
  In  In40  1  0.49658745  0.83783865  0.32071006  1
  In  In41  1  0.83026633  0.48795227  0.66659077  1
  In  In42  1  0.16159107  0.31935949  0.50054684  1
  In  In43  1  0.31428628  0.80779137  0.18220980  1
  In  In44  1  0.65078852  -0.00413301  0.32362836  1
  In  In45  1  0.49739173  0.48454211  0.00922272  1
  In  In46  1  0.84641655  0.49695291  -0.01344102  1
  In  In47  1  0.67053287  0.15022248  0.14938247  1
  In  In48  1  0.17552342  0.49913014  0.32567569  1
  In  In49  1  -0.00837809  0.17433983  0.51290420  1
  In  In50  1  0.31093177  0.70320433  -0.01962821  1
  In  In51  1  0.00730815  -0.01131349  0.68971715  1
  In  In52  1  0.34154196  0.18234909  0.18249030  1
  In  In53  1  0.01870519  0.66415726  0.34290824  1
  In  In54  1  0.32830801  0.48420881  0.16299924  1
  In  In55  1  0.34544555  0.13119573  0.46494268  1
  In  In56  1  0.34043452  0.84601873  0.48474786  1
  In  In57  1  0.00617080  0.79829783  0.48896440  1
  In  In58  1  0.00239153  0.83461103  0.85439226  1
  In  In59  1  0.16509553  0.66468016  0.49826458  1
  In  In60  1  0.51158482  -0.02559830  0.14546733  1
  In  In61  1  0.48687997  0.49271765  0.63866165  1
  In  In62  1  0.16332153  0.51516500  0.67886660  1
  In  In63  1  0.84116331  0.84671932  0.66152392  1
  In  In64  1  0.68203542  0.69150885  0.01036523  1
  In  In65  1  0.46972549  0.83730354  0.66899063  1
  In  In66  1  0.00741863  0.47732854  0.84710437  1
  In  In67  1  0.83487045  0.51886245  0.33039289  1
  In  In68  1  0.37039482  0.50512760  0.49301195  1
  In  In69  1  0.67638866  0.00322187  0.67284710  1
  In  In70  1  0.49065923  0.35140853  0.83978010  1
  In  In71  1  0.66539531  0.67280141  0.65950125  1
  Te  Te72  1  0.08330309  0.04918098  0.04064571  1
  Te  Te73  1  0.07579658  0.08311600  0.42545711  1
  Te  Te74  1  0.07718338  0.08008890  0.78950927  1
  Te  Te75  1  0.08756093  0.40100079  0.07048571  1
  Te  Te76  1  0.08191354  0.42754346  0.42594879  1
  Te  Te77  1  0.09742183  0.40261827  0.75268502  1
  Te  Te78  1  0.10431568  0.76669243  0.08243844  1
  Te  Te79  1  0.11967429  0.77814398  0.38325580  1
  Te  Te80  1  0.05700130  0.74737364  0.74900774  1
  Te  Te81  1  0.41396741  0.08368146  0.07357423  1
  Te  Te82  1  0.45312230  0.04950010  0.40773585  1
  Te  Te83  1  0.41278252  0.07652541  0.74180766  1
  Te  Te84  1  0.42420043  0.38359440  0.09545680  1
  Te  Te85  1  0.39052693  0.40059796  0.37500352  1
  Te  Te86  1  0.39297113  0.41924274  0.74330186  1
  Te  Te87  1  0.41650045  0.76811661  0.07058964  1
  Te  Te88  1  0.40880170  0.73882836  0.39836460  1
  Te  Te89  1  0.38703825  0.76721516  0.77368561  1
  Te  Te90  1  0.76331589  0.06015502  0.07287851  1
  Te  Te91  1  0.74469333  0.08723622  0.41068183  1
  Te  Te92  1  0.77127147  0.08137667  0.75445429  1
  Te  Te93  1  0.75821271  0.41336593  0.08241590  1
  Te  Te94  1  0.74795996  0.41972805  0.41044267  1
  Te  Te95  1  0.78760884  0.37996346  0.76890045  1
  Te  Te96  1  0.73021113  0.80075903  0.10361015  1
  Te  Te97  1  0.72689940  0.76866381  0.42286867  1
  Te  Te98  1  0.74509942  0.75553270  0.76120864  1
  Te  Te99  1  0.07961407  0.24414029  0.23820740  1
  Te  Te100  1  0.06398962  0.26944387  0.60724343  1
  Te  Te101  1  0.04763999  0.28723545  0.87048894  1
  Te  Te102  1  0.10470291  0.60068279  0.23162521  1
  Te  Te103  1  0.07546653  0.58464306  0.58310225  1
  Te  Te104  1  0.08550172  0.59700352  0.90730311  1
  Te  Te105  1  0.09768890  0.93210382  0.22436790  1
  Te  Te106  1  0.07400121  0.91155294  0.57614414  1
  Te  Te107  1  0.08318686  0.91646980  0.95374292  1
  Te  Te108  1  0.40300686  0.27333585  0.28089361  1
  Te  Te109  1  0.42084269  0.25580928  0.57730813  1
  Te  Te110  1  0.41026596  0.23805048  0.90413633  1
  Te  Te111  1  0.40843856  0.58902836  0.24296975  1
  Te  Te112  1  0.39795881  0.61003923  0.60304762  1
  Te  Te113  1  0.42985558  0.59253558  0.92454749  1
  Te  Te114  1  0.40159196  0.92223262  0.23745652  1
  Te  Te115  1  0.40986484  0.93758464  0.57986455  1
  Te  Te116  1  0.40330440  0.90617283  0.92314837  1
  Te  Te117  1  0.75117699  0.23318506  0.25246613  1
  Te  Te118  1  0.75944962  0.23675137  0.60488031  1
  Te  Te119  1  0.73806185  0.25759757  0.93690624  1
  Te  Te120  1  0.74432306  0.62029556  0.26134902  1
  Te  Te121  1  0.75104408  0.58133914  0.57542597  1
  Te  Te122  1  0.74468543  0.58474661  0.90889335  1
  Te  Te123  1  0.76370104  0.94435097  0.24035625  1
  Te  Te124  1  0.73484617  0.90308332  0.56977751  1
  Te  Te125  1  0.78714029  0.95301512  0.95431786  1
  Te  Te126  1  0.23514880  0.23640597  0.09043924  1
  Te  Te127  1  0.25464606  0.24135455  0.40851416  1
  Te  Te128  1  0.23307420  0.23763496  0.76957762  1
  Te  Te129  1  0.26187588  0.59593595  0.07646134  1
  Te  Te130  1  0.26422757  0.58630779  0.41367076  1
  Te  Te131  1  0.24203855  0.61626319  0.75821164  1
  Te  Te132  1  0.23067659  0.88984868  0.08576224  1
  Te  Te133  1  0.26708174  0.93534720  0.38953762  1
  Te  Te134  1  0.25702270  0.93901303  0.73840872  1
  Te  Te135  1  0.59200711  0.26226123  0.09186993  1
  Te  Te136  1  0.55460939  0.22718721  0.39483955  1
  Te  Te137  1  0.58389160  0.25337934  0.76073836  1
  Te  Te138  1  0.59129882  0.58317951  0.08371587  1
  Te  Te139  1  0.59682102  0.58095091  0.42145726  1
  Te  Te140  1  0.57454124  0.57159412  0.74741037  1
  Te  Te141  1  0.60038764  0.88486970  0.07198234  1
  Te  Te142  1  0.55683207  0.93165750  0.42346075  1
  Te  Te143  1  0.58698088  0.91067666  0.75647700  1
  Te  Te144  1  0.95124643  0.23909047  0.07762609  1
  Te  Te145  1  0.89942514  0.23387166  0.40756203  1
  Te  Te146  1  0.93890611  0.22088081  0.79808051  1
  Te  Te147  1  0.91805596  0.57964511  0.09422451  1
  Te  Te148  1  0.92855183  0.57943354  0.43311503  1
  Te  Te149  1  0.92222977  0.57254810  0.75725408  1
  Te  Te150  1  0.91038986  0.93119364  0.04976385  1
  Te  Te151  1  0.91944106  0.91366174  0.42949298  1
  Te  Te152  1  0.90136524  0.92243497  0.77761097  1
  Te  Te153  1  0.26202999  0.06981332  0.23986925  1
  Te  Te154  1  0.25537839  0.09337210  0.58280164  1
  Te  Te155  1  0.21199241  0.11002459  0.96364278  1
  Te  Te156  1  0.22800328  0.39938098  0.23047001  1
  Te  Te157  1  0.25575815  0.42567700  0.56813219  1
  Te  Te158  1  0.23713230  0.40755169  0.90512004  1
  Te  Te159  1  0.22515714  0.73480197  0.27573247  1
  Te  Te160  1  0.24373000  0.76632072  0.57973786  1
  Te  Te161  1  0.24125624  0.74994991  0.86019810  1
  Te  Te162  1  0.56192265  0.08603007  0.23658163  1
  Te  Te163  1  0.59054590  0.07669266  0.56915898  1
  Te  Te164  1  0.59576748  0.05776238  0.94035263  1
  Te  Te165  1  0.57849225  0.41443203  0.24036398  1
  Te  Te166  1  0.59721024  0.42152294  0.56215114  1
  Te  Te167  1  0.60129058  0.40795136  0.92751470  1
  Te  Te168  1  0.59992839  0.75845351  0.24962477  1
  Te  Te169  1  0.57090781  0.76208631  0.58091499  1
  Te  Te170  1  0.58605569  0.77577934  0.92376029  1
  Te  Te171  1  0.90583859  0.08446837  0.24249660  1
  Te  Te172  1  0.91563899  0.08471566  0.60999616  1
  Te  Te173  1  0.92668534  0.10220420  0.88783156  1
  Te  Te174  1  0.91387055  0.41147798  0.25426925  1
  Te  Te175  1  0.92449740  0.40664367  0.58727481  1
  Te  Te176  1  0.92601425  0.38244224  0.93106757  1
  Te  Te177  1  0.92779254  0.75206260  0.25492620  1
  Te  Te178  1  0.92204071  0.73464763  0.60209399  1
  Te  Te179  1  0.89536870  0.76893369  0.95370204  1
