# generated using pymatgen
data_In2Te3
_symmetry_space_group_name_H-M   'P 1'
_cell_length_a   18.74768044
_cell_length_b   18.74895650
_cell_length_c   18.75127360
_cell_angle_alpha   89.99511739
_cell_angle_beta   90.09006759
_cell_angle_gamma   90.01109879
_symmetry_Int_Tables_number   1
_chemical_formula_structural   In2Te3
_chemical_formula_sum   'In72 Te108'
_cell_volume   6591.05397316
_cell_formula_units_Z   36
loop_
 _symmetry_equiv_pos_site_id
 _symmetry_equiv_pos_as_xyz
  1  'x, y, z'
loop_
 _atom_site_type_symbol
 _atom_site_label
 _atom_site_symmetry_multiplicity
 _atom_site_fract_x
 _atom_site_fract_y
 _atom_site_fract_z
 _atom_site_occupancy
  In  In0  1  0.50182616  -0.01618653  0.49319650  1
  In  In1  1  0.83776574  0.13993498  0.31681313  1
  In  In2  1  0.51745369  0.67768692  0.17620666  1
  In  In3  1  0.01008348  0.50398710  0.84405202  1
  In  In4  1  0.02080123  0.67631387  0.64733685  1
  In  In5  1  0.68481611  -0.01677496  0.65824196  1
  In  In6  1  0.30027835  0.67108845  0.64511726  1
  In  In7  1  0.68747370  0.83677876  0.49780272  1
  In  In8  1  0.12742089  -0.01148404  0.15951573  1
  In  In9  1  0.50920097  0.14819945  0.00451911  1
  In  In10  1  0.85406932  0.68814794  0.83620707  1
  In  In11  1  0.00289736  0.15010822  0.49553790  1
  In  In12  1  0.00119488  0.30702392  0.01237779  1
  In  In13  1  0.15051562  0.32662816  0.85171557  1
  In  In14  1  0.52189123  -0.00065191  0.16787886  1
  In  In15  1  0.84583031  0.50209197  0.00298481  1
  In  In16  1  0.30924417  0.84431041  0.84679664  1
  In  In17  1  0.31814431  0.51612935  0.84110092  1
  In  In18  1  0.82284953  0.51063746  0.63873425  1
  In  In19  1  0.32247334  0.17654508  0.47666096  1
  In  In20  1  0.48201401  0.14872018  0.65798302  1
  In  In21  1  0.13119946  0.69453240  0.83573302  1
  In  In22  1  0.50162044  0.51391300  0.33782854  1
  In  In23  1  0.81936591  0.30103766  0.82168578  1
  In  In24  1  0.31934403  0.50337322  0.47046223  1
  In  In25  1  -0.00715555  0.82502660  0.46905635  1
  In  In26  1  0.52083669  0.84677634  0.03055824  1
  In  In27  1  0.66817255  0.15164974  0.86394320  1
  In  In28  1  0.17791556  0.34612416  0.48603269  1
  In  In29  1  0.85329722  0.15343282  0.65950501  1
  In  In30  1  -0.02630237  0.33707392  0.66160797  1
  In  In31  1  0.02277252  0.70261273  0.00634192  1
  In  In32  1  0.14391703  -0.00928798  0.50120158  1
  In  In33  1  0.67851105  0.34159227  0.34129615  1
  In  In34  1  0.31080371  0.13532510  0.82603466  1
  In  In35  1  0.51152583  0.52145532  0.02272005  1
  In  In36  1  0.31986277  0.32928433  0.32290004  1
  In  In37  1  0.34323955  -0.00288657  0.00409604  1
  In  In38  1  0.69034514  0.67141969  0.67420396  1
  In  In39  1  0.68550134  0.51902412  0.83455098  1
  In  In40  1  0.30680084  0.00877271  0.32377382  1
  In  In41  1  -0.00963616  0.51478469  0.17912792  1
  In  In42  1  0.15887141  0.52897768  0.31789477  1
  In  In43  1  0.29732454  0.83426767  0.51596135  1
  In  In44  1  0.54897769  0.33853519  0.50864117  1
  In  In45  1  0.15304066  0.32701556  0.16958190  1
  In  In46  1  0.00302391  0.33438104  0.31865638  1
  In  In47  1  0.69322199  0.83718381  0.84875446  1
  In  In48  1  0.49825949  0.32722137  0.83415677  1
  In  In49  1  0.51648364  0.82349311  0.32867589  1
  In  In50  1  0.63220563  0.34347949  0.63745626  1
  In  In51  1  0.31580275  0.01242673  0.70975039  1
  In  In52  1  0.69068913  0.16897080  0.46874638  1
  In  In53  1  0.13803680  -0.03044811  0.85723388  1
  In  In54  1  0.50997756  0.64605583  0.47355102  1
  In  In55  1  0.84072030  0.82984539  0.31451644  1
  In  In56  1  0.85991103  0.33761621  0.14523493  1
  In  In57  1  0.50444428  0.83732318  0.67540884  1
  In  In58  1  0.83609781  0.36017450  0.49597718  1
  In  In59  1  0.49036701  0.33602165  0.18128749  1
  In  In60  1  0.69735632  0.33465263  0.00044549  1
  In  In61  1  0.50712570  0.47008460  0.65230643  1
  In  In62  1  0.31329027  0.31812135  0.01722471  1
  In  In63  1  0.14451784  0.14755401  0.68177582  1
  In  In64  1  0.32269643  0.67478871  0.32310923  1
  In  In65  1  0.87167755  -0.00915723  0.85015477  1
  In  In66  1  0.51637895  0.70142432  0.84102187  1
  In  In67  1  0.30045728  0.34926099  0.62964653  1
  In  In68  1  0.86398107  -0.01652574  0.15703336  1
  In  In69  1  0.68398334  0.14086181  0.15932366  1
  In  In70  1  0.30860098  0.82412792  0.17331674  1
  In  In71  1  0.29773999  0.64289777  0.03352061  1
  Te  Te72  1  0.03873230  0.07725295  0.06717394  1
  Te  Te73  1  0.08198502  0.07469700  0.39601208  1
  Te  Te74  1  0.05813309  0.04827033  0.75152699  1
  Te  Te75  1  0.07174714  0.42374311  0.08377746  1
  Te  Te76  1  0.07849060  0.43279539  0.40758408  1
  Te  Te77  1  0.08160216  0.41194894  0.74543509  1
  Te  Te78  1  0.07125887  0.78951975  0.11932439  1
  Te  Te79  1  0.09388006  0.76991943  0.37230715  1
  Te  Te80  1  0.03205277  0.77816407  0.75881350  1
  Te  Te81  1  0.41181202  0.08863129  0.10548981  1
  Te  Te82  1  0.41795138  0.07896525  0.40618860  1
  Te  Te83  1  0.44304386  0.06905548  0.77988264  1
  Te  Te84  1  0.41229005  0.42080160  0.07982885  1
  Te  Te85  1  0.42187866  0.40458388  0.41795158  1
  Te  Te86  1  0.39846026  0.41459336  0.75406235  1
  Te  Te87  1  0.41230385  0.74730806  0.07970750  1
  Te  Te88  1  0.40833694  0.76074098  0.42714062  1
  Te  Te89  1  0.39581633  0.75037124  0.74791669  1
  Te  Te90  1  0.77130971  0.06594558  0.06793842  1
  Te  Te91  1  0.77521800  0.05705360  0.42354933  1
  Te  Te92  1  0.76210460  0.07635099  0.75955734  1
  Te  Te93  1  0.74903374  0.43713089  0.10189098  1
  Te  Te94  1  0.75176879  0.45285886  0.41378084  1
  Te  Te95  1  0.74985718  0.41407142  0.74253233  1
  Te  Te96  1  0.73584523  0.70959303  0.14399571  1
  Te  Te97  1  0.76167403  0.74187066  0.41132930  1
  Te  Te98  1  0.77938762  0.77847989  0.73598418  1
  Te  Te99  1  0.05999246  0.22738028  0.23327538  1
  Te  Te100  1  0.08782440  0.25565267  0.58252576  1
  Te  Te101  1  0.07723696  0.21703217  0.91850323  1
  Te  Te102  1  0.04689179  0.62276051  0.27092819  1
  Te  Te103  1  0.09268223  0.57153100  0.57689721  1
  Te  Te104  1  0.09502704  0.58361153  0.94032358  1
  Te  Te105  1  0.07238418  0.87924253  0.25117688  1
  Te  Te106  1  0.04729835  0.91287901  0.58127609  1
  Te  Te107  1  0.04342768  0.89561820  0.94859870  1
  Te  Te108  1  0.40424277  0.23606552  0.24600497  1
  Te  Te109  1  0.41799574  0.26053688  0.57638978  1
  Te  Te110  1  0.40718781  0.23848445  0.91974836  1
  Te  Te111  1  0.41045662  0.58460564  0.23622485  1
  Te  Te112  1  0.40988303  0.57779770  0.57974489  1
  Te  Te113  1  0.42371057  0.59698529  0.91985777  1
  Te  Te114  1  0.41353197  0.90905231  0.24906593  1
  Te  Te115  1  0.40287339  0.92631828  0.59563359  1
  Te  Te116  1  0.42937711  0.90603890  0.91698070  1
  Te  Te117  1  0.76061266  0.25676527  0.24129689  1
  Te  Te118  1  0.75679529  0.25397166  0.58595497  1
  Te  Te119  1  0.78144239  0.21934758  0.94530517  1
  Te  Te120  1  0.80825090  0.62440816  0.25022250  1
  Te  Te121  1  0.77474794  0.62817689  0.55762734  1
  Te  Te122  1  0.76020625  0.60894448  0.92983570  1
  Te  Te123  1  0.74970454  0.92151280  0.23437504  1
  Te  Te124  1  0.78665691  0.91079465  0.58131927  1
  Te  Te125  1  0.77089582  0.92545581  0.93950762  1
  Te  Te126  1  0.23246468  0.22389173  0.09595506  1
  Te  Te127  1  0.21528300  0.23619434  0.38551555  1
  Te  Te128  1  0.25030041  0.25158781  0.74484122  1
  Te  Te129  1  0.23348203  0.56454595  0.13769096  1
  Te  Te130  1  0.22819706  0.61601549  0.42951232  1
  Te  Te131  1  0.22166052  0.59652079  0.75498955  1
  Te  Te132  1  0.23645619  0.91351815  0.07412894  1
  Te  Te133  1  0.22585129  0.90535301  0.40058645  1
  Te  Te134  1  0.21749041  0.90063711  0.73914097  1
  Te  Te135  1  0.58976599  0.25785979  0.07956846  1
  Te  Te136  1  0.57713548  0.23815137  0.39503414  1
  Te  Te137  1  0.59446105  0.23925604  0.75357130  1
  Te  Te138  1  0.61777490  0.59660271  0.09663616  1
  Te  Te139  1  0.60861718  0.61483137  0.36823836  1
  Te  Te140  1  0.57549673  0.58569348  0.74717515  1
  Te  Te141  1  0.62939315  0.90905153  0.11339035  1
  Te  Te142  1  0.60648001  0.92618093  0.40046475  1
  Te  Te143  1  0.59328789  0.92164034  0.76498353  1
  Te  Te144  1  0.93504031  0.21169928  0.10991517  1
  Te  Te145  1  0.90889545  0.25051338  0.41592168  1
  Te  Te146  1  0.93952222  0.22714697  0.76300002  1
  Te  Te147  1  0.92012505  0.60993390  0.07837227  1
  Te  Te148  1  0.88918280  0.55484216  0.36558796  1
  Te  Te149  1  0.91325764  0.57568140  0.75004086  1
  Te  Te150  1  0.95161304  0.88787196  0.07744150  1
  Te  Te151  1  0.91694345  0.93112766  0.39524916  1
  Te  Te152  1  0.95322522  0.91932611  0.74799621  1
  Te  Te153  1  0.22946759  0.08140590  0.22158797  1
  Te  Te154  1  0.25388076  0.08914147  0.58297988  1
  Te  Te155  1  0.22670184  0.07119787  0.93352498  1
  Te  Te156  1  0.25412802  0.43685123  0.23660769  1
  Te  Te157  1  0.21103923  0.46698982  0.58473342  1
  Te  Te158  1  0.23740863  0.42308741  0.93290550  1
  Te  Te159  1  0.20741675  0.75112781  0.25800493  1
  Te  Te160  1  0.19314008  0.75895624  0.59048592  1
  Te  Te161  1  0.23436571  0.74818094  0.93881340  1
  Te  Te162  1  0.59363054  0.08796078  0.26264806  1
  Te  Te163  1  0.59434937  0.08684536  0.57428760  1
  Te  Te164  1  0.59891374  0.04879635  0.94397732  1
  Te  Te165  1  0.59261274  0.42843261  0.24624815  1
  Te  Te166  1  0.61659355  0.47255460  0.54626527  1
  Te  Te167  1  0.59091753  0.42092432  0.91616649  1
  Te  Te168  1  0.62616075  0.76407394  0.24035802  1
  Te  Te169  1  0.57879622  0.74505039  0.57973011  1
  Te  Te170  1  0.61066020  0.75095512  0.94773776  1
  Te  Te171  1  0.94931964  0.06789134  0.25044612  1
  Te  Te172  1  0.91944279  0.05365248  0.57312558  1
  Te  Te173  1  0.96277470  0.07689052  0.93750943  1
  Te  Te174  1  0.89219304  0.43223344  0.27159281  1
  Te  Te175  1  0.94226871  0.45073369  0.56235519  1
  Te  Te176  1  0.91162404  0.39958918  0.90861629  1
  Te  Te177  1  0.92928628  0.72736023  0.24759723  1
  Te  Te178  1  0.91444583  0.72610466  0.55502582  1
  Te  Te179  1  0.91763752  0.78674711  0.93196762  1
