# generated using pymatgen
data_In2Te3
_symmetry_space_group_name_H-M   'P 1'
_cell_length_a   18.77610280
_cell_length_b   18.78045760
_cell_length_c   18.78449171
_cell_angle_alpha   90.02548414
_cell_angle_beta   90.04649510
_cell_angle_gamma   89.98621712
_symmetry_Int_Tables_number   1
_chemical_formula_structural   In2Te3
_chemical_formula_sum   'In72 Te108'
_cell_volume   6623.85586599
_cell_formula_units_Z   36
loop_
 _symmetry_equiv_pos_site_id
 _symmetry_equiv_pos_as_xyz
  1  'x, y, z'
loop_
 _atom_site_type_symbol
 _atom_site_label
 _atom_site_symmetry_multiplicity
 _atom_site_fract_x
 _atom_site_fract_y
 _atom_site_fract_z
 _atom_site_occupancy
  In  In0  1  0.51175449  0.00242025  0.82731133  1
  In  In1  1  0.19307784  0.67521538  0.84712185  1
  In  In2  1  0.16865061  0.18301370  -0.01617310  1
  In  In3  1  0.50630876  0.13360023  0.32120340  1
  In  In4  1  -0.00961571  0.85724874  0.48812629  1
  In  In5  1  -0.01289358  0.17749295  0.15105856  1
  In  In6  1  0.19455419  0.84596554  0.34797493  1
  In  In7  1  0.52067533  0.68143557  0.50428935  1
  In  In8  1  -0.04535384  0.29728862  0.36829920  1
  In  In9  1  0.00907156  -0.00583368  -0.02006051  1
  In  In10  1  0.31325294  0.33098543  0.01825432  1
  In  In11  1  0.15811169  0.85204283  0.66839877  1
  In  In12  1  0.17017490  0.32010089  0.14732798  1
  In  In13  1  0.51469682  0.17096588  0.63040915  1
  In  In14  1  0.17387014  0.00871257  0.48942109  1
  In  In15  1  0.81129888  0.00436301  0.18169563  1
  In  In16  1  0.68685065  0.31626010  0.33424442  1
  In  In17  1  0.34000399  0.66468698  0.68524644  1
  In  In18  1  0.51227276  0.65949591  0.81447766  1
  In  In19  1  -0.01598671  0.66814730  0.29136353  1
  In  In20  1  0.18663023  -0.00841204  0.17007592  1
  In  In21  1  0.67933787  0.16375995  0.49801713  1
  In  In22  1  -0.00016191  0.65874855  0.65933399  1
  In  In23  1  0.34426037  0.68176513  0.30112700  1
  In  In24  1  -0.01661271  0.01234644  0.34170016  1
  In  In25  1  0.50387433  0.34859915  0.84804522  1
  In  In26  1  0.82232493  0.15400042  0.02016251  1
  In  In27  1  0.13242206  0.31739644  0.81812937  1
  In  In28  1  0.69139077  0.15363366  0.82150283  1
  In  In29  1  0.34908850  0.50753101  0.83551076  1
  In  In30  1  0.50529697  0.51601870  -0.01858028  1
  In  In31  1  0.68476356  0.83681749  0.18071640  1
  In  In32  1  0.66311621  0.83865369  0.49465920  1
  In  In33  1  0.66376463  0.33259827  0.65886298  1
  In  In34  1  0.33370889  0.00697977  -0.00525298  1
  In  In35  1  0.81678771  0.48786065  0.65181058  1
  In  In36  1  0.82838732  0.02666132  0.81212554  1
  In  In37  1  0.48847887  0.88555285  0.32396188  1
  In  In38  1  0.17425094  0.50816275  0.00567734  1
  In  In39  1  0.35980233  0.32339583  0.66760787  1
  In  In40  1  0.16188751  0.14738211  0.31510346  1
  In  In41  1  0.33080839  0.15260331  0.84445185  1
  In  In42  1  0.35174098  0.83668659  0.52814415  1
  In  In43  1  0.33504168  0.51412759  0.15726717  1
  In  In44  1  0.82513140  0.85012637  0.66949457  1
  In  In45  1  0.17390451  0.31975408  0.51184123  1
  In  In46  1  0.66583081  0.47771828  0.49823836  1
  In  In47  1  0.49903175  0.83548242  0.00936075  1
  In  In48  1  0.00411718  0.49035127  0.82468229  1
  In  In49  1  0.85072811  0.30485185  0.80593616  1
  In  In50  1  0.67514103  0.67213743  0.32542063  1
  In  In51  1  0.34929258  0.48410873  0.50072503  1
  In  In52  1  0.64662849  0.83091921  0.82903476  1
  In  In53  1  0.69288390  0.00183915  0.01110558  1
  In  In54  1  0.79658478  0.64814125  0.51669505  1
  In  In55  1  0.00346456  0.49404941  0.17089173  1
  In  In56  1  0.82221954  0.66624676  0.86490147  1
  In  In57  1  0.50171512  0.65711787  0.15129132  1
  In  In58  1  0.84373653  0.67419478  0.17014216  1
  In  In59  1  0.32867243  -0.01501439  0.65300841  1
  In  In60  1  0.53009605  0.32908357  0.18650815  1
  In  In61  1  0.13696057  0.14403039  0.67031518  1
  In  In62  1  0.50298046  0.16364436  0.04491562  1
  In  In63  1  0.83263350  0.82582199  0.01793093  1
  In  In64  1  0.81467690  0.49523686  0.34271170  1
  In  In65  1  0.02734143  0.81829134  0.14485773  1
  In  In66  1  -0.02636207  0.84280722  0.83505599  1
  In  In67  1  -0.02511096  0.48599324  0.50836879  1
  In  In68  1  0.81786812  0.48479606  0.01598071  1
  In  In69  1  0.14538806  0.65620014  0.49198807  1
  In  In70  1  0.34492043  0.33218016  0.34055918  1
  In  In71  1  0.15488388  0.50856070  0.33829491  1
  Te  Te72  1  0.08746039  0.08063671  0.08703335  1
  Te  Te73  1  0.07024757  0.10385676  0.42927109  1
  Te  Te74  1  0.05136456  0.09640171  0.77976452  1
  Te  Te75  1  0.07475694  0.40775446  0.06618356  1
  Te  Te76  1  0.07705251  0.40575594  0.41797706  1
  Te  Te77  1  0.05922253  0.40076828  0.72074347  1
  Te  Te78  1  0.11181438  0.73745361  0.05799800  1
  Te  Te79  1  0.07299635  0.75632453  0.40274804  1
  Te  Te80  1  0.08012785  0.74767722  0.75359516  1
  Te  Te81  1  0.42610255  0.05166267  0.10846593  1
  Te  Te82  1  0.40435132  0.05298847  0.39481852  1
  Te  Te83  1  0.42352427  0.09415102  0.73909029  1
  Te  Te84  1  0.42317826  0.41688052  0.07943736  1
  Te  Te85  1  0.44419224  0.41350169  0.41333918  1
  Te  Te86  1  0.44040410  0.43406183  0.73835168  1
  Te  Te87  1  0.41083289  0.76315102  0.10409405  1
  Te  Te88  1  0.42021622  0.76021309  0.41107818  1
  Te  Te89  1  0.42057933  0.76185668  0.75931675  1
  Te  Te90  1  0.71134201  0.11957736  0.12386053  1
  Te  Te91  1  0.76502028  0.11174584  0.38899593  1
  Te  Te92  1  0.72873317  0.06617814  0.70745130  1
  Te  Te93  1  0.77340083  0.37974571  0.11327357  1
  Te  Te94  1  0.77548502  0.38826165  0.44416104  1
  Te  Te95  1  0.74491749  0.40991714  0.76161493  1
  Te  Te96  1  0.73156442  0.73202946  0.07967276  1
  Te  Te97  1  0.76883160  0.75457798  0.41159508  1
  Te  Te98  1  0.75108200  0.74726974  0.75434315  1
  Te  Te99  1  0.07530604  0.26022345  0.25311504  1
  Te  Te100  1  0.06770347  0.24360689  0.58314102  1
  Te  Te101  1  0.05657284  0.26319798  0.93211543  1
  Te  Te102  1  0.10379500  0.59830778  0.22647662  1
  Te  Te103  1  0.08713228  0.55540638  0.58932295  1
  Te  Te104  1  0.08241228  0.58737386  0.91129735  1
  Te  Te105  1  0.08063735  0.92268124  0.26128799  1
  Te  Te106  1  0.07098515  0.94545412  0.58461293  1
  Te  Te107  1  0.09348294  0.89742173  0.90673395  1
  Te  Te108  1  0.41908708  0.24222803  0.24261967  1
  Te  Te109  1  0.41354282  0.24687408  0.55345046  1
  Te  Te110  1  0.41486183  0.24476633  0.93159312  1
  Te  Te111  1  0.43239228  0.56530288  0.26187707  1
  Te  Te112  1  0.42563115  0.58979098  0.58397152  1
  Te  Te113  1  0.40443346  0.61529531  0.92438883  1
  Te  Te114  1  0.39684799  0.95150740  0.22822683  1
  Te  Te115  1  0.45073704  0.92516914  0.59263169  1
  Te  Te116  1  0.41666235  0.91234915  0.90503417  1
  Te  Te117  1  0.76554187  0.26670662  0.21800485  1
  Te  Te118  1  0.76027629  0.22537058  0.61322026  1
  Te  Te119  1  0.75669540  0.24990517  0.91682309  1
  Te  Te120  1  0.74521962  0.57320817  0.23205987  1
  Te  Te121  1  0.69481292  0.58582610  0.61603924  1
  Te  Te122  1  0.73186818  0.57017454  0.93006543  1
  Te  Te123  1  0.73032929  0.93357160  0.28392941  1
  Te  Te124  1  0.76556583  0.93109869  0.55945444  1
  Te  Te125  1  0.76711285  0.91271719  0.90724621  1
  Te  Te126  1  0.26546413  0.21068707  0.09960176  1
  Te  Te127  1  0.25020533  0.23582712  0.41009171  1
  Te  Te128  1  0.25093826  0.24390830  0.74977180  1
  Te  Te129  1  0.25925162  0.60855073  0.07315841  1
  Te  Te130  1  0.26140560  0.59025346  0.41349697  1
  Te  Te131  1  0.23903442  0.56884529  0.74685806  1
  Te  Te132  1  0.25321283  0.90424908  0.06960754  1
  Te  Te133  1  0.29405004  0.94028054  0.42093906  1
  Te  Te134  1  0.25253707  0.91805552  0.75962076  1
  Te  Te135  1  0.58773255  0.28396870  0.05674563  1
  Te  Te136  1  0.57807579  0.23910070  0.40907567  1
  Te  Te137  1  0.57435851  0.24196452  0.76181276  1
  Te  Te138  1  0.59449188  0.56035838  0.09200794  1
  Te  Te139  1  0.58967550  0.58088219  0.41249853  1
  Te  Te140  1  0.60135010  0.57043222  0.74217825  1
  Te  Te141  1  0.59180003  0.92415346  0.09483448  1
  Te  Te142  1  0.58774073  0.94588911  0.41815304  1
  Te  Te143  1  0.60201467  0.93300161  0.73168943  1
  Te  Te144  1  0.90023893  0.27260416  0.07487296  1
  Te  Te145  1  0.87737973  0.19046715  0.45188529  1
  Te  Te146  1  0.93663457  0.19377492  0.73899645  1
  Te  Te147  1  0.92435858  0.58434187  0.07726474  1
  Te  Te148  1  0.91845858  0.59285472  0.41406702  1
  Te  Te149  1  0.89794134  0.58607027  0.74680029  1
  Te  Te150  1  0.91683821  0.93465894  0.08852766  1
  Te  Te151  1  0.88658668  0.95412529  0.44087048  1
  Te  Te152  1  0.93027283  0.94411629  0.72958329  1
  Te  Te153  1  0.27894459  0.06742082  0.26320378  1
  Te  Te154  1  0.25597114  0.09867654  0.58252004  1
  Te  Te155  1  0.22131239  0.06605533  0.90228450  1
  Te  Te156  1  0.24343964  0.41638069  0.24480989  1
  Te  Te157  1  0.25522003  0.41551874  0.59845534  1
  Te  Te158  1  0.24827451  0.40944394  0.90368209  1
  Te  Te159  1  0.24633230  0.76842029  0.23399840  1
  Te  Te160  1  0.23331610  0.74706344  0.57924077  1
  Te  Te161  1  0.21964328  0.77855350  0.95055789  1
  Te  Te162  1  0.60188928  0.07291664  0.22686012  1
  Te  Te163  1  0.57507695  0.06422573  0.54454891  1
  Te  Te164  1  0.58961972  0.08679514  0.93140912  1
  Te  Te165  1  0.60560275  0.42417169  0.26951081  1
  Te  Te166  1  0.56468478  0.39588851  0.56925324  1
  Te  Te167  1  0.60738283  0.42196326  0.92440746  1
  Te  Te168  1  0.56991090  0.76163697  0.25961565  1
  Te  Te169  1  0.58465928  0.77213553  0.60100859  1
  Te  Te170  1  0.58803722  0.73875743  0.93172308  1
  Te  Te171  1  0.89938102  0.10712036  0.25458579  1
  Te  Te172  1  0.90122146  0.13961866  0.60105139  1
  Te  Te173  1  0.92034480  0.09875738  0.91446751  1
  Te  Te174  1  0.91914112  0.41220581  0.26687136  1
  Te  Te175  1  0.90932450  0.38650352  0.59563516  1
  Te  Te176  1  0.90233299  0.41318711  0.90528170  1
  Te  Te177  1  0.90741552  0.79019256  0.24552575  1
  Te  Te178  1  0.91186312  0.75112591  0.57612647  1
  Te  Te179  1  0.93263733  0.74009330  0.94093443  1
