# generated using pymatgen
data_In2Te3
_symmetry_space_group_name_H-M   'P 1'
_cell_length_a   18.89528576
_cell_length_b   18.89620761
_cell_length_c   18.89491787
_cell_angle_alpha   90.04589017
_cell_angle_beta   90.01472124
_cell_angle_gamma   89.81790073
_symmetry_Int_Tables_number   1
_chemical_formula_structural   In2Te3
_chemical_formula_sum   'In72 Te108'
_cell_volume   6746.37965729
_cell_formula_units_Z   36
loop_
 _symmetry_equiv_pos_site_id
 _symmetry_equiv_pos_as_xyz
  1  'x, y, z'
loop_
 _atom_site_type_symbol
 _atom_site_label
 _atom_site_symmetry_multiplicity
 _atom_site_fract_x
 _atom_site_fract_y
 _atom_site_fract_z
 _atom_site_occupancy
  In  In0  1  0.82629163  0.65763956  0.85864946  1
  In  In1  1  0.64360382  0.85483738  0.47828235  1
  In  In2  1  0.00563792  0.51657669  0.17105974  1
  In  In3  1  0.83159708  0.01237229  0.52742055  1
  In  In4  1  0.65986726  -0.02540226  -0.01970279  1
  In  In5  1  0.00524004  0.67187212  0.01917107  1
  In  In6  1  0.63664041  0.16728933  0.51215869  1
  In  In7  1  0.02331791  0.01765991  0.01399843  1
  In  In8  1  0.66638761  0.65826111  -0.00025924  1
  In  In9  1  0.62605530  0.65473733  0.67592129  1
  In  In10  1  0.82541951  0.33257963  0.51697655  1
  In  In11  1  0.65908663  0.29911759  0.36623540  1
  In  In12  1  0.48918103  0.32840016  0.83708037  1
  In  In13  1  0.05632125  0.86956045  0.52495858  1
  In  In14  1  0.01516403  0.83021754  0.17299174  1
  In  In15  1  0.63876902  0.34043700  0.01947844  1
  In  In16  1  0.67512693  0.84706345  0.84045524  1
  In  In17  1  0.18551636  0.84475784  0.33147444  1
  In  In18  1  0.84064587  0.15791356  0.35015249  1
  In  In19  1  0.52386094  0.69813973  0.19716063  1
  In  In20  1  0.66126896  0.00960498  0.66534005  1
  In  In21  1  0.84051834  0.66986087  0.48523429  1
  In  In22  1  0.83745532  0.81969512  0.32226006  1
  In  In23  1  0.18682997  0.15448524  0.31819552  1
  In  In24  1  0.65717369  0.33007534  0.65670245  1
  In  In25  1  0.65895640  0.14544197  0.16684939  1
  In  In26  1  0.33446856  0.17094517  0.84067449  1
  In  In27  1  0.66013371  0.50597069  0.17963840  1
  In  In28  1  0.32830059  -0.00768010  0.66647219  1
  In  In29  1  0.17638858  0.51756213  0.33425226  1
  In  In30  1  0.18675020  0.50034212  -0.00809048  1
  In  In31  1  0.01418919  0.66775141  0.65399947  1
  In  In32  1  -0.01254095  0.31931931  0.65973349  1
  In  In33  1  0.32926382  0.35476443  0.34976185  1
  In  In34  1  0.18993060  0.33519681  0.83831706  1
  In  In35  1  0.33354954  0.84128005  0.83165667  1
  In  In36  1  0.85643850  0.83189659  0.69172197  1
  In  In37  1  -0.00506717  0.48095964  0.83102903  1
  In  In38  1  0.34774102  0.67761012  0.65110156  1
  In  In39  1  0.48624572  0.66975044  0.47340920  1
  In  In40  1  -0.01368732  0.34041286  -0.00583336  1
  In  In41  1  0.66162700  0.16445654  0.83257725  1
  In  In42  1  0.48059400  0.83621518  -0.00373724  1
  In  In43  1  0.83969662  0.33415682  0.15329653  1
  In  In44  1  0.82701243  0.51731629  0.31437954  1
  In  In45  1  0.00429750  0.15249359  0.50401326  1
  In  In46  1  0.17358083  0.69821459  0.84640727  1
  In  In47  1  0.64059178  -0.02386835  0.33371250  1
  In  In48  1  0.65187710  0.51008705  0.51042136  1
  In  In49  1  0.46799377  0.34212986  0.15888860  1
  In  In50  1  0.33202794  0.16551800  0.16327073  1
  In  In51  1  0.80782192  0.82665976  0.00072984  1
  In  In52  1  0.16717374  0.30042143  0.16474863  1
  In  In53  1  0.00519281  -0.02269348  0.32989724  1
  In  In54  1  0.82917029  0.47769930  0.66930294  1
  In  In55  1  0.18342915  0.68236575  0.47775222  1
  In  In56  1  0.83926534  -0.01508219  0.18871005  1
  In  In57  1  0.31507960  0.83076548  0.16135790  1
  In  In58  1  0.49938969  0.00446641  0.82635974  1
  In  In59  1  0.35592971  0.12485170  0.49508907  1
  In  In60  1  0.50187425  0.49276194  0.32144777  1
  In  In61  1  0.48992792  -0.00618815  0.18011487  1
  In  In62  1  0.33105591  0.31508676  0.66293839  1
  In  In63  1  0.84052975  0.17059238  -0.00068445  1
  In  In64  1  0.18372953  0.16000878  0.00367443  1
  In  In65  1  0.33313983  0.52051071  0.15003355  1
  In  In66  1  0.16278152  0.34673017  0.49570064  1
  In  In67  1  0.32963120  0.84076948  0.50404852  1
  In  In68  1  0.01558281  0.87389018  0.84197323  1
  In  In69  1  0.02199955  0.15657649  0.80164701  1
  In  In70  1  0.17597526  0.52443356  0.65878532  1
  In  In71  1  0.46652195  0.63633329  0.84970485  1
  Te  Te72  1  0.10812583  0.09019592  0.10949544  1
  Te  Te73  1  0.09140886  0.07204834  0.41015300  1
  Te  Te74  1  0.10516453  0.04197673  0.75317674  1
  Te  Te75  1  0.09100677  0.41363072  0.08012614  1
  Te  Te76  1  0.08765352  0.41331920  0.38846275  1
  Te  Te77  1  0.09667205  0.41475804  0.73671326  1
  Te  Te78  1  0.10321321  0.77430185  0.06373079  1
  Te  Te79  1  0.07596400  0.76978807  0.41235197  1
  Te  Te80  1  0.07945342  0.76689393  0.74752566  1
  Te  Te81  1  0.40771084  0.06693157  0.08303525  1
  Te  Te82  1  0.44005392  0.05405021  0.39800262  1
  Te  Te83  1  0.41849431  0.09504813  0.73769158  1
  Te  Te84  1  0.42678897  0.44552911  0.05861596  1
  Te  Te85  1  0.42912603  0.42659210  0.42985050  1
  Te  Te86  1  0.39651746  0.41152060  0.75418649  1
  Te  Te87  1  0.41965475  0.73775562  0.09026116  1
  Te  Te88  1  0.39660830  0.75911838  0.39864125  1
  Te  Te89  1  0.43045704  0.75103803  0.75521920  1
  Te  Te90  1  0.75638201  0.06536648  0.07941041  1
  Te  Te91  1  0.73471652  0.07305417  0.41727208  1
  Te  Te92  1  0.75142515  0.07022846  0.76282694  1
  Te  Te93  1  0.74796704  0.42955154  0.08131739  1
  Te  Te94  1  0.74457981  0.41569415  0.41719960  1
  Te  Te95  1  0.73279912  0.41171381  0.75399098  1
  Te  Te96  1  0.76000002  0.72539434  0.09440608  1
  Te  Te97  1  0.73215159  0.74851835  0.40952158  1
  Te  Te98  1  0.74406300  0.74012519  0.74891215  1
  Te  Te99  1  0.08447774  0.25285327  0.27522367  1
  Te  Te100  1  0.09561149  0.24302227  0.58638966  1
  Te  Te101  1  0.08611917  0.25369564  0.91522167  1
  Te  Te102  1  0.10829863  0.60593744  0.23297357  1
  Te  Te103  1  0.08624191  0.58425304  0.55195251  1
  Te  Te104  1  0.08198856  0.58239991  0.90481360  1
  Te  Te105  1  0.10976357  0.93383727  0.23002380  1
  Te  Te106  1  0.10262975  0.98115064  0.60927220  1
  Te  Te107  1  0.11627660  0.92251692  0.94070198  1
  Te  Te108  1  0.40685071  0.25375268  0.26369452  1
  Te  Te109  1  0.41860009  0.23704505  0.57005498  1
  Te  Te110  1  0.40946587  0.25313805  0.93666707  1
  Te  Te111  1  0.41748253  0.59582424  0.25101541  1
  Te  Te112  1  0.43489679  0.58181563  0.58074543  1
  Te  Te113  1  0.38796064  0.55795481  0.94625536  1
  Te  Te114  1  0.41856118  0.88614867  0.25203073  1
  Te  Te115  1  0.42521018  0.90589228  0.59632643  1
  Te  Te116  1  0.40149851  0.94325469  0.92481295  1
  Te  Te117  1  0.75809351  0.23640407  0.24334922  1
  Te  Te118  1  0.75171581  0.22618633  0.59419577  1
  Te  Te119  1  0.73459842  0.25341303  0.93212231  1
  Te  Te120  1  0.74766244  0.61184756  0.23392118  1
  Te  Te121  1  0.75487712  0.59415325  0.58840643  1
  Te  Te122  1  0.72856241  0.56156211  0.90656891  1
  Te  Te123  1  0.72614897  0.89410974  0.23496276  1
  Te  Te124  1  0.74972149  0.89678899  0.58888149  1
  Te  Te125  1  0.78253362  0.93681783  0.89681301  1
  Te  Te126  1  0.27142281  0.27009050  0.05933296  1
  Te  Te127  1  0.25663547  0.24289709  0.42627560  1
  Te  Te128  1  0.23191570  0.22849973  0.74069213  1
  Te  Te129  1  0.21829938  0.59984914  0.09704339  1
  Te  Te130  1  0.27372971  0.57860656  0.42493579  1
  Te  Te131  1  0.25702461  0.60701421  0.75424708  1
  Te  Te132  1  0.22707035  0.87857132  0.05069384  1
  Te  Te133  1  0.24738333  0.93879012  0.42778219  1
  Te  Te134  1  0.23243276  0.92209482  0.75791852  1
  Te  Te135  1  0.55958441  0.23385047  0.09390442  1
  Te  Te136  1  0.54023352  0.26056422  0.44723241  1
  Te  Te137  1  0.56954752  0.23658260  0.73760836  1
  Te  Te138  1  0.56827879  0.59111798  0.09412708  1
  Te  Te139  1  0.59430980  0.58913497  0.39587075  1
  Te  Te140  1  0.55702272  0.55908140  0.76138693  1
  Te  Te141  1  0.58175242  0.90422046  0.08645962  1
  Te  Te142  1  0.52334591  0.92244570  0.41219314  1
  Te  Te143  1  0.57737494  0.90534671  0.74224170  1
  Te  Te144  1  0.93916242  0.23453302  0.09422510  1
  Te  Te145  1  0.92274965  0.25890064  0.42472360  1
  Te  Te146  1  0.91973146  0.25934475  0.77352363  1
  Te  Te147  1  0.91757093  0.56493089  0.06290436  1
  Te  Te148  1  0.92416902  0.58465159  0.40143552  1
  Te  Te149  1  0.91616702  0.59114912  0.74395384  1
  Te  Te150  1  0.91660277  0.91326540  0.07776800  1
  Te  Te151  1  0.89584259  0.92287245  0.41804517  1
  Te  Te152  1  0.93884646  0.94494373  0.73725256  1
  Te  Te153  1  0.27062854  0.05915539  0.24428599  1
  Te  Te154  1  0.23923389  0.06439615  0.56648135  1
  Te  Te155  1  0.23968770  0.07333189  0.89947951  1
  Te  Te156  1  0.25338377  0.41390126  0.23026881  1
  Te  Te157  1  0.26018815  0.42668134  0.58011941  1
  Te  Te158  1  0.28158029  0.44253308  0.88957507  1
  Te  Te159  1  0.23537551  0.73511205  0.24509808  1
  Te  Te160  1  0.23248726  0.76213525  0.59721290  1
  Te  Te161  1  0.27872760  0.75019509  0.93613819  1
  Te  Te162  1  0.56522938  0.09837211  0.27669307  1
  Te  Te163  1  0.56006541  0.05625097  0.57027446  1
  Te  Te164  1  0.57338056  0.08762610  0.93077959  1
  Te  Te165  1  0.59180483  0.38444704  0.24996719  1
  Te  Te166  1  0.56454170  0.41676898  0.57999250  1
  Te  Te167  1  0.57679328  0.42056954  0.91364390  1
  Te  Te168  1  0.61025731  0.78054769  0.28345029  1
  Te  Te169  1  0.57614923  0.75017894  0.57238889  1
  Te  Te170  1  0.57944551  0.75133173  0.91079284  1
  Te  Te171  1  0.93135991  0.08735694  0.25095735  1
  Te  Te172  1  0.91465557  0.10088110  0.60893169  1
  Te  Te173  1  0.93636817  0.08986431  0.91280024  1
  Te  Te174  1  0.92227706  0.41567973  0.25064897  1
  Te  Te175  1  0.93201755  0.42891757  0.56881827  1
  Te  Te176  1  0.89167535  0.41702725  0.91233252  1
  Te  Te177  1  0.92495872  0.73623645  0.23937817  1
  Te  Te178  1  0.93147236  0.76889940  0.57290514  1
  Te  Te179  1  0.92483800  0.76137970  0.91066373  1
