# generated using pymatgen
data_In2Te3
_symmetry_space_group_name_H-M   'P 1'
_cell_length_a   18.75621688
_cell_length_b   18.74639994
_cell_length_c   18.75945077
_cell_angle_alpha   90.01250925
_cell_angle_beta   90.02251536
_cell_angle_gamma   90.00316349
_symmetry_Int_Tables_number   1
_chemical_formula_structural   In2Te3
_chemical_formula_sum   'In72 Te108'
_cell_volume   6596.03875673
_cell_formula_units_Z   36
loop_
 _symmetry_equiv_pos_site_id
 _symmetry_equiv_pos_as_xyz
  1  'x, y, z'
loop_
 _atom_site_type_symbol
 _atom_site_label
 _atom_site_symmetry_multiplicity
 _atom_site_fract_x
 _atom_site_fract_y
 _atom_site_fract_z
 _atom_site_occupancy
  In  In0  1  0.50538272  0.35217448  0.15446307  1
  In  In1  1  0.15038876  -0.01525306  0.15625131  1
  In  In2  1  0.00873760  0.66903384  0.31554170  1
  In  In3  1  0.68262735  0.17126832  0.81977499  1
  In  In4  1  0.67882172  0.65162869  0.68699873  1
  In  In5  1  0.68759410  0.18377123  0.52182957  1
  In  In6  1  0.84430781  0.17934802  0.00770995  1
  In  In7  1  -0.03240764  0.51711280  0.82354645  1
  In  In8  1  0.32746259  0.16486693  0.15257291  1
  In  In9  1  0.83176722  0.84180499  0.32966005  1
  In  In10  1  0.50267340  0.16037638  0.33651718  1
  In  In11  1  0.51870569  0.65810150  0.51151752  1
  In  In12  1  -0.00227383  0.17542321  0.83402445  1
  In  In13  1  0.00760719  0.81708305  0.15229924  1
  In  In14  1  0.33178526  0.67717528  0.29848222  1
  In  In15  1  0.50333537  0.50161291  -0.00100610  1
  In  In16  1  0.53372334  0.18024205  0.67462600  1
  In  In17  1  0.55148138  0.48748760  0.66827052  1
  In  In18  1  0.82397109  0.00183928  0.51783375  1
  In  In19  1  0.34738715  0.17374800  0.85814889  1
  In  In20  1  0.15736860  0.67480205  0.84543134  1
  In  In21  1  0.51868962  0.83313117  0.33528238  1
  In  In22  1  0.67686212  0.49976549  0.15210807  1
  In  In23  1  0.67857876  0.65683551  -0.00910879  1
  In  In24  1  0.15514294  0.85310905  0.67342311  1
  In  In25  1  0.32905249  -0.01178698  0.67872136  1
  In  In26  1  0.16405292  -0.01263935  0.48546812  1
  In  In27  1  0.67354358  0.81633337  0.82465564  1
  In  In28  1  0.49473134  0.81186644  0.67754361  1
  In  In29  1  0.82523749  0.81573933  -0.01302233  1
  In  In30  1  0.82304444  0.66862702  0.51396487  1
  In  In31  1  -0.00246824  0.17020269  0.16255606  1
  In  In32  1  0.00892734  0.00806601  -0.01280435  1
  In  In33  1  0.83032211  0.48921414  0.32475873  1
  In  In34  1  0.17416566  0.32187749  0.49223003  1
  In  In35  1  0.65560493  0.66455912  0.32851002  1
  In  In36  1  0.17934888  0.00744707  0.82695948  1
  In  In37  1  0.35224938  0.17335346  0.50656935  1
  In  In38  1  -0.02023686  0.80903924  0.50705312  1
  In  In39  1  0.15376538  0.51329733  0.29766186  1
  In  In40  1  0.00174005  0.02105061  0.30818114  1
  In  In41  1  0.69831089  0.31196586  0.31947312  1
  In  In42  1  0.18708452  0.51744674  0.02508450  1
  In  In43  1  0.16195421  0.33129474  0.14965377  1
  In  In44  1  0.13324425  0.63962196  0.51290529  1
  In  In45  1  0.66859593  -0.00785043  0.33953644  1
  In  In46  1  0.32705604  0.01276723  0.32478067  1
  In  In47  1  0.34591559  0.50910363  0.48521355  1
  In  In48  1  0.84576468  0.50895566  0.00427686  1
  In  In49  1  0.66785936  -0.01655317  -0.00168157  1
  In  In50  1  0.34997270  0.32534037  0.68836457  1
  In  In51  1  0.14954788  0.33825981  0.85290419  1
  In  In52  1  0.33422052  0.83326154  0.50914596  1
  In  In53  1  0.13566961  0.14945833  0.68041880  1
  In  In54  1  0.51583996  -0.00525362  0.15522429  1
  In  In55  1  0.50423123  0.18379669  0.00389058  1
  In  In56  1  0.34510575  0.68991886  0.68850401  1
  In  In57  1  0.82825304  0.00349486  0.18244717  1
  In  In58  1  -0.03264980  0.34413407  0.66713171  1
  In  In59  1  0.17556766  0.82061277  0.01883692  1
  In  In60  1  0.33393064  0.35535983  0.34184075  1
  In  In61  1  0.34474544  0.51620157  0.84313851  1
  In  In62  1  -0.03053010  0.32444745  0.32548244  1
  In  In63  1  0.67629838  -0.00049819  0.66626206  1
  In  In64  1  0.14855882  0.51312323  0.63293979  1
  In  In65  1  -0.03187418  0.16087204  0.48742726  1
  In  In66  1  0.65781446  0.34727528  -0.00415989  1
  In  In67  1  -0.01384879  0.48125419  0.50995822  1
  In  In68  1  0.48560103  0.52794544  0.32310119  1
  In  In69  1  0.33874921  0.80473711  0.15214351  1
  In  In70  1  -0.03403598  0.83931892  0.82957564  1
  In  In71  1  0.47140077  -0.01963324  0.86280972  1
  Te  Te72  1  0.09816286  0.09988477  0.07004240  1
  Te  Te73  1  0.08592387  0.09737170  0.41247776  1
  Te  Te74  1  0.04661513  0.04206561  0.75184109  1
  Te  Te75  1  0.07841855  0.42615062  0.07153936  1
  Te  Te76  1  0.09152658  0.42352273  0.41222154  1
  Te  Te77  1  0.08333744  0.41810364  0.74095435  1
  Te  Te78  1  0.07418693  0.71980288  0.06371323  1
  Te  Te79  1  0.08915415  0.75294761  0.41593917  1
  Te  Te80  1  0.06976999  0.75149493  0.74710259  1
  Te  Te81  1  0.41860217  0.07428141  0.06824748  1
  Te  Te82  1  0.42685497  0.06408932  0.42845881  1
  Te  Te83  1  0.41893542  0.09318485  0.74513396  1
  Te  Te84  1  0.40539256  0.40887658  0.06366452  1
  Te  Te85  1  0.44736175  0.41255585  0.42465172  1
  Te  Te86  1  0.43646856  0.42789918  0.75816671  1
  Te  Te87  1  0.42310621  0.75734029  0.03919080  1
  Te  Te88  1  0.41601344  0.73352414  0.42404466  1
  Te  Te89  1  0.43213575  0.74562317  0.79415111  1
  Te  Te90  1  0.74637334  0.08479966  0.08183755  1
  Te  Te91  1  0.75441430  0.09297270  0.41711966  1
  Te  Te92  1  0.77432946  0.08771812  0.73617605  1
  Te  Te93  1  0.76787012  0.39910332  0.08911061  1
  Te  Te94  1  0.75880149  0.40312457  0.42261080  1
  Te  Te95  1  0.69923281  0.39043311  0.72388146  1
  Te  Te96  1  0.75296716  0.74031083  0.08983039  1
  Te  Te97  1  0.74046187  0.75662979  0.41743972  1
  Te  Te98  1  0.78111795  0.73108727  0.76434057  1
  Te  Te99  1  0.08521765  0.25124658  0.26020863  1
  Te  Te100  1  0.07295684  0.25455767  0.58431750  1
  Te  Te101  1  0.07686493  0.24326217  0.93890962  1
  Te  Te102  1  0.05778622  0.58023999  0.20077519  1
  Te  Te103  1  0.02004979  0.60151090  0.61617183  1
  Te  Te104  1  0.08208455  0.56207863  0.91432270  1
  Te  Te105  1  0.08112569  0.89909877  0.26089660  1
  Te  Te106  1  0.06034642  0.92371801  0.57654589  1
  Te  Te107  1  0.09224042  0.90267144  0.91488855  1
  Te  Te108  1  0.41734470  0.25233943  0.24755125  1
  Te  Te109  1  0.44366393  0.26881960  0.58084499  1
  Te  Te110  1  0.43795036  0.27807410  0.91086460  1
  Te  Te111  1  0.40399059  0.58085120  0.20666367  1
  Te  Te112  1  0.41854869  0.58176788  0.59980688  1
  Te  Te113  1  0.41057790  0.60646615  0.94214683  1
  Te  Te114  1  0.41520488  0.91157360  0.24904960  1
  Te  Te115  1  0.43068847  0.92045189  0.58667915  1
  Te  Te116  1  0.40317470  0.87841135  0.94265239  1
  Te  Te117  1  0.78493817  0.23452760  0.23114141  1
  Te  Te118  1  0.74220453  0.27162971  0.62942272  1
  Te  Te119  1  0.75884171  0.26648501  0.91261941  1
  Te  Te120  1  0.75921864  0.59465414  0.24037838  1
  Te  Te121  1  0.74505362  0.56273312  0.58514256  1
  Te  Te122  1  0.74529213  0.55653160  0.89876386  1
  Te  Te123  1  0.72804522  0.89885765  0.23203388  1
  Te  Te124  1  0.75508654  0.89425039  0.59389418  1
  Te  Te125  1  0.76228744  0.92124152  0.89560499  1
  Te  Te126  1  0.25833446  0.25834788  0.06248453  1
  Te  Te127  1  0.25987316  0.23459886  0.40031983  1
  Te  Te128  1  0.23798156  0.24444642  0.75427026  1
  Te  Te129  1  0.27047593  0.59577999  0.12207627  1
  Te  Te130  1  0.24294212  0.58843910  0.40573620  1
  Te  Te131  1  0.24246217  0.58123344  0.74203379  1
  Te  Te132  1  0.26779735  0.92676748  0.08153658  1
  Te  Te133  1  0.25169244  0.89821617  0.39767199  1
  Te  Te134  1  0.26531501  0.88925219  0.77388542  1
  Te  Te135  1  0.60283067  0.24756305  0.10103365  1
  Te  Te136  1  0.59353586  0.25112697  0.41678336  1
  Te  Te137  1  0.58610441  0.27970990  0.77528995  1
  Te  Te138  1  0.57672218  0.59675270  0.09501729  1
  Te  Te139  1  0.59796868  0.56115298  0.42614938  1
  Te  Te140  1  0.57383092  0.59016349  0.77187230  1
  Te  Te141  1  0.58179222  0.88930713  0.07387284  1
  Te  Te142  1  0.59059322  0.91154883  0.43556306  1
  Te  Te143  1  0.57410072  0.92702495  0.75901962  1
  Te  Te144  1  0.92820739  0.27470335  0.08431967  1
  Te  Te145  1  0.89118558  0.28115268  0.44407634  1
  Te  Te146  1  0.89569811  0.25154698  0.75754784  1
  Te  Te147  1  0.93136637  0.57267343  0.10652969  1
  Te  Te148  1  0.92240984  0.59022335  0.41576870  1
  Te  Te149  1  0.90221991  0.59591434  0.71743569  1
  Te  Te150  1  0.91904788  0.92728401  0.08413194  1
  Te  Te151  1  0.92477916  0.93024912  0.41295562  1
  Te  Te152  1  0.93001440  0.94335775  0.73305844  1
  Te  Te153  1  0.22709795  0.08945445  0.24195319  1
  Te  Te154  1  0.24647965  0.08194793  0.58271482  1
  Te  Te155  1  0.25525863  0.08209543  0.92842053  1
  Te  Te156  1  0.26001307  0.42579174  0.23163470  1
  Te  Te157  1  0.26379165  0.41111004  0.57984897  1
  Te  Te158  1  0.25762495  0.41889935  0.92338892  1
  Te  Te159  1  0.22211211  0.73965163  0.22008853  1
  Te  Te160  1  0.23545192  0.74374943  0.58576846  1
  Te  Te161  1  0.26164154  0.73061941  0.93457218  1
  Te  Te162  1  0.59893934  0.08918042  0.24211376  1
  Te  Te163  1  0.58582757  0.07966952  0.57169127  1
  Te  Te164  1  0.58384868  0.08579179  0.91165448  1
  Te  Te165  1  0.58960598  0.42597594  0.25886234  1
  Te  Te166  1  0.62543505  0.38286434  0.59212783  1
  Te  Te167  1  0.61706824  0.46257012  0.90544282  1
  Te  Te168  1  0.56005291  0.73182946  0.23725081  1
  Te  Te169  1  0.60414354  0.75451973  0.58934036  1
  Te  Te170  1  0.58885609  0.76358161  0.93381990  1
  Te  Te171  1  0.88554353  0.12020832  0.26902762  1
  Te  Te172  1  0.90389812  0.09536375  0.60366825  1
  Te  Te173  1  0.90046171  0.07752255  0.90822384  1
  Te  Te174  1  0.92875889  0.43028596  0.22972997  1
  Te  Te175  1  0.87408353  0.44292998  0.60289083  1
  Te  Te176  1  0.90301305  0.41284313  0.90462116  1
  Te  Te177  1  0.90121752  0.74407767  0.23559961  1
  Te  Te178  1  0.87992640  0.77005046  0.61113130  1
  Te  Te179  1  0.92442553  0.72968192  0.91928601  1
