# generated using pymatgen
data_In2Te3
_symmetry_space_group_name_H-M   'P 1'
_cell_length_a   19.00585291
_cell_length_b   18.97709919
_cell_length_c   19.00347359
_cell_angle_alpha   89.93505909
_cell_angle_beta   89.98212772
_cell_angle_gamma   90.06779226
_symmetry_Int_Tables_number   1
_chemical_formula_structural   In2Te3
_chemical_formula_sum   'In72 Te108'
_cell_volume   6854.08646341
_cell_formula_units_Z   36
loop_
 _symmetry_equiv_pos_site_id
 _symmetry_equiv_pos_as_xyz
  1  'x, y, z'
loop_
 _atom_site_type_symbol
 _atom_site_label
 _atom_site_symmetry_multiplicity
 _atom_site_fract_x
 _atom_site_fract_y
 _atom_site_fract_z
 _atom_site_occupancy
  In  In0  1  0.68188718  0.15259244  0.47470549  1
  In  In1  1  0.68676098  0.50486190  0.81249989  1
  In  In2  1  0.01744021  0.16292295  0.85641305  1
  In  In3  1  0.14818814  0.51174047  0.65641913  1
  In  In4  1  0.83397128  0.33935508  0.48365567  1
  In  In5  1  0.14761487  0.34335325  0.17353561  1
  In  In6  1  0.49482801  -0.00696220  0.50673096  1
  In  In7  1  0.65055725  -0.01297660  0.01396823  1
  In  In8  1  0.50548344  0.66122406  0.83612047  1
  In  In9  1  0.48735234  0.17597316  0.00361764  1
  In  In10  1  0.49477902  0.32261215  0.82706149  1
  In  In11  1  0.84523437  0.64738231  0.82742020  1
  In  In12  1  0.67903846  0.31597585  0.65734329  1
  In  In13  1  0.14134000  0.00669206  0.16654190  1
  In  In14  1  0.29465424  0.30710681  0.27197260  1
  In  In15  1  0.01326776  0.31203512  0.68259038  1
  In  In16  1  0.25416543  0.15380708  0.12882807  1
  In  In17  1  0.32446103  0.13167447  0.83343815  1
  In  In18  1  -0.00456869  0.00118294  0.33282301  1
  In  In19  1  0.86975674  0.53117358  0.62940317  1
  In  In20  1  0.15677643  0.85480611  0.66891105  1
  In  In21  1  0.01260136  0.83762831  0.85739931  1
  In  In22  1  0.12754356  0.53311635  0.33733271  1
  In  In23  1  0.67618448  0.68839259  0.31014336  1
  In  In24  1  0.13870459  0.16312852  0.32487606  1
  In  In25  1  0.12821612  0.37446580  0.47966327  1
  In  In26  1  0.33228879  0.48836901  0.14856461  1
  In  In27  1  0.17805660  0.51356696  -0.00715094  1
  In  In28  1  0.83833871  0.00490105  0.85102598  1
  In  In29  1  0.32538567  0.50263669  0.48313530  1
  In  In30  1  0.86706330  -0.00002545  0.49888256  1
  In  In31  1  0.01108076  0.69080053  0.00547264  1
  In  In32  1  0.51703155  0.68879737  0.17546424  1
  In  In33  1  0.84524237  0.15575464  0.30667507  1
  In  In34  1  0.84710731  0.19405049  0.03829690  1
  In  In35  1  0.32915485  -0.03565950  0.71296213  1
  In  In36  1  0.32232994  0.65683359  0.31377074  1
  In  In37  1  0.50142313  0.83094773  0.68998556  1
  In  In38  1  0.83527113  -0.02805754  0.14383471  1
  In  In39  1  0.65906454  -0.01451936  0.66020709  1
  In  In40  1  0.49289976  0.53265197  0.00423243  1
  In  In41  1  0.15236089  0.67883061  0.15704883  1
  In  In42  1  0.51914339  0.80978634  0.32041241  1
  In  In43  1  0.51213807  0.12899853  0.32832989  1
  In  In44  1  0.70005288  0.32862354  0.34688396  1
  In  In45  1  0.86521700  0.68044295  0.49439939  1
  In  In46  1  0.49236766  -0.01995689  0.16230576  1
  In  In47  1  -0.03191659  0.49800363  0.18735264  1
  In  In48  1  0.67694601  0.15313880  0.84851404  1
  In  In49  1  0.29674650  0.83605111  0.49163242  1
  In  In50  1  0.64257711  0.34673063  0.00885620  1
  In  In51  1  0.51184281  0.33284496  0.17445929  1
  In  In52  1  0.84489050  0.82613124  0.68285078  1
  In  In53  1  0.33153225  -0.00593701  -0.01040388  1
  In  In54  1  0.70443142  0.52326071  0.18274222  1
  In  In55  1  0.30855003  0.17033488  0.50189355  1
  In  In56  1  0.86484758  0.32746517  0.84551321  1
  In  In57  1  0.32343441  0.66982711  0.64087379  1
  In  In58  1  0.50293163  0.67256665  0.50800527  1
  In  In59  1  0.85215893  0.71224338  0.16153492  1
  In  In60  1  0.32962804  0.81910990  0.17927626  1
  In  In61  1  0.83244812  0.48908079  -0.01387127  1
  In  In62  1  0.67350973  0.81778933  0.47904980  1
  In  In63  1  0.32470309  0.32344649  0.68261295  1
  In  In64  1  0.18744840  0.69495589  0.84024779  1
  In  In65  1  0.49998440  0.33808138  0.51505604  1
  In  In66  1  -0.00908669  0.16069362  0.50608043  1
  In  In67  1  0.52419736  0.46147945  0.67249737  1
  In  In68  1  0.14964489  0.12413717  0.66424468  1
  In  In69  1  0.16018794  0.32284166  0.86322445  1
  In  In70  1  0.66846251  0.82463702  0.83917597  1
  In  In71  1  0.51071985  0.50108274  0.35583036  1
  Te  Te72  1  0.12193794  0.11992210  0.07132870  1
  Te  Te73  1  0.09280398  0.07191492  0.43655682  1
  Te  Te74  1  0.09071133  0.05648311  0.78136384  1
  Te  Te75  1  0.08099073  0.45297243  0.09693622  1
  Te  Te76  1  0.04049210  0.41691019  0.37055085  1
  Te  Te77  1  0.09136778  0.41559912  0.75799293  1
  Te  Te78  1  0.12654810  0.77962865  0.04645509  1
  Te  Te79  1  0.01733979  0.68770202  0.45868841  1
  Te  Te80  1  0.07851325  0.75115068  0.75091861  1
  Te  Te81  1  0.40211551  0.09161708  0.09575919  1
  Te  Te82  1  0.40279695  0.07828393  0.42169040  1
  Te  Te83  1  0.42209710  0.07221919  0.74289774  1
  Te  Te84  1  0.43279027  0.40838328  0.06852757  1
  Te  Te85  1  0.41050844  0.40033433  0.40868372  1
  Te  Te86  1  0.40517028  0.42661391  0.75810886  1
  Te  Te87  1  0.41685648  0.74650623  0.08693000  1
  Te  Te88  1  0.40967680  0.74153309  0.41126071  1
  Te  Te89  1  0.39932505  0.73974581  0.75068091  1
  Te  Te90  1  0.75139952  0.08237579  0.08002072  1
  Te  Te91  1  0.76871195  0.05795851  0.39760496  1
  Te  Te92  1  0.75172397  0.07289530  0.74486212  1
  Te  Te93  1  0.75270734  0.41049137  0.09129053  1
  Te  Te94  1  0.77183449  0.44300309  0.40025595  1
  Te  Te95  1  0.77012286  0.39938673  0.74574886  1
  Te  Te96  1  0.73674889  0.77969078  0.10327150  1
  Te  Te97  1  0.78088759  0.76635843  0.39038818  1
  Te  Te98  1  0.74645776  0.73283117  0.74796978  1
  Te  Te99  1  0.05542335  0.24234640  0.23105454  1
  Te  Te100  1  0.10209360  0.24932573  0.57590466  1
  Te  Te101  1  0.06161354  0.26449221  0.95428814  1
  Te  Te102  1  0.04474889  0.62056837  0.24639051  1
  Te  Te103  1  0.06048197  0.56374637  0.54889573  1
  Te  Te104  1  0.08747942  0.60103853  0.90980427  1
  Te  Te105  1  0.07835740  0.90361265  0.25337964  1
  Te  Te106  1  0.10336681  0.93348443  0.55567413  1
  Te  Te107  1  0.06364086  0.91494192  0.97335419  1
  Te  Te108  1  0.42705792  0.23774291  0.25579040  1
  Te  Te109  1  0.41354304  0.24108216  0.59215614  1
  Te  Te110  1  0.39431296  0.24807092  0.90957227  1
  Te  Te111  1  0.43186808  0.57433918  0.24499089  1
  Te  Te112  1  0.42629533  0.56277593  0.58069611  1
  Te  Te113  1  0.39919126  0.59566019  0.91406061  1
  Te  Te114  1  0.41326119  0.90683821  0.27106737  1
  Te  Te115  1  0.40887491  0.88889342  0.57921336  1
  Te  Te116  1  0.35711317  0.90011430  0.87633460  1
  Te  Te117  1  0.73639948  0.23237637  0.24551089  1
  Te  Te118  1  0.76854179  0.23003222  0.57128154  1
  Te  Te119  1  0.74737508  0.26279975  0.92703767  1
  Te  Te120  1  0.79750064  0.60821525  0.26365777  1
  Te  Te121  1  0.76197460  0.60972624  0.57386200  1
  Te  Te122  1  0.73752335  0.59014948  0.92498876  1
  Te  Te123  1  0.77106112  0.87903914  0.23942920  1
  Te  Te124  1  0.75688186  0.90558131  0.57691874  1
  Te  Te125  1  0.75291370  0.90979982  0.93162584  1
  Te  Te126  1  0.26602884  0.29758905  0.09666231  1
  Te  Te127  1  0.23139279  0.26386618  0.40459239  1
  Te  Te128  1  0.22763063  0.23063934  0.75238518  1
  Te  Te129  1  0.26349354  0.60361077  0.08225679  1
  Te  Te130  1  0.23153613  0.60359859  0.42488941  1
  Te  Te131  1  0.24533706  0.58787951  0.74218853  1
  Te  Te132  1  0.25617005  0.92645912  0.10242498  1
  Te  Te133  1  0.19984599  0.93095919  0.43939943  1
  Te  Te134  1  0.20425911  0.93339414  0.78835580  1
  Te  Te135  1  0.59386617  0.23229236  0.09542292  1
  Te  Te136  1  0.57701812  0.24926710  0.41653197  1
  Te  Te137  1  0.59011310  0.23523852  0.74957007  1
  Te  Te138  1  0.60014436  0.59111446  0.09378214  1
  Te  Te139  1  0.60277804  0.60381064  0.41688483  1
  Te  Te140  1  0.58824799  0.58421825  0.73047264  1
  Te  Te141  1  0.53279925  0.90267278  0.04307851  1
  Te  Te142  1  0.58448902  0.91778029  0.40965101  1
  Te  Te143  1  0.57684370  0.92939029  0.77395908  1
  Te  Te144  1  0.93284125  0.28040388  0.12356421  1
  Te  Te145  1  0.92286492  0.24522947  0.40244731  1
  Te  Te146  1  0.91821885  0.21956108  0.75435953  1
  Te  Te147  1  0.90891947  0.59194757  0.07331798  1
  Te  Te148  1  0.94674637  0.55592539  0.44134580  1
  Te  Te149  1  0.94092324  0.57036206  0.74980663  1
  Te  Te150  1  0.94242485  0.89893435  0.06984401  1
  Te  Te151  1  0.94215690  0.89946206  0.42437767  1
  Te  Te152  1  0.92901039  0.92374684  0.76118749  1
  Te  Te153  1  0.24524082  0.08016905  0.26094409  1
  Te  Te154  1  0.27103220  0.06303497  0.60212830  1
  Te  Te155  1  0.23018418  0.09230947  0.94160538  1
  Te  Te156  1  0.24204664  0.45128819  0.26545171  1
  Te  Te157  1  0.24934791  0.41125631  0.58068793  1
  Te  Te158  1  0.25626664  0.42047671  0.91290749  1
  Te  Te159  1  0.22159234  0.75896505  0.26935001  1
  Te  Te160  1  0.21102166  0.74287568  0.57407442  1
  Te  Te161  1  0.24712999  0.80231506  0.92260292  1
  Te  Te162  1  0.59494675  0.04748149  0.24242873  1
  Te  Te163  1  0.58707961  0.09012698  0.57714630  1
  Te  Te164  1  0.56684222  0.07888841  0.92031582  1
  Te  Te165  1  0.59865441  0.42985987  0.25346176  1
  Te  Te166  1  0.61871016  0.41984950  0.56274700  1
  Te  Te167  1  0.57975591  0.42891257  0.89831911  1
  Te  Te168  1  0.63211998  0.81128579  0.21402192  1
  Te  Te169  1  0.59244834  0.75708357  0.59390122  1
  Te  Te170  1  0.57066183  0.75747836  0.92574847  1
  Te  Te171  1  0.92974861  0.07003454  0.21546519  1
  Te  Te172  1  0.93270594  0.07339817  0.60722302  1
  Te  Te173  1  0.91591628  0.09262461  0.94722393  1
  Te  Te174  1  0.87798044  0.38681289  0.21779925  1
  Te  Te175  1  0.92710624  0.39607678  0.58917268  1
  Te  Te176  1  0.94507867  0.41840043  0.92559777  1
  Te  Te177  1  0.95974077  0.80945176  0.19535070  1
  Te  Te178  1  0.94379834  0.76045376  0.59596499  1
  Te  Te179  1  0.90180094  0.75273096  0.91984868  1
