# generated using pymatgen
data_In2Te3
_symmetry_space_group_name_H-M   'P 1'
_cell_length_a   18.94725593
_cell_length_b   18.96922446
_cell_length_c   18.95107176
_cell_angle_alpha   89.89848406
_cell_angle_beta   90.01719414
_cell_angle_gamma   90.13546384
_symmetry_Int_Tables_number   1
_chemical_formula_structural   In2Te3
_chemical_formula_sum   'In72 Te108'
_cell_volume   6811.26470543
_cell_formula_units_Z   36
loop_
 _symmetry_equiv_pos_site_id
 _symmetry_equiv_pos_as_xyz
  1  'x, y, z'
loop_
 _atom_site_type_symbol
 _atom_site_label
 _atom_site_symmetry_multiplicity
 _atom_site_fract_x
 _atom_site_fract_y
 _atom_site_fract_z
 _atom_site_occupancy
  In  In0  1  0.80455009  0.33519040  0.49562517  1
  In  In1  1  0.84446056  0.15925843  0.67640725  1
  In  In2  1  0.33378467  -0.00565495  0.03366963  1
  In  In3  1  0.34046919  0.82711112  0.17716058  1
  In  In4  1  0.81835392  -0.02009910  0.83510661  1
  In  In5  1  0.19171949  0.31387327  0.51869486  1
  In  In6  1  0.69065984  0.01352811  0.32193411  1
  In  In7  1  0.17907758  0.17087628  0.35698099  1
  In  In8  1  -0.01778343  0.34433982  0.33660162  1
  In  In9  1  0.47951327  0.14579873  -0.00371820  1
  In  In10  1  0.00284386  0.19367264  0.85748897  1
  In  In11  1  0.17293924  0.69314065  0.19935664  1
  In  In12  1  -0.02273085  0.49458384  0.84022678  1
  In  In13  1  -0.02023553  0.83364873  0.81852580  1
  In  In14  1  0.00263515  0.50879820  0.50201548  1
  In  In15  1  0.68763888  0.15806795  0.15866602  1
  In  In16  1  0.33460225  0.17419409  0.83217671  1
  In  In17  1  0.16363579  0.49591754  0.32601407  1
  In  In18  1  0.19225893  0.34935282  0.15953219  1
  In  In19  1  -0.00634135  0.00662950  0.68997586  1
  In  In20  1  0.00748763  0.34411245  0.00712599  1
  In  In21  1  0.17503207  -0.00170895  0.48498329  1
  In  In22  1  0.49743728  0.34084588  0.15481666  1
  In  In23  1  0.50349379  0.81930468  0.33979876  1
  In  In24  1  0.81989012  0.14948288  0.00977932  1
  In  In25  1  0.34067051  0.33890430  0.00887403  1
  In  In26  1  0.18047222  0.83375250  0.00659566  1
  In  In27  1  0.65885567  0.66467993  0.00092156  1
  In  In28  1  0.84415613  0.66090328  0.50483833  1
  In  In29  1  0.36576675  -0.02121937  0.63638122  1
  In  In30  1  0.66614845  0.81370826  0.80072214  1
  In  In31  1  0.58788969  0.38929040  0.66939732  1
  In  In32  1  0.33262686  -0.00153343  0.32797506  1
  In  In33  1  0.17776190  0.48740334  0.00575196  1
  In  In34  1  0.65436233  0.35415399  0.33651248  1
  In  In35  1  0.84916979  0.15723269  0.33446097  1
  In  In36  1  0.01102435  0.85460299  0.18717074  1
  In  In37  1  0.01990436  0.33281859  0.66051970  1
  In  In38  1  0.65864796  0.68364707  0.61595762  1
  In  In39  1  0.33697312  0.81016745  0.82195235  1
  In  In40  1  0.35102212  0.54288462  0.19150670  1
  In  In41  1  0.00067107  0.81178018  0.49013495  1
  In  In42  1  0.66126765  0.15696424  0.82061689  1
  In  In43  1  0.49546783  0.19416970  0.32268504  1
  In  In44  1  0.50510734  -0.03245765  0.82704992  1
  In  In45  1  -0.02050333  0.67274325  -0.01422500  1
  In  In46  1  0.49013688  0.17365709  0.64383141  1
  In  In47  1  0.15189889  0.80819440  0.66570983  1
  In  In48  1  0.65341655  0.33593996  -0.03129213  1
  In  In49  1  0.35702110  0.35963387  0.66453959  1
  In  In50  1  0.84213587  0.82841050  0.33978239  1
  In  In51  1  0.52211168  0.85292038  0.02228414  1
  In  In52  1  0.83846894  0.00452922  0.17078640  1
  In  In53  1  0.00255235  0.00789540  0.03451450  1
  In  In54  1  0.80659752  0.50489180  0.00803750  1
  In  In55  1  0.19498863  0.14863138  0.67001004  1
  In  In56  1  0.15539177  0.52328968  0.69397481  1
  In  In57  1  0.18422441  -0.01464180  0.84803886  1
  In  In58  1  0.82007368  0.50713304  0.68027673  1
  In  In59  1  0.64058092  0.51745906  0.16939525  1
  In  In60  1  0.35205991  0.48920191  0.49021384  1
  In  In61  1  0.63351694  0.64982274  0.36301879  1
  In  In62  1  0.33703952  0.68115715  -0.00776527  1
  In  In63  1  0.48871616  0.65453827  0.81681976  1
  In  In64  1  0.02320599  0.16162475  0.17848923  1
  In  In65  1  0.81274569  0.67685646  0.16216481  1
  In  In66  1  0.15859548  0.65941821  0.49205283  1
  In  In67  1  0.32918400  0.65248743  0.65813424  1
  In  In68  1  0.66452257  0.50914286  0.83153409  1
  In  In69  1  0.84761609  0.35351871  0.17492281  1
  In  In70  1  0.67713121  0.14518210  0.49354866  1
  In  In71  1  0.50794966  -0.00950717  0.47750377  1
  Te  Te72  1  0.10177358  0.10911822  0.06665408  1
  Te  Te73  1  0.07775882  0.08885401  0.42283592  1
  Te  Te74  1  0.09571966  0.09336964  0.77512423  1
  Te  Te75  1  0.07556022  0.43265525  0.10747699  1
  Te  Te76  1  0.09305144  0.40460403  0.43410073  1
  Te  Te77  1  0.08587989  0.41247806  0.77070070  1
  Te  Te78  1  0.07857917  0.75091682  0.08352875  1
  Te  Te79  1  0.09173694  0.74817274  0.39622884  1
  Te  Te80  1  0.08102094  0.73819977  0.77137712  1
  Te  Te81  1  0.42117029  0.07962221  0.11345132  1
  Te  Te82  1  0.42021511  0.09363897  0.41038642  1
  Te  Te83  1  0.41794541  0.07500280  0.75146572  1
  Te  Te84  1  0.41337204  0.44805578  0.08758032  1
  Te  Te85  1  0.44907420  0.40064639  0.42503546  1
  Te  Te86  1  0.46237873  0.43274546  0.73503979  1
  Te  Te87  1  0.43331555  0.74752562  0.08855661  1
  Te  Te88  1  0.40755293  0.71136570  0.37890748  1
  Te  Te89  1  0.42884158  0.75484886  0.71904284  1
  Te  Te90  1  0.72632624  0.03916235  0.06289299  1
  Te  Te91  1  0.78454501  0.05888477  0.43254432  1
  Te  Te92  1  0.74025130  0.06292788  0.73390615  1
  Te  Te93  1  0.72666109  0.40184344  0.09584638  1
  Te  Te94  1  0.74881932  0.43903986  0.40977140  1
  Te  Te95  1  0.72813954  0.40611261  0.74284336  1
  Te  Te96  1  0.72622895  0.76434601  0.08369940  1
  Te  Te97  1  0.74707094  0.73963002  0.41672333  1
  Te  Te98  1  0.75754208  0.73339165  0.71806172  1
  Te  Te99  1  0.09020020  0.27335707  0.25605354  1
  Te  Te100  1  0.09044992  0.22200401  0.58553388  1
  Te  Te101  1  0.10510451  0.26461046  0.93397056  1
  Te  Te102  1  0.08140732  0.59340834  0.25534246  1
  Te  Te103  1  0.06755768  0.60352559  0.60115038  1
  Te  Te104  1  0.07595719  0.57202511  0.92659927  1
  Te  Te105  1  0.11902488  0.94046350  0.23549853  1
  Te  Te106  1  0.09470974  0.93225350  0.60322043  1
  Te  Te107  1  0.07387934  0.91583424  0.92528986  1
  Te  Te108  1  0.40101179  0.25427162  0.22629507  1
  Te  Te109  1  0.40357457  0.26226961  0.56564636  1
  Te  Te110  1  0.43102207  0.26053974  0.91014270  1
  Te  Te111  1  0.45489832  0.61843359  0.27035059  1
  Te  Te112  1  0.43223303  0.58642431  0.57240223  1
  Te  Te113  1  0.39064141  0.57984839  0.89971187  1
  Te  Te114  1  0.43689081  0.92007562  0.24729870  1
  Te  Te115  1  0.43299463  0.88071530  0.54776206  1
  Te  Te116  1  0.39796504  0.90737517  0.92586382  1
  Te  Te117  1  0.75249297  0.25048213  0.26366078  1
  Te  Te118  1  0.74124059  0.23970415  0.59373148  1
  Te  Te119  1  0.75458420  0.24054856  0.90656132  1
  Te  Te120  1  0.73652494  0.58803781  0.25956667  1
  Te  Te121  1  0.74448521  0.56231293  0.56356429  1
  Te  Te122  1  0.75892880  0.60330177  0.90466185  1
  Te  Te123  1  0.75171176  0.90188595  0.24069874  1
  Te  Te124  1  0.67662758  0.83703966  0.59701702  1
  Te  Te125  1  0.73126387  0.88913023  0.90922232  1
  Te  Te126  1  0.27219900  0.24314201  0.09857689  1
  Te  Te127  1  0.27803489  0.26417190  0.41246644  1
  Te  Te128  1  0.25476003  0.26620152  0.74361365  1
  Te  Te129  1  0.24674339  0.60108449  0.09331722  1
  Te  Te130  1  0.25863397  0.57871538  0.41081980  1
  Te  Te131  1  0.27006665  0.57656379  0.77119468  1
  Te  Te132  1  0.22427071  0.92238737  0.12200128  1
  Te  Te133  1  0.26575181  0.90446954  0.41914723  1
  Te  Te134  1  0.26069648  0.91738848  0.73692397  1
  Te  Te135  1  0.58795289  0.23736046  0.07346731  1
  Te  Te136  1  0.58989672  0.24977223  0.42822665  1
  Te  Te137  1  0.57355949  0.25109678  0.74357903  1
  Te  Te138  1  0.56145499  0.57065897  0.05824169  1
  Te  Te139  1  0.54644064  0.56911119  0.45520953  1
  Te  Te140  1  0.59448854  0.59543869  0.72887831  1
  Te  Te141  1  0.59249073  0.95997235  0.08794404  1
  Te  Te142  1  0.61184358  0.91170414  0.40192132  1
  Te  Te143  1  0.58165951  0.90594925  0.71700824  1
  Te  Te144  1  0.91008337  0.23737272  0.09732539  1
  Te  Te145  1  0.91559917  0.24979865  0.43429055  1
  Te  Te146  1  0.91926509  0.26644322  0.75532631  1
  Te  Te147  1  0.90800105  0.58254743  0.08694620  1
  Te  Te148  1  0.92913093  0.59025285  0.40664031  1
  Te  Te149  1  0.91150840  0.59237072  0.75436235  1
  Te  Te150  1  0.90781252  0.90222279  0.08234153  1
  Te  Te151  1  0.93427760  0.91624557  0.41199494  1
  Te  Te152  1  0.88669340  0.90426116  0.72145974  1
  Te  Te153  1  0.22562828  0.07354173  0.25479337  1
  Te  Te154  1  0.27962529  0.08112374  0.56611816  1
  Te  Te155  1  0.26062257  0.08568772  0.93108017  1
  Te  Te156  1  0.27982955  0.42571795  0.25824572  1
  Te  Te157  1  0.23602155  0.44147754  0.59091610  1
  Te  Te158  1  0.25637272  0.40994575  0.91123962  1
  Te  Te159  1  0.27348317  0.75535779  0.28996167  1
  Te  Te160  1  0.25305421  0.75116503  0.57040148  1
  Te  Te161  1  0.22752742  0.73893383  0.89968757  1
  Te  Te162  1  0.58525049  0.09262799  0.24998105  1
  Te  Te163  1  0.58273005  0.06951582  0.58529978  1
  Te  Te164  1  0.58039732  0.06772084  0.91223168  1
  Te  Te165  1  0.55049783  0.43514031  0.26240479  1
  Te  Te166  1  0.55939806  0.43082319  0.52766077  1
  Te  Te167  1  0.56497240  0.43820441  0.91564314  1
  Te  Te168  1  0.57852907  0.72786223  0.24726062  1
  Te  Te169  1  0.55698951  0.76848966  0.54360330  1
  Te  Te170  1  0.56118483  0.75238900  0.90806573  1
  Te  Te171  1  0.94376922  0.06344014  0.26251097  1
  Te  Te172  1  0.92946787  0.08449609  0.58434368  1
  Te  Te173  1  0.91441719  0.07539335  0.91116224  1
  Te  Te174  1  0.90647538  0.44876602  0.26806039  1
  Te  Te175  1  0.91399718  0.41348975  0.58620570  1
  Te  Te176  1  0.89246784  0.40542914  0.93022944  1
  Te  Te177  1  0.92423571  0.74428328  0.24464896  1
  Te  Te178  1  0.91754076  0.75292915  0.59415728  1
  Te  Te179  1  0.89288143  0.76872549  0.91832451  1
