# generated using pymatgen
data_In2Te3
_symmetry_space_group_name_H-M   'P 1'
_cell_length_a   18.90416165
_cell_length_b   18.88520993
_cell_length_c   18.89194757
_cell_angle_alpha   90.08999590
_cell_angle_beta   89.96205127
_cell_angle_gamma   90.08967183
_symmetry_Int_Tables_number   1
_chemical_formula_structural   In2Te3
_chemical_formula_sum   'In72 Te108'
_cell_volume   6744.57841599
_cell_formula_units_Z   36
loop_
 _symmetry_equiv_pos_site_id
 _symmetry_equiv_pos_as_xyz
  1  'x, y, z'
loop_
 _atom_site_type_symbol
 _atom_site_label
 _atom_site_symmetry_multiplicity
 _atom_site_fract_x
 _atom_site_fract_y
 _atom_site_fract_z
 _atom_site_occupancy
  In  In0  1  -0.00351792  0.31955997  -0.00190610  1
  In  In1  1  0.65708883  0.31412067  0.00383547  1
  In  In2  1  0.00024160  0.82650123  0.12395190  1
  In  In3  1  0.83443144  0.16515200  0.31311260  1
  In  In4  1  0.31286860  0.16906543  0.15808510  1
  In  In5  1  0.00417632  0.32908336  0.32143328  1
  In  In6  1  0.67220106  0.47933022  0.17052833  1
  In  In7  1  0.49026839  0.15904534  -0.02164859  1
  In  In8  1  0.12950935  0.32165817  0.17641909  1
  In  In9  1  0.82289069  0.51928832  0.65286333  1
  In  In10  1  0.34673273  0.33443898  0.68231394  1
  In  In11  1  0.66233078  0.84424639  0.14422824  1
  In  In12  1  0.02332551  0.30996989  0.67096040  1
  In  In13  1  0.52021805  0.65475220  0.83588688  1
  In  In14  1  0.53033377  0.51346236  0.35560607  1
  In  In15  1  -0.01134635  0.66441974  0.32976887  1
  In  In16  1  0.52013120  0.49618967  0.00479515  1
  In  In17  1  0.80745683  0.67322483  0.17444591  1
  In  In18  1  0.82693743  0.00550107  0.84063920  1
  In  In19  1  0.00171117  0.16389283  0.52347670  1
  In  In20  1  0.28032562  -0.03103795  0.00325123  1
  In  In21  1  0.15817831  0.14111238  -0.03253355  1
  In  In22  1  0.66403217  0.66754956  -0.00845198  1
  In  In23  1  -0.00793537  0.56391126  0.83932209  1
  In  In24  1  0.31694632  0.66427801  0.67930846  1
  In  In25  1  -0.00020851  -0.03209048  0.70196208  1
  In  In26  1  0.15571992  0.84934309  0.32106528  1
  In  In27  1  0.52100428  0.28476196  0.16152347  1
  In  In28  1  -0.01709023  0.01379851  0.31660025  1
  In  In29  1  0.67256665  0.47215138  0.83569054  1
  In  In30  1  0.66749224  0.81214065  0.49977149  1
  In  In31  1  0.01362440  0.52281290  0.50950227  1
  In  In32  1  0.34501868  0.28433127  -0.02631229  1
  In  In33  1  0.16280761  0.50651188  0.66514565  1
  In  In34  1  0.83413016  0.15119934  0.01098327  1
  In  In35  1  0.14525526  0.51072084  0.31298738  1
  In  In36  1  0.13725314  0.30475095  0.52946456  1
  In  In37  1  0.49090390  -0.00002488  0.50508214  1
  In  In38  1  0.66149805  -0.01837592  0.67720207  1
  In  In39  1  0.66952874  0.84270867  0.83926529  1
  In  In40  1  0.19658656  0.00780679  0.51363222  1
  In  In41  1  0.83014319  0.83229283  0.66351290  1
  In  In42  1  0.17321703  0.16830590  0.33028909  1
  In  In43  1  0.17672555  0.51779509  -0.01292962  1
  In  In44  1  -0.01231855  0.82818899  0.51028663  1
  In  In45  1  0.64678535  0.19341211  0.80461322  1
  In  In46  1  0.32593024  0.00342463  0.33958525  1
  In  In47  1  0.14662449  0.69179554  0.81116938  1
  In  In48  1  0.48849081  0.83153885  0.34011211  1
  In  In49  1  0.32952892  0.17275253  0.53721217  1
  In  In50  1  0.50782900  0.84226476  0.67489787  1
  In  In51  1  0.67822471  0.00535020  0.30656272  1
  In  In52  1  0.65819466  0.65756671  0.35136474  1
  In  In53  1  0.35261581  0.49130090  0.14597464  1
  In  In54  1  0.32585098  0.87863433  0.80385543  1
  In  In55  1  0.51737399  0.01137975  0.17245797  1
  In  In56  1  0.02976170  -0.01849151  -0.02459959  1
  In  In57  1  0.19093688  0.33648140  0.82580643  1
  In  In58  1  0.67886153  0.30874600  0.36111900  1
  In  In59  1  0.50537174  0.47069008  0.65417412  1
  In  In60  1  0.32398957  0.69423011  0.33596575  1
  In  In61  1  0.86339541  0.01278192  0.48722431  1
  In  In62  1  -0.00994242  0.51405906  0.17864146  1
  In  In63  1  0.35268655  0.49982453  0.50307920  1
  In  In64  1  0.81082243  0.52123703  -0.00100784  1
  In  In65  1  0.82261040  0.34198628  0.51448470  1
  In  In66  1  0.85930053  0.34177719  0.82880938  1
  In  In67  1  0.19532494  0.68091344  0.51607033  1
  In  In68  1  0.65758788  0.17257994  0.53160426  1
  In  In69  1  0.34552553  0.35491868  0.34187227  1
  In  In70  1  0.46388958  0.67944105  0.17239761  1
  In  In71  1  0.33469040  0.69839929  0.00127126  1
  Te  Te72  1  0.09007389  0.07246364  0.07653448  1
  Te  Te73  1  0.08712436  0.07740375  0.42075591  1
  Te  Te74  1  0.08692743  0.06136227  0.77665699  1
  Te  Te75  1  0.08248963  0.43352951  0.07711055  1
  Te  Te76  1  0.09015320  0.41072312  0.41888768  1
  Te  Te77  1  0.08020535  0.42432835  0.76284947  1
  Te  Te78  1  0.11235172  0.77887954  0.03543953  1
  Te  Te79  1  0.09110512  0.74355031  0.41679105  1
  Te  Te80  1  0.06169936  0.80472779  0.76659761  1
  Te  Te81  1  0.40790626  0.08012055  0.08100980  1
  Te  Te82  1  0.40604082  0.09806262  0.42492506  1
  Te  Te83  1  0.38562246  0.12684328  0.79269951  1
  Te  Te84  1  0.43158370  0.38132258  0.07556829  1
  Te  Te85  1  0.45182701  0.40556073  0.43753982  1
  Te  Te86  1  0.40276463  0.44782241  0.75689177  1
  Te  Te87  1  0.42243799  0.78524305  0.08174607  1
  Te  Te88  1  0.42429788  0.73697694  0.43254161  1
  Te  Te89  1  0.42264944  0.74901290  0.76300331  1
  Te  Te90  1  0.73276546  0.08750276  0.09572129  1
  Te  Te91  1  0.75244816  0.09216317  0.42041789  1
  Te  Te92  1  0.74534142  0.08892113  0.74451609  1
  Te  Te93  1  0.76161156  0.40061138  0.07724834  1
  Te  Te94  1  0.72929086  0.42828030  0.43522109  1
  Te  Te95  1  0.75953333  0.40435869  0.73184791  1
  Te  Te96  1  0.76319714  0.75955744  0.05769827  1
  Te  Te97  1  0.75740648  0.75490423  0.40012378  1
  Te  Te98  1  0.72267370  0.75301318  0.73289369  1
  Te  Te99  1  0.05448981  0.20840017  0.24226117  1
  Te  Te100  1  0.11410228  0.18942522  0.62426883  1
  Te  Te101  1  0.08267182  0.25099300  0.89513516  1
  Te  Te102  1  0.09288559  0.61912313  0.22330604  1
  Te  Te103  1  0.08401996  0.62014342  0.60325389  1
  Te  Te104  1  0.08502591  0.63129151  0.94669691  1
  Te  Te105  1  0.06697136  0.92567166  0.22601286  1
  Te  Te106  1  0.07922534  0.92745256  0.57665100  1
  Te  Te107  1  0.11339194  0.89426909  0.88495142  1
  Te  Te108  1  0.40460735  0.24367326  0.25395271  1
  Te  Te109  1  0.43974204  0.25220192  0.59895442  1
  Te  Te110  1  0.44264733  0.24859969  0.86162971  1
  Te  Te111  1  0.41041891  0.56959694  0.26768365  1
  Te  Te112  1  0.42177062  0.59433345  0.59591454  1
  Te  Te113  1  0.42386465  0.58721405  0.93435854  1
  Te  Te114  1  0.41429172  0.92273248  0.24558740  1
  Te  Te115  1  0.40800273  0.90944668  0.58832948  1
  Te  Te116  1  0.39820198  0.93109723  0.92258201  1
  Te  Te117  1  0.75682287  0.26892245  0.24453813  1
  Te  Te118  1  0.77554036  0.23065408  0.59768019  1
  Te  Te119  1  0.75671296  0.25274857  0.90559220  1
  Te  Te120  1  0.75077941  0.56597929  0.26600688  1
  Te  Te121  1  0.73657262  0.55567188  0.53965612  1
  Te  Te122  1  0.74748725  0.59804939  0.88413063  1
  Te  Te123  1  0.76265211  0.91498064  0.22813549  1
  Te  Te124  1  0.75348794  0.93179539  0.56545506  1
  Te  Te125  1  0.74739485  0.92427468  0.93557044  1
  Te  Te126  1  0.22366272  0.25888178  0.07301078  1
  Te  Te127  1  0.25131945  0.26057815  0.42275564  1
  Te  Te128  1  0.26345280  0.22888144  0.75101097  1
  Te  Te129  1  0.25854906  0.59543531  0.09078179  1
  Te  Te130  1  0.24451869  0.56942705  0.41697169  1
  Te  Te131  1  0.24214286  0.57402169  0.77532573  1
  Te  Te132  1  0.21900675  0.86712286  0.09341800  1
  Te  Te133  1  0.25724258  0.89904452  0.42538848  1
  Te  Te134  1  0.20008891  0.96312277  0.77221784  1
  Te  Te135  1  0.61904809  0.19021978  0.08638446  1
  Te  Te136  1  0.57529277  0.22348210  0.41971445  1
  Te  Te137  1  0.56919818  0.28260896  0.70459713  1
  Te  Te138  1  0.58383169  0.59291253  0.10607596  1
  Te  Te139  1  0.59214354  0.58974208  0.46837752  1
  Te  Te140  1  0.59572094  0.56359774  0.74169966  1
  Te  Te141  1  0.59840728  0.95079170  0.06434471  1
  Te  Te142  1  0.58852554  0.92301002  0.41407417  1
  Te  Te143  1  0.56081709  0.93616213  0.78172309  1
  Te  Te144  1  0.91552162  0.24539654  0.09270315  1
  Te  Te145  1  0.92036318  0.24959957  0.42661859  1
  Te  Te146  1  0.92381243  0.23662454  0.74974910  1
  Te  Te147  1  0.90838154  0.60084097  0.08363988  1
  Te  Te148  1  0.91532701  0.56674593  0.41071875  1
  Te  Te149  1  0.90974506  0.62232683  0.72325121  1
  Te  Te150  1  0.91575112  0.90461719  0.03207105  1
  Te  Te151  1  0.91589335  0.90297218  0.39743651  1
  Te  Te152  1  0.90273370  0.88309862  0.78756233  1
  Te  Te153  1  0.23292458  0.06477926  0.23576079  1
  Te  Te154  1  0.29791202  0.04930611  0.61403226  1
  Te  Te155  1  0.28418723  0.08791789  0.90469084  1
  Te  Te156  1  0.24436795  0.41268334  0.23615719  1
  Te  Te157  1  0.24668400  0.41258016  0.58031203  1
  Te  Te158  1  0.27171362  0.41461730  0.92813464  1
  Te  Te159  1  0.25439772  0.77474792  0.23506588  1
  Te  Te160  1  0.24631576  0.77594042  0.61526677  1
  Te  Te161  1  0.26578008  0.75930699  0.88112684  1
  Te  Te162  1  0.57340576  0.10326611  0.27471582  1
  Te  Te163  1  0.56410097  0.07973390  0.61149085  1
  Te  Te164  1  0.59339591  0.09160722  0.89712624  1
  Te  Te165  1  0.56445790  0.40532959  0.24680717  1
  Te  Te166  1  0.60969154  0.38127954  0.60188235  1
  Te  Te167  1  0.56713938  0.38991245  0.90625808  1
  Te  Te168  1  0.58338564  0.75193924  0.24796668  1
  Te  Te169  1  0.60413063  0.74492940  0.61529727  1
  Te  Te170  1  0.56772023  0.76463111  0.93026715  1
  Te  Te171  1  0.88094384  0.05915443  0.21884782  1
  Te  Te172  1  0.92163802  0.07044908  0.61330149  1
  Te  Te173  1  0.93047342  0.08847627  0.91344892  1
  Te  Te174  1  0.90950292  0.42116643  0.25815633  1
  Te  Te175  1  0.93839997  0.41887399  0.59404311  1
  Te  Te176  1  0.92554757  0.44401803  0.92273897  1
  Te  Te177  1  0.91608657  0.75900769  0.23703397  1
  Te  Te178  1  0.88719581  0.73696816  0.56492799  1
  Te  Te179  1  0.91037016  0.68328503  0.86618672  1
