# generated using pymatgen
data_In2Te3
_symmetry_space_group_name_H-M   'P 1'
_cell_length_a   18.99898077
_cell_length_b   18.98071935
_cell_length_c   18.97723909
_cell_angle_alpha   90.17917817
_cell_angle_beta   89.76530815
_cell_angle_gamma   89.83093568
_symmetry_Int_Tables_number   1
_chemical_formula_structural   In2Te3
_chemical_formula_sum   'In72 Te108'
_cell_volume   6843.34328381
_cell_formula_units_Z   36
loop_
 _symmetry_equiv_pos_site_id
 _symmetry_equiv_pos_as_xyz
  1  'x, y, z'
loop_
 _atom_site_type_symbol
 _atom_site_label
 _atom_site_symmetry_multiplicity
 _atom_site_fract_x
 _atom_site_fract_y
 _atom_site_fract_z
 _atom_site_occupancy
  In  In0  1  0.49940640  0.66088595  0.48895422  1
  In  In1  1  0.66765023  0.81925418  0.82730073  1
  In  In2  1  0.50075939  0.15144736  0.33432174  1
  In  In3  1  0.01114900  0.31480727  0.27667280  1
  In  In4  1  0.16233035  0.34366324  0.46748221  1
  In  In5  1  0.17249750  0.34137525  0.83913597  1
  In  In6  1  0.37770539  0.35727443  0.69109025  1
  In  In7  1  0.63769797  0.13760616  0.50384870  1
  In  In8  1  0.80288043  0.01036267  0.17445768  1
  In  In9  1  0.34695486  0.64476831  0.32708569  1
  In  In10  1  -0.00881543  0.19689298  0.81807324  1
  In  In11  1  0.15844553  0.84001187  0.33361086  1
  In  In12  1  0.64536652  0.32597644  0.68290720  1
  In  In13  1  0.35465202  0.19290266  0.48529391  1
  In  In14  1  0.30854215  0.34606167  0.31393959  1
  In  In15  1  0.63849779  0.49448221  0.82192139  1
  In  In16  1  0.15584472  0.17582561  0.65893866  1
  In  In17  1  0.18280278  0.66941732  0.50021086  1
  In  In18  1  0.84121960  0.67906790  0.83552358  1
  In  In19  1  0.33060844  0.85742020  0.16859551  1
  In  In20  1  -0.02456408  0.14217943  0.48698723  1
  In  In21  1  0.85431946  0.52287295  0.32675812  1
  In  In22  1  0.32983775  0.17372579  0.16753496  1
  In  In23  1  0.32986613  0.15990174  0.84731185  1
  In  In24  1  0.65168577  -0.00550696  0.02045680  1
  In  In25  1  0.33892636  0.02755263  0.01422223  1
  In  In26  1  0.02790580  0.01782728  0.00878306  1
  In  In27  1  0.16516417  0.81117279  0.66517549  1
  In  In28  1  0.00068717  0.50815283  0.14380424  1
  In  In29  1  0.00021434  0.64673449  0.66112001  1
  In  In30  1  0.15366486  0.01649729  0.47097715  1
  In  In31  1  -0.03056092  0.82451440  0.18715725  1
  In  In32  1  0.52408166  0.66204064  0.18518364  1
  In  In33  1  0.66498159  0.34895270  0.29824671  1
  In  In34  1  0.68851491  0.68303151  0.35077479  1
  In  In35  1  -0.02979833  0.31899476  0.03015911  1
  In  In36  1  0.32218011  0.67583266  -0.00631367  1
  In  In37  1  0.15005167  -0.02727034  0.83230311  1
  In  In38  1  0.16884617  0.64096954  0.84167341  1
  In  In39  1  0.15647572  0.19063069  0.05463453  1
  In  In40  1  0.17735234  0.49910494  0.66324386  1
  In  In41  1  0.33850710  0.50139048  0.51283253  1
  In  In42  1  0.51017885  0.33832504  0.50308455  1
  In  In43  1  0.83724978  0.01581628  0.83706047  1
  In  In44  1  0.84649642  0.83039192  0.00387776  1
  In  In45  1  0.13724295  0.66495322  0.17645404  1
  In  In46  1  0.81711500  0.50281372  0.65501262  1
  In  In47  1  0.67698635  0.17134941  0.83464378  1
  In  In48  1  0.67005006  -0.02435028  0.36351674  1
  In  In49  1  -0.00861076  0.34597790  0.65976872  1
  In  In50  1  0.46545019  0.47134743  0.01878641  1
  In  In51  1  0.18310952  0.50412978  -0.00127113  1
  In  In52  1  0.32115566  -0.00314307  0.66676518  1
  In  In53  1  0.35178736  0.02296114  0.33012433  1
  In  In54  1  0.34165126  0.80863380  0.51082303  1
  In  In55  1  0.65744291  0.17055374  0.15424048  1
  In  In56  1  0.67822684  0.50784357  0.49787051  1
  In  In57  1  0.52137326  0.81235990  0.65816193  1
  In  In58  1  0.00828908  0.81790045  0.49693446  1
  In  In59  1  0.65837431  0.49588748  0.16583901  1
  In  In60  1  0.49074884  0.18863204  0.00334620  1
  In  In61  1  0.69368585  0.67284301  0.01959729  1
  In  In62  1  0.81091839  0.85625058  0.66441802  1
  In  In63  1  -0.02361433  -0.02181808  0.33074872  1
  In  In64  1  0.82692451  0.33187570  0.51546717  1
  In  In65  1  0.67119233  0.34053521  -0.00913786  1
  In  In66  1  0.48738573  -0.02198281  0.84185595  1
  In  In67  1  0.49573233  0.85067121  0.01801469  1
  In  In68  1  -0.02340873  -0.01902831  0.66239785  1
  In  In69  1  0.50503305  0.65401482  0.82830871  1
  In  In70  1  0.86479195  0.50084051  -0.01874937  1
  In  In71  1  0.80531086  0.19475086  0.33061160  1
  Te  Te72  1  0.05977982  0.10422160  0.12546244  1
  Te  Te73  1  0.07114248  0.09739781  0.37781436  1
  Te  Te74  1  0.07449923  0.07776828  0.73979071  1
  Te  Te75  1  0.08634375  0.40692466  0.06933575  1
  Te  Te76  1  0.08006423  0.41167162  0.36771811  1
  Te  Te77  1  0.07930661  0.42511868  0.75312609  1
  Te  Te78  1  0.07083279  0.76720860  0.09768918  1
  Te  Te79  1  0.08311015  0.72712026  0.40194444  1
  Te  Te80  1  0.07527861  0.73600846  0.75711169  1
  Te  Te81  1  0.44270603  0.08723108  0.10420427  1
  Te  Te82  1  0.43826975  0.07101847  0.44598195  1
  Te  Te83  1  0.41586864  0.07799307  0.75238682  1
  Te  Te84  1  0.35840042  0.40133531  0.10145902  1
  Te  Te85  1  0.40869101  0.40716335  0.41691968  1
  Te  Te86  1  0.48550015  0.42169023  0.76448910  1
  Te  Te87  1  0.41980892  0.74295284  0.09638164  1
  Te  Te88  1  0.42539307  0.75550443  0.39624963  1
  Te  Te89  1  0.43174792  0.76262684  0.76266352  1
  Te  Te90  1  0.75247460  0.09936150  0.05967603  1
  Te  Te91  1  0.75630145  0.08647173  0.42440218  1
  Te  Te92  1  0.74998163  0.08229246  0.74189219  1
  Te  Te93  1  0.75810249  0.43332440  0.07083984  1
  Te  Te94  1  0.75948433  0.41822325  0.40094699  1
  Te  Te95  1  0.74765254  0.41141615  0.75441916  1
  Te  Te96  1  0.75497025  0.77323506  0.10435887  1
  Te  Te97  1  0.80476489  0.77617191  0.38311410  1
  Te  Te98  1  0.74620279  0.73431992  0.72990435  1
  Te  Te99  1  0.11537181  0.25604590  0.18934562  1
  Te  Te100  1  0.07135191  0.24764036  0.55702971  1
  Te  Te101  1  0.09637258  0.23954791  0.91901784  1
  Te  Te102  1  0.07315728  0.56330513  0.26043302  1
  Te  Te103  1  0.08698131  0.56895448  0.56331270  1
  Te  Te104  1  0.07425332  0.57445064  0.93126914  1
  Te  Te105  1  0.08081839  0.92181262  0.23616957  1
  Te  Te106  1  0.10104787  0.92338907  0.58182595  1
  Te  Te107  1  0.05645971  0.90486383  0.92031790  1
  Te  Te108  1  0.42118587  0.25245424  0.25930489  1
  Te  Te109  1  0.43879495  0.24467145  0.59757793  1
  Te  Te110  1  0.39740758  0.26893529  0.92060555  1
  Te  Te111  1  0.43189774  0.56091578  0.24022727  1
  Te  Te112  1  0.42890407  0.58300781  0.59117667  1
  Te  Te113  1  0.41267863  0.57693166  0.92269022  1
  Te  Te114  1  0.42797178  0.92379382  0.25508413  1
  Te  Te115  1  0.41978272  0.90962438  0.59042722  1
  Te  Te116  1  0.38747711  0.90760901  0.92921868  1
  Te  Te117  1  0.76623770  0.27356839  0.20316860  1
  Te  Te118  1  0.72238981  0.24622800  0.57742788  1
  Te  Te119  1  0.76473949  0.25849996  0.91344837  1
  Te  Te120  1  0.74808083  0.59019356  0.24223692  1
  Te  Te121  1  0.78009939  0.60234810  0.54998029  1
  Te  Te122  1  0.74309512  0.58150545  0.90802155  1
  Te  Te123  1  0.77411819  0.90886373  0.27972192  1
  Te  Te124  1  0.71454335  0.92687080  0.57361173  1
  Te  Te125  1  0.74177408  0.91583553  0.92005032  1
  Te  Te126  1  0.28841327  0.26270256  0.05187357  1
  Te  Te127  1  0.24110338  0.23486896  0.39592264  1
  Te  Te128  1  0.25880896  0.24852841  0.74147202  1
  Te  Te129  1  0.25055531  0.59464077  0.09955735  1
  Te  Te130  1  0.24770112  0.56523293  0.41013505  1
  Te  Te131  1  0.26710571  0.55741733  0.76434352  1
  Te  Te132  1  0.24405632  0.94253655  0.08800081  1
  Te  Te133  1  0.25486332  0.90891591  0.42901088  1
  Te  Te134  1  0.25501640  0.89447811  0.75502842  1
  Te  Te135  1  0.57257249  0.27886909  0.09242502  1
  Te  Te136  1  0.59542666  0.25688649  0.40439919  1
  Te  Te137  1  0.56553351  0.23638177  0.76573019  1
  Te  Te138  1  0.57777777  0.57232893  0.05927295  1
  Te  Te139  1  0.58734783  0.57453896  0.40008807  1
  Te  Te140  1  0.60474435  0.60425476  0.73202848  1
  Te  Te141  1  0.59164727  0.90198214  0.11551601  1
  Te  Te142  1  0.61744239  0.87748189  0.46283778  1
  Te  Te143  1  0.59384579  0.92458961  0.74889983  1
  Te  Te144  1  0.89591551  0.23661323  0.12330082  1
  Te  Te145  1  0.91593588  0.26638438  0.40815440  1
  Te  Te146  1  0.90035914  0.24717969  0.71594279  1
  Te  Te147  1  0.90369709  0.60138247  0.08139266  1
  Te  Te148  1  0.87863987  0.63551391  0.42329686  1
  Te  Te149  1  0.91105101  0.56892686  0.75482679  1
  Te  Te150  1  0.91121195  0.93939571  0.09176542  1
  Te  Te151  1  0.91884786  0.92630997  0.45455238  1
  Te  Te152  1  0.91057741  0.89919972  0.77180099  1
  Te  Te153  1  0.25018388  0.07513212  0.24122038  1
  Te  Te154  1  0.25051176  0.09406450  0.56760495  1
  Te  Te155  1  0.22728263  0.07461722  0.91579498  1
  Te  Te156  1  0.25753033  0.43178604  0.20911178  1
  Te  Te157  1  0.25184788  0.39030631  0.58269435  1
  Te  Te158  1  0.26619129  0.44423760  0.88771893  1
  Te  Te159  1  0.25432030  0.74843490  0.25834264  1
  Te  Te160  1  0.27248888  0.71792703  0.61095633  1
  Te  Te161  1  0.23058208  0.75396784  0.91283883  1
  Te  Te162  1  0.60720498  0.07505529  0.25962923  1
  Te  Te163  1  0.61060995  0.03615349  0.60434996  1
  Te  Te164  1  0.56855838  0.07841347  0.92424517  1
  Te  Te165  1  0.55394986  0.42710893  0.24457563  1
  Te  Te166  1  0.58547836  0.43395343  0.59096075  1
  Te  Te167  1  0.55521886  0.40156068  0.91012636  1
  Te  Te168  1  0.59531746  0.75889413  0.26641261  1
  Te  Te169  1  0.60611349  0.74722544  0.55132069  1
  Te  Te170  1  0.58118717  0.75052206  0.93126944  1
  Te  Te171  1  0.89444386  0.09087787  0.26436014  1
  Te  Te172  1  0.89650927  0.08373374  0.59574548  1
  Te  Te173  1  0.93247014  0.09969014  0.91802230  1
  Te  Te174  1  0.91044159  0.41938918  0.23060839  1
  Te  Te175  1  0.92350441  0.43857361  0.56141502  1
  Te  Te176  1  0.91907360  0.38437547  0.90984471  1
  Te  Te177  1  0.92231855  0.73243200  0.29447445  1
  Te  Te178  1  0.91879991  0.76001315  0.60309391  1
  Te  Te179  1  0.92785386  0.71956555  0.94774081  1
