# generated using pymatgen
data_In2Te3
_symmetry_space_group_name_H-M   'P 1'
_cell_length_a   18.77085431
_cell_length_b   18.77620925
_cell_length_c   18.77272466
_cell_angle_alpha   89.97513743
_cell_angle_beta   89.92492814
_cell_angle_gamma   90.07328127
_symmetry_Int_Tables_number   1
_chemical_formula_structural   In2Te3
_chemical_formula_sum   'In72 Te108'
_cell_volume   6616.35039027
_cell_formula_units_Z   36
loop_
 _symmetry_equiv_pos_site_id
 _symmetry_equiv_pos_as_xyz
  1  'x, y, z'
loop_
 _atom_site_type_symbol
 _atom_site_label
 _atom_site_symmetry_multiplicity
 _atom_site_fract_x
 _atom_site_fract_y
 _atom_site_fract_z
 _atom_site_occupancy
  In  In0  1  0.00971774  0.33736187  -0.00688769  1
  In  In1  1  -0.01941854  0.53575780  0.15407152  1
  In  In2  1  0.52640593  0.83797683  0.34611711  1
  In  In3  1  0.49756890  0.32116712  0.17285585  1
  In  In4  1  0.85537376  0.34315317  0.51496602  1
  In  In5  1  0.16703951  -0.02234256  0.51544829  1
  In  In6  1  0.66136597  0.34116547  0.00765677  1
  In  In7  1  0.16286695  0.81755205  0.00181645  1
  In  In8  1  0.31920100  0.48347519  0.52470739  1
  In  In9  1  0.37600133  0.02554004  0.02843061  1
  In  In10  1  0.67477643  0.66519397  0.01928811  1
  In  In11  1  0.66070643  0.50279088  0.84837209  1
  In  In12  1  0.84561286  0.18441187  0.69508772  1
  In  In13  1  0.85609372  0.51241113  0.67130645  1
  In  In14  1  0.02433313  0.64834567  0.65866839  1
  In  In15  1  0.16040893  0.51081495  0.34671318  1
  In  In16  1  0.34074005  0.17161405  0.48504601  1
  In  In17  1  0.64635885  0.33235050  0.65917316  1
  In  In18  1  0.46556106  0.67332719  0.83190819  1
  In  In19  1  0.84346165  0.67446206  0.48068255  1
  In  In20  1  0.81270776  0.32711910  0.17738171  1
  In  In21  1  0.79726862  0.02180207  0.49961716  1
  In  In22  1  0.17758020  0.32802725  0.14868629  1
  In  In23  1  0.49721506  0.33561182  0.50043394  1
  In  In24  1  0.34694643  0.50553616  0.17614682  1
  In  In25  1  0.65174125  0.14544290  0.50670732  1
  In  In26  1  0.00043502  0.16230609  0.16425609  1
  In  In27  1  0.50368051  0.83240659  0.00043737  1
  In  In28  1  0.34928214  0.82896538  0.19388011  1
  In  In29  1  0.02975628  0.00134758  0.65569963  1
  In  In30  1  0.85628441  0.67207650  0.82337303  1
  In  In31  1  0.48331677  0.65544932  0.49475980  1
  In  In32  1  0.16411211  0.18821963  -0.00871257  1
  In  In33  1  -0.00352774  0.18015210  0.50271238  1
  In  In34  1  0.82134661  0.86626247  0.64906811  1
  In  In35  1  0.17236799  0.16893014  0.67357856  1
  In  In36  1  0.32102345  0.50156666  0.78164802  1
  In  In37  1  0.17206894  0.51776690  -0.02986402  1
  In  In38  1  0.00191177  0.82346131  0.49047559  1
  In  In39  1  0.83746733  0.51364064  0.33275625  1
  In  In40  1  0.33630129  0.82048026  0.80390491  1
  In  In41  1  0.66266164  0.82970029  0.16776666  1
  In  In42  1  -0.00883461  0.79556260  0.16364454  1
  In  In43  1  0.84862396  0.01647932  0.84561821  1
  In  In44  1  0.65450966  -0.01871793  0.64830446  1
  In  In45  1  0.65627119  0.02640801  0.00663703  1
  In  In46  1  0.84947524  0.34679916  0.84043410  1
  In  In47  1  0.80618849  -0.01173840  0.15994060  1
  In  In48  1  0.34187358  0.66813153  0.00432946  1
  In  In49  1  0.32778736  0.34479531  -0.01622802  1
  In  In50  1  -0.01277332  -0.00712727  0.32316190  1
  In  In51  1  0.32934340  0.01038030  0.33582618  1
  In  In52  1  0.00085789  0.79010593  0.81406100  1
  In  In53  1  0.81797085  0.82030388  0.32007173  1
  In  In54  1  0.19086938  0.16815829  0.35130681  1
  In  In55  1  0.33457545  0.17342776  0.84179039  1
  In  In56  1  0.65502543  0.18163871  0.81984644  1
  In  In57  1  0.83956395  0.81499836  -0.01744081  1
  In  In58  1  0.51241939  -0.00052848  0.81162395  1
  In  In59  1  0.16776172  0.80082961  0.35934512  1
  In  In60  1  0.00093563  0.33849980  0.35758945  1
  In  In61  1  -0.02084017  0.00829282  -0.02336243  1
  In  In62  1  0.66789400  0.32346807  0.32781398  1
  In  In63  1  0.65071602  0.85564036  0.81226972  1
  In  In64  1  0.33858021  0.65938890  0.32722934  1
  In  In65  1  0.64395849  0.67346985  0.65552793  1
  In  In66  1  0.66474533  0.49935794  0.16571558  1
  In  In67  1  0.18513716  -0.01585642  0.17049388  1
  In  In68  1  0.34838387  0.32251691  0.34621580  1
  In  In69  1  0.50652646  0.17975115  0.66370583  1
  In  In70  1  0.64099590  0.49877950  0.50300060  1
  In  In71  1  0.17099981  -0.00619870  0.82033731  1
  Te  Te72  1  0.09205219  0.07019724  0.08097889  1
  Te  Te73  1  0.08263770  0.07269913  0.41710082  1
  Te  Te74  1  0.07044097  0.09535972  0.76713588  1
  Te  Te75  1  0.08970604  0.43532176  0.08771451  1
  Te  Te76  1  0.09021667  0.41944206  0.44129839  1
  Te  Te77  1  0.12051008  0.45829954  0.70753003  1
  Te  Te78  1  0.10010832  0.72231273  0.09568738  1
  Te  Te79  1  0.08442388  0.71146293  0.44229616  1
  Te  Te80  1  0.11982298  0.73620901  0.74054560  1
  Te  Te81  1  0.46513016  0.12074794  0.10824834  1
  Te  Te82  1  0.43196576  0.07365692  0.42250661  1
  Te  Te83  1  0.40957835  0.08596177  0.73999017  1
  Te  Te84  1  0.42428972  0.41817707  0.07880659  1
  Te  Te85  1  0.42045220  0.43701068  0.41604078  1
  Te  Te86  1  0.43159863  0.42636259  0.72024877  1
  Te  Te87  1  0.43587406  0.74044246  0.10101865  1
  Te  Te88  1  0.40897690  0.76513172  0.41281549  1
  Te  Te89  1  0.39268297  0.71748925  0.70407652  1
  Te  Te90  1  0.76792941  0.09863962  0.06950879  1
  Te  Te91  1  0.72243002  0.08577372  0.38997999  1
  Te  Te92  1  0.73750182  0.07231001  0.74264134  1
  Te  Te93  1  0.76710161  0.43005266  0.07500445  1
  Te  Te94  1  0.74663833  0.41212568  0.42892163  1
  Te  Te95  1  0.74508541  0.41929689  0.73926615  1
  Te  Te96  1  0.77517427  0.74435385  0.10546757  1
  Te  Te97  1  0.73208633  0.72866091  0.40053745  1
  Te  Te98  1  0.74914136  0.75727942  0.74584631  1
  Te  Te99  1  0.09086646  0.24824456  0.25582016  1
  Te  Te100  1  0.08321964  0.25683859  0.59154176  1
  Te  Te101  1  0.09821960  0.27362958  0.89176297  1
  Te  Te102  1  0.07418967  0.59005484  0.25547699  1
  Te  Te103  1  0.13831536  0.56437096  0.59991697  1
  Te  Te104  1  0.06523407  0.58595444  0.89563878  1
  Te  Te105  1  0.09180471  0.90135971  0.25939978  1
  Te  Te106  1  0.09450830  0.87514445  0.60225882  1
  Te  Te107  1  0.07766220  0.90527146  0.90776147  1
  Te  Te108  1  0.42627142  0.22658369  0.26549216  1
  Te  Te109  1  0.40037192  0.26321819  0.59289442  1
  Te  Te110  1  0.42740985  0.24979784  0.92785247  1
  Te  Te111  1  0.44331346  0.58781229  0.25124542  1
  Te  Te112  1  0.39861024  0.58696753  0.60051095  1
  Te  Te113  1  0.39713648  0.56316500  0.90911361  1
  Te  Te114  1  0.43811103  0.94171042  0.24721581  1
  Te  Te115  1  0.37094045  0.89388079  0.60847085  1
  Te  Te116  1  0.41742611  0.91400436  0.90538759  1
  Te  Te117  1  0.72246894  0.22286668  0.23315685  1
  Te  Te118  1  0.74805222  0.24191683  0.58475919  1
  Te  Te119  1  0.74975467  0.25474197  0.91251067  1
  Te  Te120  1  0.74461992  0.59234698  0.25153297  1
  Te  Te121  1  0.74810716  0.58067172  0.58498124  1
  Te  Te122  1  0.76385219  0.59029753  0.91817860  1
  Te  Te123  1  0.72092475  0.92840464  0.27117847  1
  Te  Te124  1  0.71415389  0.88989188  0.53454766  1
  Te  Te125  1  0.74209964  0.91887323  0.92230754  1
  Te  Te126  1  0.27742416  0.23564266  0.08285832  1
  Te  Te127  1  0.23646276  0.27873883  0.44324787  1
  Te  Te128  1  0.25880338  0.26363441  0.75049769  1
  Te  Te129  1  0.24820280  0.58205355  0.08945164  1
  Te  Te130  1  0.25401247  0.59395001  0.43581101  1
  Te  Te131  1  0.20861341  0.59397085  0.74319222  1
  Te  Te132  1  0.27318517  0.90136107  0.07452340  1
  Te  Te133  1  0.26249261  0.90266616  0.42262654  1
  Te  Te134  1  0.26249511  0.92643198  0.72117521  1
  Te  Te135  1  0.59720047  0.23734188  0.09603575  1
  Te  Te136  1  0.57162003  0.23795603  0.41171997  1
  Te  Te137  1  0.55137463  0.28216098  0.76949965  1
  Te  Te138  1  0.57450315  0.57153505  0.07083524  1
  Te  Te139  1  0.58988033  0.59647763  0.40661075  1
  Te  Te140  1  0.57008348  0.58691643  0.75696382  1
  Te  Te141  1  0.57264795  0.93227623  0.09406034  1
  Te  Te142  1  0.58852461  0.92679200  0.44501685  1
  Te  Te143  1  0.54311846  0.88657015  0.71100555  1
  Te  Te144  1  0.91501471  0.25646018  0.08250870  1
  Te  Te145  1  0.89330248  0.23991365  0.40649896  1
  Te  Te146  1  0.94098869  0.28785742  0.73781414  1
  Te  Te147  1  0.90194503  0.62140522  0.06480013  1
  Te  Te148  1  0.92819463  0.56094713  0.43911594  1
  Te  Te149  1  0.95992757  0.56221542  0.77880883  1
  Te  Te150  1  0.92401623  0.91303110  0.08939698  1
  Te  Te151  1  0.90223135  0.92213329  0.42983191  1
  Te  Te152  1  0.92300859  0.91633299  0.75698535  1
  Te  Te153  1  0.26180295  0.10091278  0.23221797  1
  Te  Te154  1  0.25635215  0.08223172  0.57929486  1
  Te  Te155  1  0.25009867  0.06886089  0.92831198  1
  Te  Te156  1  0.25092008  0.40910461  0.25634946  1
  Te  Te157  1  0.24407078  0.40699541  0.63570884  1
  Te  Te158  1  0.23662496  0.41175736  0.88336443  1
  Te  Te159  1  0.23769320  0.73579922  0.23977740  1
  Te  Te160  1  0.28745599  0.77548467  0.59768864  1
  Te  Te161  1  0.25032851  0.73856099  0.90427660  1
  Te  Te162  1  0.54135178  0.05808990  0.21827889  1
  Te  Te163  1  0.54377523  0.06018998  0.57506184  1
  Te  Te164  1  0.56255032  0.10260679  0.91373981  1
  Te  Te165  1  0.57296132  0.42134535  0.26196315  1
  Te  Te166  1  0.54618517  0.44213967  0.61010535  1
  Te  Te167  1  0.56704762  0.41623688  0.92130121  1
  Te  Te168  1  0.57344366  0.74055329  0.24519526  1
  Te  Te169  1  0.56533168  0.75981585  0.56673779  1
  Te  Te170  1  0.58858605  0.74522683  0.90658620  1
  Te  Te171  1  0.89755760  0.08625743  0.24772209  1
  Te  Te172  1  0.91111957  0.07752088  0.59388482  1
  Te  Te173  1  0.92079330  0.12739650  0.91119791  1
  Te  Te174  1  0.92617278  0.41143479  0.24396676  1
  Te  Te175  1  0.94889643  0.42372491  0.59596123  1
  Te  Te176  1  0.92374118  0.43971069  0.92806567  1
  Te  Te177  1  0.93055967  0.73200820  0.28184848  1
  Te  Te178  1  0.90959668  0.74580284  0.60258045  1
  Te  Te179  1  0.95550930  0.71417787  0.94684133  1
