# generated using pymatgen
data_In2Te3
_symmetry_space_group_name_H-M   'P 1'
_cell_length_a   19.00335677
_cell_length_b   19.00417514
_cell_length_c   19.01791640
_cell_angle_alpha   89.56922648
_cell_angle_beta   89.82347999
_cell_angle_gamma   89.85228448
_symmetry_Int_Tables_number   1
_chemical_formula_structural   In2Te3
_chemical_formula_sum   'In72 Te108'
_cell_volume   6867.94054000
_cell_formula_units_Z   36
loop_
 _symmetry_equiv_pos_site_id
 _symmetry_equiv_pos_as_xyz
  1  'x, y, z'
loop_
 _atom_site_type_symbol
 _atom_site_label
 _atom_site_symmetry_multiplicity
 _atom_site_fract_x
 _atom_site_fract_y
 _atom_site_fract_z
 _atom_site_occupancy
  In  In0  1  0.16648876  0.49052818  0.00087000  1
  In  In1  1  0.17289435  0.84913750  0.35630734  1
  In  In2  1  0.49317644  0.84197995  0.00145568  1
  In  In3  1  0.86233328  0.82941592  0.66136940  1
  In  In4  1  0.51004011  0.18244732  0.00544522  1
  In  In5  1  0.50302767  -0.00574831  0.16251402  1
  In  In6  1  -0.01663341  0.50220579  0.18836865  1
  In  In7  1  0.32761551  0.83773317  0.17336276  1
  In  In8  1  0.31197899  0.16327508  0.18416897  1
  In  In9  1  0.00404140  0.52510430  0.49572424  1
  In  In10  1  0.34711094  0.67632291  0.34407511  1
  In  In11  1  0.49786273  0.83305785  0.33548676  1
  In  In12  1  0.84317337  0.49580623  -0.01357848  1
  In  In13  1  0.69376532  0.67375370  0.64802547  1
  In  In14  1  0.46370854  0.65085975  0.12969680  1
  In  In15  1  0.81011086  0.03763120  0.12720373  1
  In  In16  1  0.18422869  0.11923302  0.65316243  1
  In  In17  1  0.53561975  0.34253544  0.48424923  1
  In  In18  1  0.54359759  0.17514988  0.67932463  1
  In  In19  1  0.02894807  0.68631357  0.66556261  1
  In  In20  1  0.47367617  0.63574798  0.86150271  1
  In  In21  1  0.68930496  0.70744758  0.36222654  1
  In  In22  1  -0.01542556  0.33452040  -0.02398907  1
  In  In23  1  0.66741169  0.52574797  0.49592438  1
  In  In24  1  0.82429566  0.65562760  0.17598218  1
  In  In25  1  0.67791603  0.17700258  0.49381376  1
  In  In26  1  0.14784735  0.34577673  0.83920387  1
  In  In27  1  0.14909037  0.14932937  0.35064667  1
  In  In28  1  0.65980112  0.82951582  0.85048933  1
  In  In29  1  0.65891019  0.52002415  0.16365464  1
  In  In30  1  0.33745605  0.15207106  0.50289023  1
  In  In31  1  0.44783352  0.34136783  0.12374377  1
  In  In32  1  0.50014405  0.78790081  0.69550906  1
  In  In33  1  0.17997937  -0.06402844  0.82955465  1
  In  In34  1  0.29430508  0.65312653  0.69120679  1
  In  In35  1  0.48686585  0.38355314  0.86084926  1
  In  In36  1  0.64757068  0.83712249  0.16771303  1
  In  In37  1  0.66951106  0.33221349  0.30820372  1
  In  In38  1  0.67873622  0.34035037  0.67285746  1
  In  In39  1  0.86477496  0.65553777  0.82799022  1
  In  In40  1  0.17076514  0.68271345  0.48948483  1
  In  In41  1  0.33476332  0.15615667  0.83164251  1
  In  In42  1  0.35430839  0.31649649  0.67620563  1
  In  In43  1  -0.00601824  0.33291920  0.35337867  1
  In  In44  1  0.03541110  0.67141902  -0.01206694  1
  In  In45  1  0.02010618  0.01416370  -0.00097428  1
  In  In46  1  0.01184822  0.16454761  0.82024269  1
  In  In47  1  0.85570745  0.32472555  0.16061934  1
  In  In48  1  0.48377238  -0.01937717  0.49866379  1
  In  In49  1  0.33505410  0.50580431  0.50289094  1
  In  In50  1  0.31802497  0.34997186  0.31079450  1
  In  In51  1  0.65783878  0.00947411  0.31546067  1
  In  In52  1  0.01827280  0.31215542  0.67039463  1
  In  In53  1  0.31048818  -0.02220837  0.66193824  1
  In  In54  1  0.85139917  -0.01675694  0.81764815  1
  In  In55  1  0.67955897  0.49869209  0.83578828  1
  In  In56  1  0.68556328  0.00267359  0.68458698  1
  In  In57  1  0.15357583  0.32660794  0.50979199  1
  In  In58  1  0.01596526  0.81541553  0.14643280  1
  In  In59  1  0.51472744  0.53326087  0.33268413  1
  In  In60  1  0.87742281  -0.02262490  0.52098084  1
  In  In61  1  0.02692058  0.15330061  0.16628982  1
  In  In62  1  -0.03415616  -0.03810744  0.33234483  1
  In  In63  1  0.47737214  0.02527952  0.81868364  1
  In  In64  1  0.83689149  0.18788474  0.33007619  1
  In  In65  1  0.83902470  0.82233007  0.01166714  1
  In  In66  1  0.18735002  0.33385073  0.13936422  1
  In  In67  1  0.32570380  -0.02138262  -0.00044705  1
  In  In68  1  -0.00019599  0.67973658  0.33396124  1
  In  In69  1  0.69535796  0.18399971  0.88732593  1
  In  In70  1  0.47998255  0.52748338  0.67868141  1
  In  In71  1  0.83588133  0.33602610  0.50974014  1
  Te  Te72  1  0.11991383  0.06543738  0.09419675  1
  Te  Te73  1  0.05496155  0.05132637  0.41388825  1
  Te  Te74  1  0.10400579  0.05880698  0.76441296  1
  Te  Te75  1  0.05715871  0.41199952  0.08911452  1
  Te  Te76  1  0.09312615  0.42706277  0.41440985  1
  Te  Te77  1  0.10789056  0.41709553  0.71969734  1
  Te  Te78  1  0.11982631  0.72783790  0.09251293  1
  Te  Te79  1  0.06524753  0.77598804  0.43443793  1
  Te  Te80  1  0.11529629  0.72904819  0.78275900  1
  Te  Te81  1  0.41286958  0.07995628  0.07104300  1
  Te  Te82  1  0.42936760  0.08457790  0.41247210  1
  Te  Te83  1  0.40732950  0.09516367  0.70408554  1
  Te  Te84  1  0.37574400  0.44657235  0.04632931  1
  Te  Te85  1  0.42926981  0.42413107  0.41193616  1
  Te  Te86  1  0.38656748  0.43971896  0.75887775  1
  Te  Te87  1  0.38103750  0.75611397  0.05652427  1
  Te  Te88  1  0.38881398  0.78971291  0.43069076  1
  Te  Te89  1  0.38831214  0.73404433  0.78186261  1
  Te  Te90  1  0.74385454  0.12748158  0.02641053  1
  Te  Te91  1  0.75859045  0.08308300  0.40797592  1
  Te  Te92  1  0.75500145  0.09797174  0.77373842  1
  Te  Te93  1  0.76410433  0.43059742  0.09841927  1
  Te  Te94  1  0.73180425  0.40678814  0.42483105  1
  Te  Te95  1  0.76970533  0.40814383  0.76334131  1
  Te  Te96  1  0.73437683  0.74166670  0.08733691  1
  Te  Te97  1  0.79968579  0.73645560  0.45235394  1
  Te  Te98  1  0.75988731  0.76015602  0.76098968  1
  Te  Te99  1  0.08695838  0.26002863  0.25697333  1
  Te  Te100  1  0.08807162  0.20780573  0.57717025  1
  Te  Te101  1  0.09037356  0.23742805  0.92794638  1
  Te  Te102  1  0.07954169  0.59601164  0.24242136  1
  Te  Te103  1  0.11105508  0.58115007  0.58538902  1
  Te  Te104  1  0.08050600  0.55978214  0.90058017  1
  Te  Te105  1  0.07888018  0.90766870  0.24837644  1
  Te  Te106  1  0.02563066  0.96910212  0.55633256  1
  Te  Te107  1  0.07501319  0.89249329  0.93295174  1
  Te  Te108  1  0.41568205  0.25545277  0.24516724  1
  Te  Te109  1  0.44403328  0.25396770  0.56908820  1
  Te  Te110  1  0.41551371  0.25454435  0.90981806  1
  Te  Te111  1  0.39945007  0.57331332  0.24418085  1
  Te  Te112  1  0.40236276  0.61337212  0.58262993  1
  Te  Te113  1  0.37115798  0.56484549  0.94209808  1
  Te  Te114  1  0.40839101  0.93020696  0.26075883  1
  Te  Te115  1  0.42641802  0.89511340  0.61024991  1
  Te  Te116  1  0.41058896  0.91200813  0.89260299  1
  Te  Te117  1  0.74550315  0.23658268  0.21969050  1
  Te  Te118  1  0.76364913  0.23608328  0.60128109  1
  Te  Te119  1  0.77430011  0.26939871  0.97012100  1
  Te  Te120  1  0.73331313  0.59001433  0.27798502  1
  Te  Te121  1  0.76317215  0.55622605  0.59985324  1
  Te  Te122  1  0.75646837  0.60088787  0.91892933  1
  Te  Te123  1  0.75038154  0.93245031  0.22232398  1
  Te  Te124  1  0.75460876  0.91173789  0.59027516  1
  Te  Te125  1  0.75959355  0.91671438  0.92158954  1
  Te  Te126  1  0.26101182  0.23281591  0.06633680  1
  Te  Te127  1  0.25608886  0.25516980  0.41496502  1
  Te  Te128  1  0.24117254  0.23743909  0.74139129  1
  Te  Te129  1  0.27485109  0.56861132  0.06556247  1
  Te  Te130  1  0.24637607  0.57993196  0.40672214  1
  Te  Te131  1  0.20670832  0.60953707  0.80415954  1
  Te  Te132  1  0.23268729  0.92440530  0.09957928  1
  Te  Te133  1  0.27734569  0.89926665  0.44537144  1
  Te  Te134  1  0.20034451  0.88202817  0.68922514  1
  Te  Te135  1  0.57625409  0.28973210  0.07819024  1
  Te  Te136  1  0.58435242  0.23524202  0.39057682  1
  Te  Te137  1  0.57286858  0.28754488  0.77119716  1
  Te  Te138  1  0.56489698  0.56727250  0.06079062  1
  Te  Te139  1  0.57555170  0.62807128  0.43119877  1
  Te  Te140  1  0.58639389  0.59669698  0.75847779  1
  Te  Te141  1  0.59720397  0.93277476  0.06063935  1
  Te  Te142  1  0.59755104  0.91211954  0.41498617  1
  Te  Te143  1  0.57899954  0.91989212  0.75690477  1
  Te  Te144  1  0.93181082  0.22736038  0.07451409  1
  Te  Te145  1  0.92626665  0.23181533  0.44345067  1
  Te  Te146  1  0.91589399  0.25553074  0.75834325  1
  Te  Te147  1  0.92210827  0.59706064  0.07570821  1
  Te  Te148  1  0.90682352  0.58904684  0.40601216  1
  Te  Te149  1  0.94401492  0.58410175  0.73029493  1
  Te  Te150  1  0.91454986  0.93206887  0.08635084  1
  Te  Te151  1  0.86796178  0.87933788  0.40902236  1
  Te  Te152  1  0.95625091  0.90851168  0.74347569  1
  Te  Te153  1  0.24517038  0.07117347  0.27501698  1
  Te  Te154  1  0.24375975  0.03489309  0.53109181  1
  Te  Te155  1  0.24370771  0.06027863  0.90141339  1
  Te  Te156  1  0.23253351  0.43606471  0.23113792  1
  Te  Te157  1  0.26348752  0.40040992  0.58424015  1
  Te  Te158  1  0.25334907  0.39372137  0.92846701  1
  Te  Te159  1  0.24231386  0.75023168  0.26310558  1
  Te  Te160  1  0.24417641  0.75684794  0.59519849  1
  Te  Te161  1  0.19550599  0.80008605  0.89739301  1
  Te  Te162  1  0.58496892  0.09676385  0.22420794  1
  Te  Te163  1  0.59334334  0.07444886  0.57628805  1
  Te  Te164  1  0.57747387  0.08490565  0.90968197  1
  Te  Te165  1  0.56788964  0.42372891  0.24146863  1
  Te  Te166  1  0.57225664  0.43417905  0.60002943  1
  Te  Te167  1  0.59514634  0.43828842  0.94275196  1
  Te  Te168  1  0.54647952  0.74167784  0.22577199  1
  Te  Te169  1  0.59299189  0.75958489  0.58706081  1
  Te  Te170  1  0.57147755  0.73555751  0.92828481  1
  Te  Te171  1  0.91231669  0.08516843  0.24348623  1
  Te  Te172  1  0.93086614  0.04601163  0.64233125  1
  Te  Te173  1  0.91942594  0.08202104  0.91007671  1
  Te  Te174  1  0.89400311  0.41579788  0.27630617  1
  Te  Te175  1  0.94019408  0.41390423  0.58094266  1
  Te  Te176  1  0.92506168  0.43128451  0.88322551  1
  Te  Te177  1  0.90794361  0.76148657  0.23962816  1
  Te  Te178  1  0.91766098  0.72702530  0.57049402  1
  Te  Te179  1  0.93400823  0.75974899  0.91230972  1
