# generated using pymatgen
data_In2Te3
_symmetry_space_group_name_H-M   'P 1'
_cell_length_a   18.96864889
_cell_length_b   18.96681780
_cell_length_c   18.96781170
_cell_angle_alpha   90.23960462
_cell_angle_beta   89.90496020
_cell_angle_gamma   89.84600324
_symmetry_Int_Tables_number   1
_chemical_formula_structural   In2Te3
_chemical_formula_sum   'In72 Te108'
_cell_volume   6824.04886426
_cell_formula_units_Z   36
loop_
 _symmetry_equiv_pos_site_id
 _symmetry_equiv_pos_as_xyz
  1  'x, y, z'
loop_
 _atom_site_type_symbol
 _atom_site_label
 _atom_site_symmetry_multiplicity
 _atom_site_fract_x
 _atom_site_fract_y
 _atom_site_fract_z
 _atom_site_occupancy
  In  In0  1  0.67929805  0.17176149  0.82475729  1
  In  In1  1  0.15431700  0.17860692  0.66660290  1
  In  In2  1  0.82899448  0.18754313  0.66344953  1
  In  In3  1  0.49855478  0.67914912  0.48515949  1
  In  In4  1  0.30725571  0.50686003  0.15970541  1
  In  In5  1  0.47169787  0.14015687  0.64488426  1
  In  In6  1  0.31644480  0.82470751  0.50023109  1
  In  In7  1  0.89485272  -0.01414578  0.91365178  1
  In  In8  1  0.32370342  0.17949588  0.14986811  1
  In  In9  1  -0.00911084  0.49396225  0.49624741  1
  In  In10  1  0.66764551  0.83097687  0.17585619  1
  In  In11  1  0.48828201  0.33233320  0.85475275  1
  In  In12  1  0.30496999  0.64198059  0.65538134  1
  In  In13  1  0.84226813  0.50008462  0.67124275  1
  In  In14  1  0.00917332  0.82469132  0.51218040  1
  In  In15  1  0.85721200  0.65693022  0.16512696  1
  In  In16  1  0.13631192  0.48746214  0.68196008  1
  In  In17  1  0.50019430  0.32419740  0.51080094  1
  In  In18  1  0.50714965  0.16900137  -0.00241786  1
  In  In19  1  0.31124675  0.48311175  0.49870364  1
  In  In20  1  0.49703474  -0.00140625  0.80432465  1
  In  In21  1  0.00003483  0.00777453  0.66523947  1
  In  In22  1  0.50655310  0.68888851  0.85632099  1
  In  In23  1  0.70584533  0.02348720  0.01356274  1
  In  In24  1  0.16213283  0.83103844  0.01034174  1
  In  In25  1  0.29737489  0.78713083  0.17261954  1
  In  In26  1  0.67720481  0.36326988  0.00860631  1
  In  In27  1  0.31137643  0.34901450  0.31045956  1
  In  In28  1  0.84078325  0.32393931  0.86188475  1
  In  In29  1  0.67967761  0.85081350  0.47852498  1
  In  In30  1  0.46621175  0.48423668  0.00178024  1
  In  In31  1  0.33741004  -0.02874918  0.34199694  1
  In  In32  1  0.49278806  0.83213624  0.66001529  1
  In  In33  1  0.48461035  -0.00084534  0.19493521  1
  In  In34  1  0.15376251  0.31471199  0.85009135  1
  In  In35  1  0.68337959  0.49412247  0.16365623  1
  In  In36  1  0.65637346  0.16389500  0.49078099  1
  In  In37  1  0.83695021  0.82022105  0.33644143  1
  In  In38  1  0.86709673  0.81857137  0.67872526  1
  In  In39  1  0.50560895  0.83384876  0.01734751  1
  In  In40  1  0.15662232  0.16099113  0.00645634  1
  In  In41  1  0.84996642  0.34563576  0.47382943  1
  In  In42  1  0.65603372  0.00468162  0.68099640  1
  In  In43  1  0.29410397  0.00308354  0.66787201  1
  In  In44  1  0.66087660  0.00254802  0.33224864  1
  In  In45  1  0.69274027  0.66068629  0.01996939  1
  In  In46  1  0.33126699  0.84849647  0.82260434  1
  In  In47  1  0.15480343  0.16579897  0.33903138  1
  In  In48  1  0.50514870  0.50327527  0.31219440  1
  In  In49  1  0.67934662  0.46997371  0.45463943  1
  In  In50  1  0.91238890  0.69670007  0.85874011  1
  In  In51  1  0.00731941  0.01366526  0.33765918  1
  In  In52  1  -0.00807255  0.33902142  0.32695268  1
  In  In53  1  0.14923134  0.01514171  0.84947055  1
  In  In54  1  0.30414150  0.46185441  0.81441462  1
  In  In55  1  -0.01033268  0.84601663  0.16108683  1
  In  In56  1  0.16655371  0.66165801  0.48145997  1
  In  In57  1  0.80925190  0.01153909  0.49881951  1
  In  In58  1  0.51527980  0.67241463  0.17085411  1
  In  In59  1  0.91965714  0.48443479  0.02224110  1
  In  In60  1  0.15823503  0.32194595  0.50437374  1
  In  In61  1  0.70615972  0.20223507  0.16530407  1
  In  In62  1  0.17660237  0.00307673  0.15625048  1
  In  In63  1  0.71683524  0.66845598  0.65172881  1
  In  In64  1  0.49604356  0.50968428  0.69761877  1
  In  In65  1  0.70419101  0.52853627  0.83494024  1
  In  In66  1  0.63808674  0.33486274  0.67153018  1
  In  In67  1  0.48270725  0.15729023  0.33958539  1
  In  In68  1  0.84795058  0.50192024  0.31879596  1
  In  In69  1  -0.00487749  0.16309269  0.15454709  1
  In  In70  1  0.31844849  0.64041942  -0.02447699  1
  In  In71  1  0.12035773  0.51192254  -0.03089787  1
  Te  Te72  1  0.06597927  0.05559000  0.07059530  1
  Te  Te73  1  0.09473572  0.07634100  0.43900019  1
  Te  Te74  1  0.06304393  0.10434587  0.76511155  1
  Te  Te75  1  0.04912474  0.43727238  0.07746206  1
  Te  Te76  1  0.09315704  0.42093896  0.41229314  1
  Te  Te77  1  0.05891906  0.40592510  0.77821240  1
  Te  Te78  1  0.07490311  0.74135437  0.09221222  1
  Te  Te79  1  0.09982673  0.76988327  0.40439912  1
  Te  Te80  1  0.03300712  0.71798050  0.77157779  1
  Te  Te81  1  0.41863728  0.07852555  0.08492978  1
  Te  Te82  1  0.40676032  0.06976230  0.42672087  1
  Te  Te83  1  0.38476144  0.08702998  0.75816190  1
  Te  Te84  1  0.39243932  0.40279315  0.09495779  1
  Te  Te85  1  0.41810810  0.41615930  0.41052849  1
  Te  Te86  1  0.41289496  0.38940444  0.73483462  1
  Te  Te87  1  0.40757131  0.72796023  0.06571051  1
  Te  Te88  1  0.39247603  0.73873682  0.40686962  1
  Te  Te89  1  0.40573831  0.73554460  0.73932095  1
  Te  Te90  1  0.78650629  0.08648604  0.11843095  1
  Te  Te91  1  0.75721524  0.10674728  0.39345189  1
  Te  Te92  1  0.76990031  0.07618103  0.75133423  1
  Te  Te93  1  0.79082617  0.41533416  0.09314364  1
  Te  Te94  1  0.75263565  0.37736735  0.35336138  1
  Te  Te95  1  0.74733671  0.40322774  0.75111870  1
  Te  Te96  1  0.77492921  0.76361918  0.09202826  1
  Te  Te97  1  0.76066495  0.74005724  0.43166500  1
  Te  Te98  1  0.78059713  0.73347796  0.77026676  1
  Te  Te99  1  0.08753019  0.25147479  0.23553662  1
  Te  Te100  1  0.05768089  0.25566965  0.58561395  1
  Te  Te101  1  0.05005191  0.25242005  0.94508416  1
  Te  Te102  1  0.16480778  0.58791184  0.27521560  1
  Te  Te103  1  0.08022375  0.58382885  0.58060493  1
  Te  Te104  1  0.04747889  0.62843676  0.89891781  1
  Te  Te105  1  0.08991363  0.92151888  0.24856397  1
  Te  Te106  1  0.08980463  0.91684620  0.59292649  1
  Te  Te107  1  0.07211719  0.90227487  0.91467022  1
  Te  Te108  1  0.41442358  0.25518170  0.24608341  1
  Te  Te109  1  0.39795746  0.23617711  0.56387991  1
  Te  Te110  1  0.40152392  0.25203940  0.93789498  1
  Te  Te111  1  0.40701735  0.59286404  0.24008792  1
  Te  Te112  1  0.41679081  0.57667891  0.57575831  1
  Te  Te113  1  0.41300749  0.56021230  0.88131178  1
  Te  Te114  1  0.40415124  0.87999264  0.23872658  1
  Te  Te115  1  0.39845174  0.92142406  0.58718879  1
  Te  Te116  1  0.42856868  0.91744180  0.91594172  1
  Te  Te117  1  0.79764348  0.29629465  0.22701836  1
  Te  Te118  1  0.73447471  0.26960002  0.56893780  1
  Te  Te119  1  0.74323687  0.23998950  0.94192439  1
  Te  Te120  1  0.74549450  0.59946426  0.24894135  1
  Te  Te121  1  0.75814799  0.55464511  0.55784517  1
  Te  Te122  1  0.78599620  0.56550853  0.95233087  1
  Te  Te123  1  0.76245453  0.92134626  0.25231811  1
  Te  Te124  1  0.75611606  0.91234689  0.60350273  1
  Te  Te125  1  0.75841464  0.92935050  0.91534373  1
  Te  Te126  1  0.21479124  0.26165202  0.09784465  1
  Te  Te127  1  0.25748800  0.25072959  0.41177562  1
  Te  Te128  1  0.24641913  0.25114686  0.75621123  1
  Te  Te129  1  0.21502723  0.58669347  0.06766092  1
  Te  Te130  1  0.26518322  0.58271689  0.39751426  1
  Te  Te131  1  0.22318958  0.58108390  0.76648713  1
  Te  Te132  1  0.27039359  0.90717282  0.08362646  1
  Te  Te133  1  0.22853291  0.90380768  0.41207947  1
  Te  Te134  1  0.21310911  0.90814295  0.75207297  1
  Te  Te135  1  0.58929579  0.26296361  0.08315313  1
  Te  Te136  1  0.58123898  0.25904175  0.40068347  1
  Te  Te137  1  0.56170824  0.22691412  0.74428199  1
  Te  Te138  1  0.57072825  0.57578409  0.06292311  1
  Te  Te139  1  0.59230195  0.58426938  0.40582838  1
  Te  Te140  1  0.60353182  0.60762803  0.74867521  1
  Te  Te141  1  0.59062143  0.93720372  0.09043776  1
  Te  Te142  1  0.57088661  0.91365371  0.40598364  1
  Te  Te143  1  0.59360283  0.88942186  0.75784203  1
  Te  Te144  1  0.93241021  0.24645820  0.04736049  1
  Te  Te145  1  0.93228066  0.24051844  0.41623930  1
  Te  Te146  1  0.91624805  0.23858024  0.76896899  1
  Te  Te147  1  0.96662402  0.62483419  0.06946236  1
  Te  Te148  1  0.93395436  0.58799639  0.40021051  1
  Te  Te149  1  0.93210448  0.59498591  0.74199601  1
  Te  Te150  1  0.91044302  0.92322612  0.05727508  1
  Te  Te151  1  0.91054752  0.92109513  0.42895806  1
  Te  Te152  1  0.92799860  0.92392400  0.76689909  1
  Te  Te153  1  0.26166597  0.08399362  0.25406837  1
  Te  Te154  1  0.21680168  0.08220653  0.57143118  1
  Te  Te155  1  0.25175328  0.07588395  0.93251035  1
  Te  Te156  1  0.20778388  0.43013724  0.24239195  1
  Te  Te157  1  0.24052753  0.40542385  0.60460326  1
  Te  Te158  1  0.23435735  0.41336714  0.93690377  1
  Te  Te159  1  0.19414285  0.73386592  0.26416883  1
  Te  Te160  1  0.22309548  0.75058330  0.59589453  1
  Te  Te161  1  0.24634441  0.75229434  0.90526578  1
  Te  Te162  1  0.59112418  0.10054377  0.23753395  1
  Te  Te163  1  0.57555072  0.06080067  0.56614250  1
  Te  Te164  1  0.58898636  0.07399302  0.90667830  1
  Te  Te165  1  0.58072412  0.41270399  0.22597826  1
  Te  Te166  1  0.58343132  0.44191342  0.57900754  1
  Te  Te167  1  0.59492976  0.42994067  0.89733430  1
  Te  Te168  1  0.58364017  0.75650998  0.26844118  1
  Te  Te169  1  0.59522641  0.74555749  0.58480805  1
  Te  Te170  1  0.61274624  0.76091462  0.93682140  1
  Te  Te171  1  0.91297138  0.07986004  0.24636454  1
  Te  Te172  1  0.90980126  0.09435818  0.57483047  1
  Te  Te173  1  0.93302963  0.12619485  0.94931027  1
  Te  Te174  1  0.96240897  0.45329540  0.23679419  1
  Te  Te175  1  0.92564824  0.39784900  0.59523210  1
  Te  Te176  1  0.93378234  0.43864681  0.88018557  1
  Te  Te177  1  0.94095692  0.73909988  0.26205456  1
  Te  Te178  1  0.92295680  0.72678139  0.57886618  1
  Te  Te179  1  0.94237094  0.81662513  0.95408530  1
