# generated using pymatgen
data_In2Te3
_symmetry_space_group_name_H-M   'P 1'
_cell_length_a   19.03437680
_cell_length_b   18.99048871
_cell_length_c   18.97738528
_cell_angle_alpha   90.06250344
_cell_angle_beta   89.81738750
_cell_angle_gamma   89.93264696
_symmetry_Int_Tables_number   1
_chemical_formula_structural   In2Te3
_chemical_formula_sum   'In72 Te108'
_cell_volume   6859.75195505
_cell_formula_units_Z   36
loop_
 _symmetry_equiv_pos_site_id
 _symmetry_equiv_pos_as_xyz
  1  'x, y, z'
loop_
 _atom_site_type_symbol
 _atom_site_label
 _atom_site_symmetry_multiplicity
 _atom_site_fract_x
 _atom_site_fract_y
 _atom_site_fract_z
 _atom_site_occupancy
  In  In0  1  0.19695603  0.64496474  0.14159600  1
  In  In1  1  0.83225806  -0.00457730  0.83310268  1
  In  In2  1  0.01003761  0.49702932  0.85043615  1
  In  In3  1  0.48864656  0.81389225  0.01049540  1
  In  In4  1  0.67703841  0.33106731  -0.00459384  1
  In  In5  1  0.00826240  0.66744926  0.32080583  1
  In  In6  1  0.33856237  0.19597390  0.48792237  1
  In  In7  1  0.68304712  0.00813595  0.33754246  1
  In  In8  1  0.69703944  0.35197092  0.68527125  1
  In  In9  1  0.31051805  0.34308591  0.30431089  1
  In  In10  1  0.01024566  0.17264887  0.82318271  1
  In  In11  1  -0.00376555  0.66195902  0.67108384  1
  In  In12  1  -0.00292090  0.85632945  0.15865784  1
  In  In13  1  0.51320875  0.19040694  0.32141676  1
  In  In14  1  -0.01157592  0.82959531  0.85068067  1
  In  In15  1  0.84501075  0.01137455  0.16198887  1
  In  In16  1  0.82060580  0.67744333  0.03598761  1
  In  In17  1  0.18171576  0.18121857  0.02003713  1
  In  In18  1  0.17693774  0.81345215  -0.00318590  1
  In  In19  1  0.34650201  0.01192768  0.68110572  1
  In  In20  1  0.64079907  0.53401421  0.19234226  1
  In  In21  1  0.18349415  0.33354254  0.87328329  1
  In  In22  1  0.49782647  0.47936581  0.01338218  1
  In  In23  1  0.47287678  0.49793102  0.67026104  1
  In  In24  1  0.84171121  0.01330383  0.50877960  1
  In  In25  1  0.50102557  0.68257490  0.82990488  1
  In  In26  1  -0.00091514  0.00291830  -0.01660448  1
  In  In27  1  0.48699915  -0.00378714  0.13989383  1
  In  In28  1  0.37304478  0.52254571  0.45755094  1
  In  In29  1  0.34373576  0.16929800  0.85684472  1
  In  In30  1  0.67247901  0.65569723  0.62973615  1
  In  In31  1  -0.01048032  0.36368541  0.64265075  1
  In  In32  1  0.00912590  0.36579972  0.05078900  1
  In  In33  1  0.80541400  0.36017850  0.17512911  1
  In  In34  1  0.52036915  0.33345870  0.50548627  1
  In  In35  1  0.19560435  0.83721739  0.63547288  1
  In  In36  1  0.15593137  0.83892739  0.30799295  1
  In  In37  1  0.50187654  -0.01191359  0.49753151  1
  In  In38  1  0.83291174  0.19028541  0.65837171  1
  In  In39  1  0.51838735  0.63053233  0.43551276  1
  In  In40  1  -0.02634809  0.17847132  0.17986834  1
  In  In41  1  -0.00657270  0.84905315  0.51965234  1
  In  In42  1  0.15842548  0.50316913  0.66339578  1
  In  In43  1  -0.00847224  0.20017670  0.49675461  1
  In  In44  1  0.81117595  0.80861807  0.33262651  1
  In  In45  1  0.16345136  0.02309741  0.47502818  1
  In  In46  1  0.14440095  0.16703641  0.65886101  1
  In  In47  1  0.49335185  0.29562171  0.83800589  1
  In  In48  1  -0.00531675  0.62783853  0.02084580  1
  In  In49  1  0.85613363  0.81539336  0.68711935  1
  In  In50  1  0.49541808  0.34694094  0.17680657  1
  In  In51  1  0.33178886  0.81301013  0.14919545  1
  In  In52  1  0.79084964  0.59352904  0.41920431  1
  In  In53  1  0.66596737  0.81733080  0.81252285  1
  In  In54  1  -0.00024164  0.35722906  0.29346076  1
  In  In55  1  0.66737221  0.85815933  0.49646722  1
  In  In56  1  0.16239148  0.63473285  0.46606094  1
  In  In57  1  0.31480474  0.49840899  0.85458627  1
  In  In58  1  0.68307824  0.50853084  0.83621769  1
  In  In59  1  0.16127118  -0.01259643  0.16707865  1
  In  In60  1  0.31626831  0.32445164  0.64979662  1
  In  In61  1  0.66605276  -0.01881169  0.00529013  1
  In  In62  1  0.67536553  0.17843216  0.85335417  1
  In  In63  1  0.33228278  -0.00336891  0.32046391  1
  In  In64  1  0.33995526  0.78146389  0.46413401  1
  In  In65  1  0.64760233  -0.01021376  0.66923525  1
  In  In66  1  0.34307357  0.83469612  0.84741405  1
  In  In67  1  0.69562214  0.17188945  0.18241072  1
  In  In68  1  0.17299749  0.37257040  0.45567659  1
  In  In69  1  0.48023930  0.84845235  0.68175830  1
  In  In70  1  0.49002135  0.16299247  0.01572208  1
  In  In71  1  0.16188305  0.68074972  0.83500025  1
  Te  Te72  1  0.06760972  0.08538790  0.08922096  1
  Te  Te73  1  0.05388590  0.09565152  0.41402509  1
  Te  Te74  1  0.10336608  0.07675157  0.76533370  1
  Te  Te75  1  0.09479313  0.46219671  0.12454516  1
  Te  Te76  1  0.06260672  0.44766167  0.39578941  1
  Te  Te77  1  0.10052847  0.40318330  0.76015171  1
  Te  Te78  1  0.07723298  0.74760285  0.08838121  1
  Te  Te79  1  0.08297333  0.76552038  0.42546593  1
  Te  Te80  1  0.09081813  0.76525430  0.73024683  1
  Te  Te81  1  0.38853629  0.09380364  0.09430453  1
  Te  Te82  1  0.42098320  0.09282519  0.41028269  1
  Te  Te83  1  0.43149533  0.09623239  0.76302952  1
  Te  Te84  1  0.39860264  0.44883586  0.12410620  1
  Te  Te85  1  0.40782971  0.38130303  0.41416451  1
  Te  Te86  1  0.39876942  0.39912162  0.76191507  1
  Te  Te87  1  0.43646523  0.71565692  0.10981708  1
  Te  Te88  1  0.44666107  0.74442573  0.36987488  1
  Te  Te89  1  0.39415133  0.73925619  0.73920408  1
  Te  Te90  1  0.75325465  0.08798483  0.06846387  1
  Te  Te91  1  0.74623824  0.09512494  0.43576155  1
  Te  Te92  1  0.74967319  0.08573429  0.74364228  1
  Te  Te93  1  0.71448586  0.44256926  0.08661787  1
  Te  Te94  1  0.74057592  0.45300599  0.43573438  1
  Te  Te95  1  0.78832474  0.44055412  0.75888235  1
  Te  Te96  1  0.72151024  0.71977793  0.13979333  1
  Te  Te97  1  0.72291805  0.73455591  0.43003747  1
  Te  Te98  1  0.75763198  0.71783981  0.74442276  1
  Te  Te99  1  0.09013458  0.25036405  0.23786791  1
  Te  Te100  1  0.10533878  0.28377868  0.57040774  1
  Te  Te101  1  0.06781379  0.26034667  0.93937311  1
  Te  Te102  1  0.09129744  0.58242767  0.22805001  1
  Te  Te103  1  0.06611043  0.57308224  0.56847139  1
  Te  Te104  1  0.10785033  0.57882459  0.93197850  1
  Te  Te105  1  0.05344965  0.94260368  0.26809669  1
  Te  Te106  1  0.09642512  0.93938725  0.58365037  1
  Te  Te107  1  0.09855347  0.91147863  0.91228895  1
  Te  Te108  1  0.40158599  0.24218067  0.23365113  1
  Te  Te109  1  0.43123705  0.24280868  0.59703328  1
  Te  Te110  1  0.40071889  0.27090893  0.95541946  1
  Te  Te111  1  0.42299361  0.58083953  0.32525811  1
  Te  Te112  1  0.44113684  0.60223362  0.56860924  1
  Te  Te113  1  0.43209287  0.57443952  0.91127963  1
  Te  Te114  1  0.41659821  0.90374162  0.23798618  1
  Te  Te115  1  0.39702944  0.90538229  0.56853250  1
  Te  Te116  1  0.42178263  0.91968160  0.93491273  1
  Te  Te117  1  0.73663479  0.27587192  0.27541753  1
  Te  Te118  1  0.75824349  0.28019671  0.56826522  1
  Te  Te119  1  0.77507591  0.26793761  0.90825882  1
  Te  Te120  1  0.77002603  0.60354994  0.24405870  1
  Te  Te121  1  0.76260039  0.55805247  0.56646473  1
  Te  Te122  1  0.74412934  0.59968412  0.93398428  1
  Te  Te123  1  0.75455754  0.91557236  0.24124448  1
  Te  Te124  1  0.76609258  0.90962663  0.60599483  1
  Te  Te125  1  0.75219544  0.89518053  0.91172050  1
  Te  Te126  1  0.20347150  0.28172258  0.12433610  1
  Te  Te127  1  0.23090957  0.24499634  0.39652911  1
  Te  Te128  1  0.24340576  0.24421287  0.75685588  1
  Te  Te129  1  0.29446053  0.55632705  0.07929817  1
  Te  Te130  1  0.25804384  0.57030575  0.37377344  1
  Te  Te131  1  0.24870796  0.58694147  0.75011000  1
  Te  Te132  1  0.25573442  0.91806909  0.07116809  1
  Te  Te133  1  0.25242745  0.90404586  0.41403664  1
  Te  Te134  1  0.25469017  0.91508679  0.75185760  1
  Te  Te135  1  0.58949896  0.25266330  0.09390788  1
  Te  Te136  1  0.60487248  0.25448416  0.41381850  1
  Te  Te137  1  0.59874763  0.24637635  0.74236926  1
  Te  Te138  1  0.55337126  0.59583515  0.08581150  1
  Te  Te139  1  0.60586422  0.51077263  0.40221204  1
  Te  Te140  1  0.58217438  0.58812470  0.74099123  1
  Te  Te141  1  0.59023824  0.89249458  0.09916876  1
  Te  Te142  1  0.57603218  0.91205000  0.38958288  1
  Te  Te143  1  0.56532748  0.92623220  0.77876796  1
  Te  Te144  1  0.89512814  0.26941596  0.09031789  1
  Te  Te145  1  0.91695346  0.29081827  0.40446960  1
  Te  Te146  1  0.92557923  0.27266007  0.74517445  1
  Te  Te147  1  0.89453315  0.57426793  0.11601766  1
  Te  Te148  1  0.93858475  0.56978519  0.40687929  1
  Te  Te149  1  0.92219532  0.56277487  0.75060913  1
  Te  Te150  1  0.90276382  0.91192252  0.05676564  1
  Te  Te151  1  0.89729285  0.90569740  0.41792117  1
  Te  Te152  1  0.93782539  0.92809073  0.74739725  1
  Te  Te153  1  0.23615383  0.07991962  0.25114079  1
  Te  Te154  1  0.26040197  0.09349763  0.57828865  1
  Te  Te155  1  0.24150098  0.08954232  0.92384941  1
  Te  Te156  1  0.20893610  0.40872049  0.21677715  1
  Te  Te157  1  0.26053439  0.43978513  0.56950664  1
  Te  Te158  1  0.24754389  0.42853680  0.96635015  1
  Te  Te159  1  0.25096962  0.73742749  0.25282799  1
  Te  Te160  1  0.25002138  0.71415639  0.56462181  1
  Te  Te161  1  0.27524891  0.72452778  0.92797549  1
  Te  Te162  1  0.58286679  0.07888753  0.23538971  1
  Te  Te163  1  0.58719005  0.07941136  0.57242011  1
  Te  Te164  1  0.58381033  0.08329556  0.92731247  1
  Te  Te165  1  0.57840942  0.42128673  0.27431181  1
  Te  Te166  1  0.58701392  0.42589445  0.60441246  1
  Te  Te167  1  0.57871336  0.40690268  0.89703836  1
  Te  Te168  1  0.63866124  0.67441869  0.26361873  1
  Te  Te169  1  0.58507484  0.77870860  0.59767116  1
  Te  Te170  1  0.59791943  0.74402956  0.92625221  1
  Te  Te171  1  0.88638746  0.10178363  0.26866700  1
  Te  Te172  1  0.93345104  0.09661118  0.59517376  1
  Te  Te173  1  0.90817603  0.09964676  0.91171630  1
  Te  Te174  1  0.90447482  0.45533818  0.23182785  1
  Te  Te175  1  0.89076686  0.37457437  0.53543686  1
  Te  Te176  1  0.92489100  0.43765636  0.95424485  1
  Te  Te177  1  0.91754969  0.75475140  0.23795112  1
  Te  Te178  1  0.90783860  0.73455139  0.56992239  1
  Te  Te179  1  0.92152658  0.71731841  0.91748690  1
