# generated using pymatgen
data_In2Te3
_symmetry_space_group_name_H-M   'P 1'
_cell_length_a   18.76116970
_cell_length_b   18.76331927
_cell_length_c   18.76822644
_cell_angle_alpha   90.01419390
_cell_angle_beta   89.99061038
_cell_angle_gamma   89.93319031
_symmetry_Int_Tables_number   1
_chemical_formula_structural   In2Te3
_chemical_formula_sum   'In72 Te108'
_cell_volume   6606.82038746
_cell_formula_units_Z   36
loop_
 _symmetry_equiv_pos_site_id
 _symmetry_equiv_pos_as_xyz
  1  'x, y, z'
loop_
 _atom_site_type_symbol
 _atom_site_label
 _atom_site_symmetry_multiplicity
 _atom_site_fract_x
 _atom_site_fract_y
 _atom_site_fract_z
 _atom_site_occupancy
  In  In0  1  0.64833185  0.16579061  0.17616300  1
  In  In1  1  0.32618612  0.16088389  0.16475694  1
  In  In2  1  0.02213232  0.22723739  0.83820845  1
  In  In3  1  0.33938658  0.47998902  0.82763112  1
  In  In4  1  0.82739202  0.33967314  0.15134056  1
  In  In5  1  0.00694912  0.67644607  0.65170365  1
  In  In6  1  0.48908581  0.84770213  -0.00054982  1
  In  In7  1  0.66295595  0.33473254  0.68462257  1
  In  In8  1  -0.02341696  0.82168987  0.19476358  1
  In  In9  1  0.83675546  0.49301951  -0.00795689  1
  In  In10  1  0.49895180  0.14549147  0.33737589  1
  In  In11  1  0.17661012  0.81864306  -0.01039623  1
  In  In12  1  0.66286435  0.67389639  0.00950389  1
  In  In13  1  0.15376603  0.49594792  0.32840110  1
  In  In14  1  0.80735608  0.01413913  0.84693657  1
  In  In15  1  0.84292101  0.16306032  0.67891608  1
  In  In16  1  0.52624424  0.34402760  0.17671554  1
  In  In17  1  0.48231323  0.30430687  0.53399169  1
  In  In18  1  0.00866730  0.49848980  0.16558510  1
  In  In19  1  0.16691197  0.00560011  0.51871677  1
  In  In20  1  0.00017916  0.48478494  0.83451965  1
  In  In21  1  0.49624843  0.50402987  0.67863174  1
  In  In22  1  0.16132094  0.49886565  0.66596281  1
  In  In23  1  0.82760086  -0.00714312  0.19391895  1
  In  In24  1  0.33112284  0.51425922  0.15300655  1
  In  In25  1  0.34214831  0.15313707  0.81117192  1
  In  In26  1  0.65825467  0.12437627  0.50164281  1
  In  In27  1  0.33693553  0.33786753  -0.01725692  1
  In  In28  1  0.84130664  0.33493992  0.52286958  1
  In  In29  1  0.18682831  0.01535310  0.84139182  1
  In  In30  1  0.65868265  0.16675978  0.82004839  1
  In  In31  1  0.16664804  0.32980843  0.50787113  1
  In  In32  1  0.17777899  0.81233081  0.65537198  1
  In  In33  1  0.81939380  0.18759428  -0.01583838  1
  In  In34  1  0.49291297  0.65352835  0.82792996  1
  In  In35  1  0.00414019  0.16468739  0.49687157  1
  In  In36  1  0.16528315  -0.02056466  0.16545080  1
  In  In37  1  -0.01626070  0.82946975  0.48178407  1
  In  In38  1  0.34432463  0.00072567  0.36150190  1
  In  In39  1  0.50837278  0.68021937  0.16349242  1
  In  In40  1  0.00596532  0.65292539  0.00473744  1
  In  In41  1  0.51543046  0.82853736  0.34187286  1
  In  In42  1  0.65359996  0.84410455  0.50714089  1
  In  In43  1  0.67537716  0.51794670  0.49897266  1
  In  In44  1  0.81819665  0.49774322  0.65725427  1
  In  In45  1  0.00201917  0.33412664  0.32892525  1
  In  In46  1  -0.00172720  0.15509907  0.17636636  1
  In  In47  1  0.81084962  0.68427560  0.81194666  1
  In  In48  1  0.33016046  0.83588474  0.16294870  1
  In  In49  1  0.79610247  0.81885386  0.00978055  1
  In  In50  1  0.82970462  0.57337511  0.33552808  1
  In  In51  1  0.34113802  0.68536871  0.33604985  1
  In  In52  1  0.66620982  -0.01549063  0.00476610  1
  In  In53  1  0.34134624  0.83105524  0.83950626  1
  In  In54  1  0.37712361  -0.03171151  0.64727987  1
  In  In55  1  0.81112877  0.82817103  0.66238502  1
  In  In56  1  0.68314637  0.33112662  0.33927108  1
  In  In57  1  0.81356987  0.81787094  0.34701657  1
  In  In58  1  -0.00410797  0.82082859  0.81231519  1
  In  In59  1  0.15269206  0.83136206  0.35234610  1
  In  In60  1  0.16689848  0.17310227  0.66786750  1
  In  In61  1  0.53461580  0.50721351  0.35279527  1
  In  In62  1  0.14647529  0.34820536  0.16080515  1
  In  In63  1  0.49958857  0.17586039  -0.00115584  1
  In  In64  1  -0.02095245  0.02577768  0.65171789  1
  In  In65  1  0.00105109  0.00996909  0.00814782  1
  In  In66  1  0.32270088  0.31591477  0.36448102  1
  In  In67  1  0.35348820  0.68207243  0.65848353  1
  In  In68  1  0.52810631  0.48347699  -0.04640182  1
  In  In69  1  0.18394744  0.49310452  0.00505102  1
  In  In70  1  0.33451121  0.50515119  0.51248747  1
  In  In71  1  0.52887966  0.01452222  0.16865148  1
  Te  Te72  1  0.10370980  0.09323903  0.08070847  1
  Te  Te73  1  0.08548925  0.07169164  0.41568701  1
  Te  Te74  1  0.07539188  0.08503633  0.75801374  1
  Te  Te75  1  0.05833004  0.40940860  0.04918903  1
  Te  Te76  1  0.06981925  0.42338831  0.43292064  1
  Te  Te77  1  0.08046211  0.40009837  0.74191842  1
  Te  Te78  1  0.07363711  0.76235211  0.08822926  1
  Te  Te79  1  0.06881025  0.72250259  0.41550224  1
  Te  Te80  1  0.10531966  0.72947213  0.76139036  1
  Te  Te81  1  0.41888623  0.07371358  0.07991614  1
  Te  Te82  1  0.41923559  0.09380293  0.45421508  1
  Te  Te83  1  0.44752190  0.06284003  0.74401134  1
  Te  Te84  1  0.42718863  0.41573907  0.08100967  1
  Te  Te85  1  0.42765292  0.41339129  0.41772806  1
  Te  Te86  1  0.42802442  0.39253161  0.74656713  1
  Te  Te87  1  0.40375311  0.74012246  0.06968628  1
  Te  Te88  1  0.41891179  0.76279737  0.43768122  1
  Te  Te89  1  0.44643503  0.77391218  0.74146017  1
  Te  Te90  1  0.75519117  0.08493470  0.08004741  1
  Te  Te91  1  0.77435853  0.07336527  0.42683920  1
  Te  Te92  1  0.72911507  0.06280917  0.72183250  1
  Te  Te93  1  0.73459516  0.42857798  0.07992221  1
  Te  Te94  1  0.77093306  0.43221136  0.41509919  1
  Te  Te95  1  0.74076313  0.43244142  0.76776746  1
  Te  Te96  1  0.75572657  0.72435559  0.11952640  1
  Te  Te97  1  0.72889037  0.73099497  0.43747486  1
  Te  Te98  1  0.70430334  0.75991174  0.74047172  1
  Te  Te99  1  0.09912019  0.24013518  0.25800924  1
  Te  Te100  1  0.06206391  0.26055728  0.59868052  1
  Te  Te101  1  0.09881571  0.28083086  0.94834347  1
  Te  Te102  1  0.09323686  0.59504410  0.23769273  1
  Te  Te103  1  0.09581792  0.59110367  0.57023371  1
  Te  Te104  1  0.09693105  0.57945921  0.90865876  1
  Te  Te105  1  0.06447888  0.92415352  0.26658676  1
  Te  Te106  1  0.06774018  0.90515702  0.59638187  1
  Te  Te107  1  0.07696657  0.91648218  0.91013985  1
  Te  Te108  1  0.42694793  0.24790698  0.24527137  1
  Te  Te109  1  0.37744873  0.20659439  0.56619145  1
  Te  Te110  1  0.43108676  0.25979355  0.89317523  1
  Te  Te111  1  0.42494015  0.57821674  0.25954809  1
  Te  Te112  1  0.44433048  0.59506583  0.56733900  1
  Te  Te113  1  0.40740253  0.57386584  0.92761827  1
  Te  Te114  1  0.42301126  0.92227063  0.24795568  1
  Te  Te115  1  0.45225676  0.87601971  0.55437852  1
  Te  Te116  1  0.41844670  0.93741728  0.90602609  1
  Te  Te117  1  0.76262816  0.23743408  0.24861478  1
  Te  Te118  1  0.73412972  0.24196624  0.58086148  1
  Te  Te119  1  0.73091407  0.27530693  0.90044955  1
  Te  Te120  1  0.73086786  0.62001384  0.23824375  1
  Te  Te121  1  0.74238898  0.60870073  0.59568416  1
  Te  Te122  1  0.74504479  0.58990987  0.91201478  1
  Te  Te123  1  0.73305632  0.89321391  0.24416198  1
  Te  Te124  1  0.75542902  0.93198220  0.57337527  1
  Te  Te125  1  0.72540911  0.89531013  0.89506748  1
  Te  Te126  1  0.24750346  0.26084612  0.08119080  1
  Te  Te127  1  0.22799389  0.22205224  0.42447128  1
  Te  Te128  1  0.25197337  0.25642586  0.75479709  1
  Te  Te129  1  0.23192837  0.60351932  0.09155967  1
  Te  Te130  1  0.25240013  0.58266425  0.41027691  1
  Te  Te131  1  0.26785022  0.58217449  0.73989588  1
  Te  Te132  1  0.26187387  0.92520146  0.05937832  1
  Te  Te133  1  0.25468129  0.90538038  0.44079361  1
  Te  Te134  1  0.25020018  0.92333565  0.73577625  1
  Te  Te135  1  0.60232511  0.26467685  0.06977673  1
  Te  Te136  1  0.58301769  0.24917301  0.42033873  1
  Te  Te137  1  0.56314357  0.23498429  0.72894547  1
  Te  Te138  1  0.57091341  0.57120775  0.07571769  1
  Te  Te139  1  0.59997504  0.62386417  0.42011892  1
  Te  Te140  1  0.59783935  0.58113486  0.75239974  1
  Te  Te141  1  0.59444327  0.89186116  0.10284039  1
  Te  Te142  1  0.58055149  0.93975773  0.41567007  1
  Te  Te143  1  0.58608078  0.98168259  0.71320847  1
  Te  Te144  1  0.92479474  0.24745145  0.07781483  1
  Te  Te145  1  0.90702311  0.25000331  0.41299197  1
  Te  Te146  1  0.90554492  0.27111807  0.75831336  1
  Te  Te147  1  0.90408573  0.58694488  0.09494284  1
  Te  Te148  1  0.94884380  0.61338285  0.41008073  1
  Te  Te149  1  0.92076553  0.59474556  0.75313507  1
  Te  Te150  1  0.90724714  0.91191864  0.07786570  1
  Te  Te151  1  0.89624599  0.92580396  0.41101717  1
  Te  Te152  1  0.90370131  0.92729296  0.75364736  1
  Te  Te153  1  0.25031334  0.06892640  0.25895711  1
  Te  Te154  1  0.27188320  0.08486221  0.59725097  1
  Te  Te155  1  0.26389693  0.10437634  0.92796394  1
  Te  Te156  1  0.26317454  0.41026306  0.24924520  1
  Te  Te157  1  0.26768030  0.40054169  0.59764510  1
  Te  Te158  1  0.22647306  0.39530412  0.89231748  1
  Te  Te159  1  0.23549504  0.75229141  0.24762773  1
  Te  Te160  1  0.25579658  0.73377688  0.55891789  1
  Te  Te161  1  0.25477576  0.73012511  0.90181679  1
  Te  Te162  1  0.61771103  0.06156970  0.28492492  1
  Te  Te163  1  0.55417667  0.06447085  0.59186100  1
  Te  Te164  1  0.58033134  0.07391450  0.91673762  1
  Te  Te165  1  0.62255743  0.43924766  0.24729336  1
  Te  Te166  1  0.58756356  0.41593214  0.57133978  1
  Te  Te167  1  0.62156529  0.39243557  0.88658439  1
  Te  Te168  1  0.60412033  0.73099597  0.26612382  1
  Te  Te169  1  0.55954922  0.78002295  0.60617509  1
  Te  Te170  1  0.57439692  0.75336079  0.91422445  1
  Te  Te171  1  0.91484326  0.08128127  0.27317919  1
  Te  Te172  1  0.87859476  0.08009222  0.54718420  1
  Te  Te173  1  0.92233690  0.09646124  0.90741740  1
  Te  Te174  1  0.90483408  0.42653917  0.25462263  1
  Te  Te175  1  0.92976942  0.43599831  0.58332990  1
  Te  Te176  1  0.90783451  0.39299859  0.90740205  1
  Te  Te177  1  0.91083916  0.71674703  0.28065062  1
  Te  Te178  1  0.89483832  0.73959033  0.56983714  1
  Te  Te179  1  0.91218048  0.75143011  0.92077356  1
