# generated using pymatgen
data_In2Te3
_symmetry_space_group_name_H-M   'P 1'
_cell_length_a   18.86213524
_cell_length_b   18.86723414
_cell_length_c   18.87210464
_cell_angle_alpha   89.99893662
_cell_angle_beta   90.02299309
_cell_angle_gamma   89.97966361
_symmetry_Int_Tables_number   1
_chemical_formula_structural   In2Te3
_chemical_formula_sum   'In72 Te108'
_cell_volume   6716.13422162
_cell_formula_units_Z   36
loop_
 _symmetry_equiv_pos_site_id
 _symmetry_equiv_pos_as_xyz
  1  'x, y, z'
loop_
 _atom_site_type_symbol
 _atom_site_label
 _atom_site_symmetry_multiplicity
 _atom_site_fract_x
 _atom_site_fract_y
 _atom_site_fract_z
 _atom_site_occupancy
  In  In0  1  0.83259694  0.00671080  0.50355783  1
  In  In1  1  0.50885902  0.32824357  0.50455744  1
  In  In2  1  0.36266222  0.68721403  0.69951359  1
  In  In3  1  0.50383879  0.00344763  0.15069811  1
  In  In4  1  0.67788166  0.00236306  0.32478384  1
  In  In5  1  0.02869501  0.67406499  0.30697242  1
  In  In6  1  -0.00529875  0.83530122  0.86731095  1
  In  In7  1  0.85103636  0.47768594  0.02802696  1
  In  In8  1  -0.02955991  0.35450258  0.30007383  1
  In  In9  1  0.00463300  0.30684861  0.66524499  1
  In  In10  1  0.33658015  0.50955533  0.85144732  1
  In  In11  1  0.32348858  0.86584322  0.88599000  1
  In  In12  1  0.85371969  0.63770163  0.51176638  1
  In  In13  1  0.17916766  0.15429832  -0.01965921  1
  In  In14  1  0.15793940  0.65557990  0.85693201  1
  In  In15  1  0.65239099  0.81182821  0.15941920  1
  In  In16  1  0.13800161  0.18792695  0.31652004  1
  In  In17  1  0.83375017  0.17277690  0.66927767  1
  In  In18  1  0.17723748  -0.02373092  0.15153248  1
  In  In19  1  0.48488831  0.33984251  0.16077157  1
  In  In20  1  0.02648737  0.81890613  0.15227116  1
  In  In21  1  0.18800766  0.14335314  0.69000039  1
  In  In22  1  0.17844173  0.63817099  0.12320283  1
  In  In23  1  0.68688511  0.68145780  0.67418772  1
  In  In24  1  -0.02075855  0.86116285  0.51108490  1
  In  In25  1  0.19990277  0.69348775  0.49619162  1
  In  In26  1  0.64542806  0.13054304  0.84369682  1
  In  In27  1  0.67356554  0.18049607  0.15829149  1
  In  In28  1  0.31159070  0.50169269  0.48801794  1
  In  In29  1  0.00607764  0.00726182  -0.00280157  1
  In  In30  1  0.49034641  0.71061733  0.50118977  1
  In  In31  1  0.65616572  0.65414611  0.30823517  1
  In  In32  1  0.80600520  0.82735221  0.69002693  1
  In  In33  1  0.82707054  0.32021883  0.50553398  1
  In  In34  1  0.67891612  0.50372237  0.15595738  1
  In  In35  1  0.34822776  0.01739572  0.33813140  1
  In  In36  1  0.65152631  0.64373939  0.01039236  1
  In  In37  1  -0.00133387  0.62684912  0.67771646  1
  In  In38  1  0.68890509  0.31800433  0.34158986  1
  In  In39  1  0.17965430  0.83979943  0.69890117  1
  In  In40  1  0.34538351  0.16405724  0.51275515  1
  In  In41  1  0.33351097  0.66201539  0.33229855  1
  In  In42  1  0.65568700  0.47433903  0.47830237  1
  In  In43  1  0.31418626  0.83922947  0.13192113  1
  In  In44  1  0.17704931  0.84216027  0.33572727  1
  In  In45  1  0.17243898  0.03667945  0.49221595  1
  In  In46  1  -0.02071418  0.48400371  0.85646717  1
  In  In47  1  0.48317298  0.13645576  0.69904128  1
  In  In48  1  0.82010540  0.82996304  -0.00841946  1
  In  In49  1  0.85301722  0.01017519  0.85471451  1
  In  In50  1  0.01615940  0.01809758  0.67997491  1
  In  In51  1  0.82064306  0.02279024  0.14994955  1
  In  In52  1  0.83080613  0.48456946  0.69881343  1
  In  In53  1  0.31401506  0.32595773  0.30610624  1
  In  In54  1  0.61817945  -0.00164194  0.70362942  1
  In  In55  1  0.14903252  0.31211388  0.83298741  1
  In  In56  1  0.34938669  0.16718647  0.16939613  1
  In  In57  1  0.15169235  0.36670093  0.14259375  1
  In  In58  1  0.15257423  0.34393356  0.50315351  1
  In  In59  1  0.85564100  0.15751510  0.33965605  1
  In  In60  1  0.49603064  0.50113288  0.65357943  1
  In  In61  1  0.65545498  0.32826158  -0.02067876  1
  In  In62  1  0.17051634  0.49598956  0.64678885  1
  In  In63  1  0.47994997  0.67873178  0.84360575  1
  In  In64  1  0.49726767  0.84316459  0.00574746  1
  In  In65  1  0.49604616  0.50730599  0.32096983  1
  In  In66  1  0.64914318  0.83994951  0.48028222  1
  In  In67  1  0.66417603  0.48582800  0.83296433  1
  In  In68  1  0.00284671  0.48075783  0.47173738  1
  In  In69  1  0.33147850  0.33457259  -0.01619744  1
  In  In70  1  0.50849952  0.32654974  0.83636556  1
  In  In71  1  0.83507735  0.81127061  0.34198310  1
  Te  Te72  1  0.09378772  0.08873395  0.09101290  1
  Te  Te73  1  0.07054306  0.08803664  0.40068560  1
  Te  Te74  1  0.07303820  0.11088068  0.77929295  1
  Te  Te75  1  0.05418881  0.45584396  0.06988596  1
  Te  Te76  1  0.09593082  0.40809704  0.37810756  1
  Te  Te77  1  0.07630524  0.42609566  0.74438053  1
  Te  Te78  1  0.11095892  0.75078639  0.05260692  1
  Te  Te79  1  0.07166571  0.76507731  0.42791864  1
  Te  Te80  1  0.07577088  0.73876549  0.75058921  1
  Te  Te81  1  0.41316008  0.08578298  0.06493056  1
  Te  Te82  1  0.44042833  0.08437916  0.43200280  1
  Te  Te83  1  0.38965072  0.05719304  0.78510580  1
  Te  Te84  1  0.38766512  0.42770566  0.08837711  1
  Te  Te85  1  0.41334949  0.41621338  0.41345387  1
  Te  Te86  1  0.41552598  0.42160262  0.75552435  1
  Te  Te87  1  0.42830078  0.75236487  0.09855320  1
  Te  Te88  1  0.39911310  0.77732422  0.40107535  1
  Te  Te89  1  0.42586335  0.80697947  0.76858384  1
  Te  Te90  1  0.74088288  0.10016454  0.05240602  1
  Te  Te91  1  0.74172071  0.09865725  0.42413493  1
  Te  Te92  1  0.75623652  0.06058269  0.74042789  1
  Te  Te93  1  0.74502798  0.38493683  0.08941172  1
  Te  Te94  1  0.77796783  0.42611435  0.40503474  1
  Te  Te95  1  0.74785562  0.38492643  0.76575539  1
  Te  Te96  1  0.75445912  0.72686075  0.08775799  1
  Te  Te97  1  0.74825357  0.72871497  0.43684642  1
  Te  Te98  1  0.75196897  0.73901609  0.79386500  1
  Te  Te99  1  0.05873086  0.26513186  0.21191776  1
  Te  Te100  1  0.10409050  0.22683003  0.58508182  1
  Te  Te101  1  0.07378558  0.26236537  0.95336740  1
  Te  Te102  1  0.08527560  0.56909627  0.21868572  1
  Te  Te103  1  0.08687822  0.58792047  0.55826824  1
  Te  Te104  1  0.07634542  0.56092234  0.94062360  1
  Te  Te105  1  0.07647031  0.92139636  0.25452518  1
  Te  Te106  1  0.09843380  0.92088005  0.58648444  1
  Te  Te107  1  0.09795922  0.92864985  0.91173261  1
  Te  Te108  1  0.43503265  0.24297592  0.27001526  1
  Te  Te109  1  0.42711712  0.25108523  0.60619955  1
  Te  Te110  1  0.42122096  0.23404804  0.91674414  1
  Te  Te111  1  0.42206788  0.59825780  0.23254247  1
  Te  Te112  1  0.40018754  0.59053206  0.57319099  1
  Te  Te113  1  0.39241726  0.61021114  0.94874942  1
  Te  Te114  1  0.40071220  0.92444527  0.23041206  1
  Te  Te115  1  0.45889115  0.85246224  0.53962382  1
  Te  Te116  1  0.44555576  0.95705143  0.91584806  1
  Te  Te117  1  0.78076619  0.25060170  0.24112961  1
  Te  Te118  1  0.73433434  0.23543619  0.57945545  1
  Te  Te119  1  0.73741831  0.22005462  0.91846857  1
  Te  Te120  1  0.76397416  0.57373619  0.25364423  1
  Te  Te121  1  0.74479756  0.56427219  0.58995777  1
  Te  Te122  1  0.75085868  0.55693077  0.93529174  1
  Te  Te123  1  0.75755061  0.90168831  0.24272825  1
  Te  Te124  1  0.74134552  0.91289798  0.57948652  1
  Te  Te125  1  0.74597997  0.92525534  0.90738846  1
  Te  Te126  1  0.24816033  0.25025361  0.08827331  1
  Te  Te127  1  0.24941087  0.24405948  0.41708313  1
  Te  Te128  1  0.26317992  0.25478444  0.75718226  1
  Te  Te129  1  0.28121271  0.56056159  0.04985217  1
  Te  Te130  1  0.22115996  0.57905547  0.39491919  1
  Te  Te131  1  0.24556474  0.58868520  0.74154818  1
  Te  Te132  1  0.26295891  0.94092219  0.03477115  1
  Te  Te133  1  0.25939321  0.92888742  0.42789150  1
  Te  Te134  1  0.24562395  0.94164253  0.78255098  1
  Te  Te135  1  0.56472528  0.24657418  0.07308236  1
  Te  Te136  1  0.59278134  0.24088975  0.42155898  1
  Te  Te137  1  0.59117958  0.23573929  0.74759423  1
  Te  Te138  1  0.56147704  0.58201009  0.11029580  1
  Te  Te139  1  0.56964972  0.59244338  0.43481253  1
  Te  Te140  1  0.57367686  0.59257172  0.74836193  1
  Te  Te141  1  0.60976731  0.92747040  0.07206024  1
  Te  Te142  1  0.56907054  0.93091598  0.39671575  1
  Te  Te143  1  0.56493416  0.88035292  0.76898361  1
  Te  Te144  1  0.93117955  0.25822659  0.01858542  1
  Te  Te145  1  0.93550113  0.25944625  0.41998196  1
  Te  Te146  1  0.93096953  0.23016586  0.76598786  1
  Te  Te147  1  0.94678037  0.56672378  0.10538661  1
  Te  Te148  1  0.92945737  0.58602601  0.39144267  1
  Te  Te149  1  0.89499562  0.59489098  0.78076616  1
  Te  Te150  1  0.91940820  0.91440069  0.08392039  1
  Te  Te151  1  0.91145684  0.93350370  0.39508102  1
  Te  Te152  1  0.92628086  0.91378810  0.74553115  1
  Te  Te153  1  0.24100185  0.08717465  0.25032505  1
  Te  Te154  1  0.27830665  0.05844320  0.60035141  1
  Te  Te155  1  0.28828790  0.13702314  0.87464889  1
  Te  Te156  1  0.25946950  0.43278792  0.22290232  1
  Te  Te157  1  0.26853756  0.39563073  0.58927463  1
  Te  Te158  1  0.22881977  0.41991529  0.91016932  1
  Te  Te159  1  0.23641302  0.74544443  0.23594073  1
  Te  Te160  1  0.27462750  0.77196630  0.60100451  1
  Te  Te161  1  0.25513596  0.74048598  0.92952109  1
  Te  Te162  1  0.58435669  0.09336067  0.24485971  1
  Te  Te163  1  0.55202369  0.06152687  0.58878448  1
  Te  Te164  1  0.53105298  0.08655194  0.92594133  1
  Te  Te165  1  0.59083727  0.40713100  0.25614425  1
  Te  Te166  1  0.60186197  0.40473644  0.60172349  1
  Te  Te167  1  0.55762515  0.43666227  0.93097427  1
  Te  Te168  1  0.57178775  0.76751725  0.27418312  1
  Te  Te169  1  0.58013266  0.77712799  0.61453253  1
  Te  Te170  1  0.58882060  0.75084255  0.92319269  1
  Te  Te171  1  0.92256744  0.09952494  0.22149901  1
  Te  Te172  1  0.93055622  0.09448273  0.57860450  1
  Te  Te173  1  0.91321744  0.11473289  0.94545563  1
  Te  Te174  1  0.91319532  0.44094449  0.19371402  1
  Te  Te175  1  0.92425662  0.42156162  0.58827201  1
  Te  Te176  1  0.89544689  0.37737244  0.92060807  1
  Te  Te177  1  0.91666892  0.74478212  0.23139551  1
  Te  Te178  1  0.91487948  0.74934655  0.59604341  1
  Te  Te179  1  0.92359939  0.73476267  0.94476925  1
