# generated using pymatgen
data_In2Te3
_symmetry_space_group_name_H-M   'P 1'
_cell_length_a   18.78340007
_cell_length_b   18.77718628
_cell_length_c   18.77962336
_cell_angle_alpha   89.91371792
_cell_angle_beta   90.04177635
_cell_angle_gamma   89.94607827
_symmetry_Int_Tables_number   1
_chemical_formula_structural   In2Te3
_chemical_formula_sum   'In72 Te108'
_cell_volume   6623.54972009
_cell_formula_units_Z   36
loop_
 _symmetry_equiv_pos_site_id
 _symmetry_equiv_pos_as_xyz
  1  'x, y, z'
loop_
 _atom_site_type_symbol
 _atom_site_label
 _atom_site_symmetry_multiplicity
 _atom_site_fract_x
 _atom_site_fract_y
 _atom_site_fract_z
 _atom_site_occupancy
  In  In0  1  0.49991817  0.83680706  0.67868250  1
  In  In1  1  0.67886359  0.04290158  0.65296574  1
  In  In2  1  -0.01110435  0.67887143  0.01106069  1
  In  In3  1  0.32391623  0.01283593  0.67612277  1
  In  In4  1  0.33412784  0.84190516  0.82435004  1
  In  In5  1  0.01655628  0.50576507  0.51123757  1
  In  In6  1  0.49524150  0.17432073  -0.00072045  1
  In  In7  1  -0.00133666  0.32385547  0.67751417  1
  In  In8  1  0.83731020  0.67325693  0.50773306  1
  In  In9  1  0.31557640  0.17757577  0.84494835  1
  In  In10  1  -0.01417847  0.00713416  0.33427265  1
  In  In11  1  0.67724046  0.84133988  0.50676437  1
  In  In12  1  0.50190088  0.48622439  -0.03084149  1
  In  In13  1  0.31800762  0.68798006  0.33400436  1
  In  In14  1  0.49353254  0.49404047  0.36167090  1
  In  In15  1  0.29962624  0.80308869  0.51970268  1
  In  In16  1  0.50660262  0.01127843  0.50578279  1
  In  In17  1  0.16093381  0.15707369  0.01554230  1
  In  In18  1  0.00493229  0.15225262  0.15604541  1
  In  In19  1  0.66369512  0.31321430  0.66440924  1
  In  In20  1  0.49763892  0.84749851  -0.00508279  1
  In  In21  1  0.47483294  0.66443041  0.83450517  1
  In  In22  1  0.83947772  0.48767377  0.00846914  1
  In  In23  1  -0.00735506  0.84584962  0.17197618  1
  In  In24  1  0.64474342  0.46230582  0.82168097  1
  In  In25  1  0.68715585  0.66828875  0.66667650  1
  In  In26  1  0.16494507  0.33893478  0.81152040  1
  In  In27  1  0.00364975  0.48535086  0.85080196  1
  In  In28  1  0.35686958  0.31133805  0.65743611  1
  In  In29  1  0.84883103  0.49984635  0.65441112  1
  In  In30  1  0.50015395  0.68279195  0.15668444  1
  In  In31  1  -0.00245365  0.00293516  0.65071016  1
  In  In32  1  0.66393286  0.64741231  0.34536181  1
  In  In33  1  0.84358315  0.68180051  0.86663055  1
  In  In34  1  0.83287657  0.47716382  0.33448260  1
  In  In35  1  0.17229605  0.49300655  0.32441048  1
  In  In36  1  0.16252037  0.68864009  0.17516806  1
  In  In37  1  0.51772457  0.15256638  0.34967880  1
  In  In38  1  0.16479769  0.00679099  0.50309639  1
  In  In39  1  0.81716420  0.17557375  -0.02072306  1
  In  In40  1  0.01939161  0.68806298  0.33771440  1
  In  In41  1  0.32757005  0.50869530  0.49984319  1
  In  In42  1  0.66732114  0.02329198  0.01194255  1
  In  In43  1  0.66647158  0.16359202  0.50400346  1
  In  In44  1  0.14043335  -0.02186853  0.84542676  1
  In  In45  1  0.01152715  0.33869734  0.00123336  1
  In  In46  1  0.85517694  0.84554003  0.00683194  1
  In  In47  1  0.33203858  0.35474713  0.34014907  1
  In  In48  1  0.16594440  0.16547007  0.33043553  1
  In  In49  1  0.48593828  0.47762619  0.66641818  1
  In  In50  1  0.34550306  0.67400140  -0.02349395  1
  In  In51  1  -0.04654824  0.28927792  0.34589176  1
  In  In52  1  0.47063066  0.83975656  0.32491303  1
  In  In53  1  0.84842352  0.00039018  0.49928800  1
  In  In54  1  0.49064941  0.00478839  0.84697502  1
  In  In55  1  0.67156083  0.00646099  0.29808100  1
  In  In56  1  -0.01229849  0.14873320  0.81908455  1
  In  In57  1  0.15258693  0.33558752  0.51668017  1
  In  In58  1  0.70785599  0.30702184  0.31747863  1
  In  In59  1  0.69211171  0.84305259  0.15996091  1
  In  In60  1  0.50434051  0.32617587  0.16133455  1
  In  In61  1  0.67258839  0.66112433  0.01281089  1
  In  In62  1  0.14098384  0.84096735  0.35052290  1
  In  In63  1  0.68341171  0.82029419  0.81002866  1
  In  In64  1  0.82452954  0.00824596  0.82836007  1
  In  In65  1  0.33138881  0.17714675  0.14694063  1
  In  In66  1  0.33786193  0.49656432  0.16169766  1
  In  In67  1  0.16928784  0.47943037  -0.00089931  1
  In  In68  1  0.69007476  0.48244625  0.17030794  1
  In  In69  1  0.00391597  0.67759827  0.66013519  1
  In  In70  1  0.17517970  0.66476637  0.80514307  1
  In  In71  1  0.34142819  0.01876343  0.32464358  1
  Te  Te72  1  0.07915590  0.05000401  0.07661499  1
  Te  Te73  1  0.06889573  0.09790825  0.42581010  1
  Te  Te74  1  0.09751551  0.08061981  0.74026072  1
  Te  Te75  1  0.06857811  0.43624520  0.09625667  1
  Te  Te76  1  0.07260308  0.40786103  0.40350972  1
  Te  Te77  1  0.08514703  0.44086402  0.73066174  1
  Te  Te78  1  0.09210028  0.77720929  0.07200792  1
  Te  Te79  1  0.08324327  0.75362798  0.45539822  1
  Te  Te80  1  0.08186705  0.76581909  0.75057170  1
  Te  Te81  1  0.41247326  0.07721279  0.07440784  1
  Te  Te82  1  0.40110391  0.10372911  0.43813620  1
  Te  Te83  1  0.41838520  0.10215002  0.75571090  1
  Te  Te84  1  0.41216953  0.40469359  0.06689806  1
  Te  Te85  1  0.42471133  0.39469590  0.45363878  1
  Te  Te86  1  0.43712615  0.37714918  0.76522961  1
  Te  Te87  1  0.39135479  0.77399049  0.09151926  1
  Te  Te88  1  0.41751095  0.74716561  0.43461381  1
  Te  Te89  1  0.39461858  0.73812631  0.72768658  1
  Te  Te90  1  0.75994390  0.10174595  0.09894626  1
  Te  Te91  1  0.74879927  0.07718943  0.41000916  1
  Te  Te92  1  0.77407337  0.11916593  0.74023100  1
  Te  Te93  1  0.75214307  0.38865890  0.07723507  1
  Te  Te94  1  0.73328658  0.41068780  0.41998358  1
  Te  Te95  1  0.76318214  0.41035307  0.74323887  1
  Te  Te96  1  0.77737332  0.73736022  0.08943859  1
  Te  Te97  1  0.75464210  0.75594365  0.40755724  1
  Te  Te98  1  0.79520990  0.75158010  0.73519219  1
  Te  Te99  1  0.07339062  0.25372926  0.24877512  1
  Te  Te100  1  0.07261591  0.23312700  0.58667027  1
  Te  Te101  1  0.08451531  0.24301669  0.90230895  1
  Te  Te102  1  0.07697755  0.58082103  0.24276410  1
  Te  Te103  1  0.10771779  0.58942621  0.59442592  1
  Te  Te104  1  0.08395389  0.59349159  0.92386839  1
  Te  Te105  1  0.09115997  0.93917703  0.24687671  1
  Te  Te106  1  0.08437658  0.90638412  0.57517087  1
  Te  Te107  1  0.06298534  0.89680632  0.94056301  1
  Te  Te108  1  0.41437216  0.24787213  0.26519627  1
  Te  Te109  1  0.43827485  0.22524690  0.57024913  1
  Te  Te110  1  0.41996119  0.26431020  0.90569368  1
  Te  Te111  1  0.41254085  0.58910602  0.26036101  1
  Te  Te112  1  0.42565928  0.58432783  0.58155824  1
  Te  Te113  1  0.38709974  0.55364616  0.88979122  1
  Te  Te114  1  0.42339275  0.94062541  0.22840186  1
  Te  Te115  1  0.41075817  0.91537463  0.58147679  1
  Te  Te116  1  0.38768555  0.93418699  0.93479109  1
  Te  Te117  1  0.77540352  0.20283332  0.23792920  1
  Te  Te118  1  0.76878884  0.25356087  0.56896471  1
  Te  Te119  1  0.71635401  0.25456860  0.89895001  1
  Te  Te120  1  0.76442076  0.58900225  0.24751744  1
  Te  Te121  1  0.74325915  0.56771004  0.56665419  1
  Te  Te122  1  0.74110849  0.57329791  0.90793094  1
  Te  Te123  1  0.78217971  0.92324681  0.24523078  1
  Te  Te124  1  0.76086545  0.92330362  0.60282574  1
  Te  Te125  1  0.73370924  0.90681466  0.92591031  1
  Te  Te126  1  0.24166722  0.26668913  0.07050953  1
  Te  Te127  1  0.24632719  0.25770303  0.42200269  1
  Te  Te128  1  0.23929418  0.23785292  0.72679303  1
  Te  Te129  1  0.25311310  0.59856223  0.08394257  1
  Te  Te130  1  0.22958293  0.59739641  0.41867109  1
  Te  Te131  1  0.27077042  0.59649097  0.71683446  1
  Te  Te132  1  0.26899584  0.86483983  0.10455082  1
  Te  Te133  1  0.26740440  0.91646222  0.41652934  1
  Te  Te134  1  0.22948994  0.90914414  0.73605529  1
  Te  Te135  1  0.59358049  0.22569894  0.10041190  1
  Te  Te136  1  0.59394623  0.26528102  0.41471181  1
  Te  Te137  1  0.61903519  0.23080301  0.78038383  1
  Te  Te138  1  0.57171892  0.56523342  0.08608580  1
  Te  Te139  1  0.57293799  0.58727798  0.44364984  1
  Te  Te140  1  0.58714523  0.59310005  0.75644815  1
  Te  Te141  1  0.58127367  0.92654144  0.09426108  1
  Te  Te142  1  0.58447868  0.91988140  0.40981471  1
  Te  Te143  1  0.59322932  0.93531120  0.74669931  1
  Te  Te144  1  0.91569417  0.24819775  0.07594405  1
  Te  Te145  1  0.87897900  0.22657111  0.45769731  1
  Te  Te146  1  0.89617680  0.24748755  0.75597440  1
  Te  Te147  1  0.91593121  0.58096384  0.09402762  1
  Te  Te148  1  0.92226112  0.58084584  0.41568710  1
  Te  Te149  1  0.91834885  0.58441568  0.76390495  1
  Te  Te150  1  0.90591553  0.94619751  0.10162397  1
  Te  Te151  1  0.92313993  0.90186243  0.41764030  1
  Te  Te152  1  0.91684809  0.92467006  0.74944059  1
  Te  Te153  1  0.24034952  0.08087989  0.22814065  1
  Te  Te154  1  0.25323575  0.09824356  0.57839259  1
  Te  Te155  1  0.24203455  0.06784526  0.92121534  1
  Te  Te156  1  0.23984249  0.39785014  0.22555335  1
  Te  Te157  1  0.25594669  0.41382200  0.59617140  1
  Te  Te158  1  0.25506717  0.41808949  0.89746539  1
  Te  Te159  1  0.25390367  0.79799113  0.24310177  1
  Te  Te160  1  0.23212730  0.70542789  0.61109073  1
  Te  Te161  1  0.23892559  0.75940461  0.91041281  1
  Te  Te162  1  0.57346809  0.09189415  0.22726916  1
  Te  Te163  1  0.54939073  0.12235203  0.60732127  1
  Te  Te164  1  0.60122818  0.09675200  0.89602070  1
  Te  Te165  1  0.58104654  0.41911900  0.25913368  1
  Te  Te166  1  0.59321120  0.41692880  0.58537055  1
  Te  Te167  1  0.60450690  0.37933452  0.93958737  1
  Te  Te168  1  0.58994479  0.75949242  0.25414539  1
  Te  Te169  1  0.58430876  0.74952503  0.58593063  1
  Te  Te170  1  0.58290273  0.74726355  0.91393629  1
  Te  Te171  1  0.90183939  0.11246294  0.26269665  1
  Te  Te172  1  0.91729353  0.10879771  0.57708436  1
  Te  Te173  1  0.91987575  0.07047369  0.93034362  1
  Te  Te174  1  0.90620751  0.38597725  0.24473382  1
  Te  Te175  1  0.91999532  0.40114101  0.56420863  1
  Te  Te176  1  0.90091544  0.39040114  0.90569402  1
  Te  Te177  1  0.91487729  0.75624769  0.25992694  1
  Te  Te178  1  0.93220311  0.77049235  0.56612690  1
  Te  Te179  1  0.95196610  0.79117053  0.89798372  1
