# generated using pymatgen
data_In2Te3
_symmetry_space_group_name_H-M   'P 1'
_cell_length_a   18.96929946
_cell_length_b   18.96115405
_cell_length_c   18.98138930
_cell_angle_alpha   90.04047949
_cell_angle_beta   90.10598140
_cell_angle_gamma   89.96787572
_symmetry_Int_Tables_number   1
_chemical_formula_structural   In2Te3
_chemical_formula_sum   'In72 Te108'
_cell_volume   6827.20803293
_cell_formula_units_Z   36
loop_
 _symmetry_equiv_pos_site_id
 _symmetry_equiv_pos_as_xyz
  1  'x, y, z'
loop_
 _atom_site_type_symbol
 _atom_site_label
 _atom_site_symmetry_multiplicity
 _atom_site_fract_x
 _atom_site_fract_y
 _atom_site_fract_z
 _atom_site_occupancy
  In  In0  1  -0.02081379  0.12479617  0.15729031  1
  In  In1  1  0.66906485  0.49401284  0.18032068  1
  In  In2  1  -0.00213675  0.32912965  -0.00368385  1
  In  In3  1  0.45509706  0.02237628  0.92821090  1
  In  In4  1  0.32651110  0.66928248  -0.00616497  1
  In  In5  1  0.68087853  0.71992600  0.66159092  1
  In  In6  1  0.86648826  0.15432310  0.65592750  1
  In  In7  1  0.65409149  0.83620816  0.50831983  1
  In  In8  1  0.85063332  -0.00723287  0.84532302  1
  In  In9  1  0.48148876  -0.02046758  0.15705120  1
  In  In10  1  0.03799927  0.85653177  0.51894789  1
  In  In11  1  0.17848201  0.35498924  0.51423376  1
  In  In12  1  0.65286073  0.48005719  0.83096853  1
  In  In13  1  0.65405085  0.14644439  0.47787441  1
  In  In14  1  0.48894427  0.66711955  0.83271620  1
  In  In15  1  0.49257558  0.01562510  0.49579440  1
  In  In16  1  0.47440761  0.32676971  0.85627661  1
  In  In17  1  0.31617440  0.16119750  0.13727697  1
  In  In18  1  0.63315042  0.14748181  0.83669732  1
  In  In19  1  0.32772931  0.67573586  0.66433040  1
  In  In20  1  0.19036628  0.15497826  0.65866132  1
  In  In21  1  0.49246453  0.52905769  0.66735640  1
  In  In22  1  -0.01682582  -0.01040868  0.03214954  1
  In  In23  1  0.32198795  -0.01704491  0.67933760  1
  In  In24  1  0.67387001  0.84440381  0.15820449  1
  In  In25  1  0.17155245  -0.00522529  0.13778519  1
  In  In26  1  0.16045458  0.50367280  -0.01300008  1
  In  In27  1  0.17994114  0.84033607  0.33824309  1
  In  In28  1  0.01019148  0.34638209  0.33579179  1
  In  In29  1  0.48847223  0.66054382  0.18363993  1
  In  In30  1  0.67109181  0.17179062  0.16776447  1
  In  In31  1  -0.00001941  0.67214366  -0.01049859  1
  In  In32  1  0.16520379  0.52809041  0.34888184  1
  In  In33  1  0.45028923  0.17249890  0.66980988  1
  In  In34  1  0.68141809  -0.01122707  0.31849327  1
  In  In35  1  0.66761513  0.49952613  0.48141217  1
  In  In36  1  -0.03109147  0.66611645  0.33182061  1
  In  In37  1  0.01910406  0.67110999  0.66634997  1
  In  In38  1  0.16044860  0.15330070  0.30418110  1
  In  In39  1  0.17406966  0.83204753  -0.02368956  1
  In  In40  1  0.86878376  0.52482530  0.65497406  1
  In  In41  1  0.82003553  0.66373580  0.48179122  1
  In  In42  1  0.29923546  0.12631782  0.84397505  1
  In  In43  1  0.16825705  0.36482368  0.78578653  1
  In  In44  1  0.84348723  0.32006681  0.84691036  1
  In  In45  1  0.03828353  0.16285854  0.82603820  1
  In  In46  1  0.67557468  -0.00064796  0.67666508  1
  In  In47  1  0.00301407  0.82349747  0.82476757  1
  In  In48  1  0.36015646  0.81469576  0.47582191  1
  In  In49  1  0.83104954  0.48429217  0.00854359  1
  In  In50  1  0.68151209  0.32576035  0.67345990  1
  In  In51  1  0.00087142  -0.00839194  0.33487055  1
  In  In52  1  0.83302793  0.67800303  0.16422078  1
  In  In53  1  0.33248150  0.52104277  0.81860123  1
  In  In54  1  0.02120476  0.16736039  0.49788096  1
  In  In55  1  0.16339739  0.65851737  0.51356549  1
  In  In56  1  0.50678387  0.33285999  0.15781872  1
  In  In57  1  0.65430184  0.65481508  0.00520202  1
  In  In58  1  0.80289886  0.15960931  -0.00831090  1
  In  In59  1  0.16265831  0.68867640  0.17710197  1
  In  In60  1  0.32720377  0.33979857  0.35017998  1
  In  In61  1  0.82884373  0.33393893  0.19132571  1
  In  In62  1  0.50499151  0.80081607  0.66999033  1
  In  In63  1  0.66061756  0.67097705  0.32894190  1
  In  In64  1  0.49010949  0.33198056  0.50899935  1
  In  In65  1  0.67945343  0.84753584  0.85752944  1
  In  In66  1  0.31894077  0.82963571  0.17007196  1
  In  In67  1  0.49172125  0.17557661  0.33511255  1
  In  In68  1  0.83584281  0.35173555  0.50860772  1
  In  In69  1  0.83628688  0.82898335  0.66196099  1
  In  In70  1  0.34174768  0.48176330  0.16983305  1
  In  In71  1  0.17112378  0.32508533  0.14410701  1
  Te  Te72  1  0.09593228  0.10114418  0.05962344  1
  Te  Te73  1  0.10514058  0.06871840  0.41597067  1
  Te  Te74  1  0.08695906  0.06689365  0.72330065  1
  Te  Te75  1  0.07388126  0.42630660  0.08460881  1
  Te  Te76  1  0.07822335  0.43871382  0.43534151  1
  Te  Te77  1  0.06715589  0.43854626  0.70850348  1
  Te  Te78  1  0.08275549  0.76955421  0.07980851  1
  Te  Te79  1  0.08717906  0.74389599  0.41109469  1
  Te  Te80  1  0.10822288  0.77208626  0.73282758  1
  Te  Te81  1  0.42673671  0.08734262  0.06631009  1
  Te  Te82  1  0.40068773  0.10987782  0.43108086  1
  Te  Te83  1  0.42364764  0.06082440  0.76744515  1
  Te  Te84  1  0.39797195  0.38892467  0.07301691  1
  Te  Te85  1  0.42290248  0.42565764  0.41885778  1
  Te  Te86  1  0.42207569  0.42123982  0.74711320  1
  Te  Te87  1  0.41485086  0.75296401  0.08364455  1
  Te  Te88  1  0.47416676  0.73818580  0.42700142  1
  Te  Te89  1  0.39457609  0.76601790  0.76902158  1
  Te  Te90  1  0.75669452  0.07327856  0.09879059  1
  Te  Te91  1  0.75939878  0.06989730  0.41329042  1
  Te  Te92  1  0.76275370  0.09769648  0.76115958  1
  Te  Te93  1  0.73690647  0.39657837  0.08517327  1
  Te  Te94  1  0.76011360  0.41898348  0.40371547  1
  Te  Te95  1  0.77349702  0.42121240  0.74578480  1
  Te  Te96  1  0.75242761  0.75440435  0.06237062  1
  Te  Te97  1  0.74682252  0.77076500  0.40526594  1
  Te  Te98  1  0.77076670  0.75589968  0.77849521  1
  Te  Te99  1  0.06548140  0.24202769  0.22576286  1
  Te  Te100  1  0.09512724  0.25619889  0.59494325  1
  Te  Te101  1  0.10184715  0.27858734  0.89918650  1
  Te  Te102  1  0.07183523  0.59032207  0.24657725  1
  Te  Te103  1  0.10768926  0.55648539  0.61397894  1
  Te  Te104  1  0.08782433  0.59538720  0.89836954  1
  Te  Te105  1  0.09376612  0.91549018  0.23768265  1
  Te  Te106  1  0.11893333  0.93567470  0.61417910  1
  Te  Te107  1  0.06634714  0.92550237  0.92240242  1
  Te  Te108  1  0.39134975  0.24820169  0.24516356  1
  Te  Te109  1  0.37239932  0.27295980  0.58298407  1
  Te  Te110  1  0.41391410  0.20376099  0.91006886  1
  Te  Te111  1  0.39540323  0.57959291  0.26302553  1
  Te  Te112  1  0.39776249  0.58407726  0.57065472  1
  Te  Te113  1  0.42429517  0.57165341  0.92949754  1
  Te  Te114  1  0.39851032  0.91357136  0.25968094  1
  Te  Te115  1  0.43291702  0.90954219  0.59165896  1
  Te  Te116  1  0.37175352  0.90389023  0.91948369  1
  Te  Te117  1  0.74037337  0.24991528  0.27036164  1
  Te  Te118  1  0.75302612  0.23255713  0.57874862  1
  Te  Te119  1  0.72125423  0.25550181  0.90622686  1
  Te  Te120  1  0.76295467  0.58335931  0.25943704  1
  Te  Te121  1  0.74164005  0.59127590  0.59041541  1
  Te  Te122  1  0.74380038  0.56948515  0.91744744  1
  Te  Te123  1  0.78360804  0.91764542  0.23154320  1
  Te  Te124  1  0.75796193  0.92692845  0.57389489  1
  Te  Te125  1  0.76085341  0.93467440  0.94479612  1
  Te  Te126  1  0.26275524  0.26531872  0.04719258  1
  Te  Te127  1  0.22020886  0.24954510  0.40663932  1
  Te  Te128  1  0.26062606  0.24525769  0.75832093  1
  Te  Te129  1  0.24306243  0.58560360  0.09453451  1
  Te  Te130  1  0.26652571  0.57868983  0.44360970  1
  Te  Te131  1  0.23332452  0.57668002  0.72401485  1
  Te  Te132  1  0.27519796  0.94572973  0.02997682  1
  Te  Te133  1  0.27125152  0.91799984  0.42214057  1
  Te  Te134  1  0.20691905  0.91291963  0.73950410  1
  Te  Te135  1  0.57819126  0.23544787  0.07565885  1
  Te  Te136  1  0.58750627  0.26504619  0.41242189  1
  Te  Te137  1  0.56696153  0.25306418  0.74121738  1
  Te  Te138  1  0.56778028  0.56819425  0.09275809  1
  Te  Te139  1  0.57157131  0.58177433  0.40602916  1
  Te  Te140  1  0.59940881  0.60424956  0.74934318  1
  Te  Te141  1  0.57146459  0.90296618  0.06994397  1
  Te  Te142  1  0.57590564  0.92312620  0.41188323  1
  Te  Te143  1  0.58615027  0.90404769  0.75155997  1
  Te  Te144  1  0.90182879  0.24517785  0.07732646  1
  Te  Te145  1  0.92466559  0.25822595  0.42328602  1
  Te  Te146  1  0.93677415  0.24971277  0.75065378  1
  Te  Te147  1  0.91855243  0.58194817  0.08332125  1
  Te  Te148  1  0.92919696  0.57585298  0.44000885  1
  Te  Te149  1  0.91827147  0.61562311  0.75705653  1
  Te  Te150  1  0.90764809  0.91691699  0.13572306  1
  Te  Te151  1  0.93204012  0.89993213  0.42740364  1
  Te  Te152  1  0.92687700  0.92602346  0.73417331  1
  Te  Te153  1  0.26327097  0.06262728  0.23996866  1
  Te  Te154  1  0.28185015  0.07725027  0.57247361  1
  Te  Te155  1  0.21155072  0.06151141  0.94112906  1
  Te  Te156  1  0.22286137  0.41371316  0.25688201  1
  Te  Te157  1  0.28570601  0.39515226  0.60423044  1
  Te  Te158  1  0.25342857  0.42178164  0.90116406  1
  Te  Te159  1  0.26995311  0.73236322  0.27465176  1
  Te  Te160  1  0.25110649  0.76780620  0.57148588  1
  Te  Te161  1  0.22327240  0.71607238  0.89950080  1
  Te  Te162  1  0.56783363  0.07312832  0.25434249  1
  Te  Te163  1  0.58084854  0.09378959  0.60200494  1
  Te  Te164  1  0.60311364  0.03517779  0.92570488  1
  Te  Te165  1  0.56944604  0.41987780  0.25662188  1
  Te  Te166  1  0.59105558  0.42111739  0.59553715  1
  Te  Te167  1  0.57148847  0.40981221  0.92815237  1
  Te  Te168  1  0.57752902  0.76666618  0.24665095  1
  Te  Te169  1  0.56207183  0.71778437  0.55323370  1
  Te  Te170  1  0.57458814  0.75382137  0.92184767  1
  Te  Te171  1  0.91277046  0.09854934  0.28369933  1
  Te  Te172  1  0.93719415  0.06653642  0.56500224  1
  Te  Te173  1  0.93029555  0.10088414  0.91979284  1
  Te  Te174  1  0.92769700  0.42637905  0.24565143  1
  Te  Te175  1  0.93851008  0.40550193  0.60227144  1
  Te  Te176  1  0.92970613  0.43047400  0.90467642  1
  Te  Te177  1  0.92679024  0.76935740  0.23404326  1
  Te  Te178  1  0.92183973  0.74778592  0.56713956  1
  Te  Te179  1  0.91630153  0.77984911  0.93464336  1
