# generated using pymatgen
data_In2Te3
_symmetry_space_group_name_H-M   'P 1'
_cell_length_a   18.78722830
_cell_length_b   18.78535988
_cell_length_c   18.78457450
_cell_angle_alpha   89.93758996
_cell_angle_beta   89.96176796
_cell_angle_gamma   90.07146079
_symmetry_Int_Tables_number   1
_chemical_formula_structural   In2Te3
_chemical_formula_sum   'In72 Te108'
_cell_volume   6629.53246842
_cell_formula_units_Z   36
loop_
 _symmetry_equiv_pos_site_id
 _symmetry_equiv_pos_as_xyz
  1  'x, y, z'
loop_
 _atom_site_type_symbol
 _atom_site_label
 _atom_site_symmetry_multiplicity
 _atom_site_fract_x
 _atom_site_fract_y
 _atom_site_fract_z
 _atom_site_occupancy
  In  In0  1  0.68504469  0.65034863  -0.00000273  1
  In  In1  1  0.02499364  -0.01375502  0.65969828  1
  In  In2  1  0.47248785  -0.00542681  0.81057343  1
  In  In3  1  0.33400695  0.49210872  0.50404331  1
  In  In4  1  0.63835682  0.00576284  0.65962281  1
  In  In5  1  0.51160395  0.64401152  0.82420270  1
  In  In6  1  0.33479142  0.83023907  0.47226091  1
  In  In7  1  0.66138697  0.67618478  0.33255727  1
  In  In8  1  0.00083399  0.17164468  0.82556266  1
  In  In9  1  0.17787710  0.82867145  0.01122410  1
  In  In10  1  0.31082222  0.84185001  0.17778006  1
  In  In11  1  0.47593120  0.33048488  0.16594295  1
  In  In12  1  0.82526661  0.65374632  0.84123863  1
  In  In13  1  0.67466812  0.34794637  -0.01933160  1
  In  In14  1  0.81317681  0.17158993  0.32586936  1
  In  In15  1  0.18393581  0.15241355  0.33672210  1
  In  In16  1  -0.00233632  -0.00761503  0.01730791  1
  In  In17  1  0.81967083  0.34035455  0.50502573  1
  In  In18  1  0.31885035  0.65707836  0.00575408  1
  In  In19  1  0.49443241  0.01915387  0.48414245  1
  In  In20  1  0.17073410  0.66061872  0.48913366  1
  In  In21  1  -0.00325383  0.16402345  0.15722732  1
  In  In22  1  0.18793238  0.00565591  0.84385841  1
  In  In23  1  0.33963303  0.83544733  0.84925744  1
  In  In24  1  0.33209468  0.34059850  0.32431273  1
  In  In25  1  0.82490278  0.82724106  0.31750643  1
  In  In26  1  0.50224717  0.83331486  -0.00563949  1
  In  In27  1  0.03007707  0.83328863  0.50496555  1
  In  In28  1  0.32663418  0.63480700  0.66006527  1
  In  In29  1  0.03918264  0.17757741  0.47890259  1
  In  In30  1  0.17099813  0.65888980  0.17301386  1
  In  In31  1  0.83758431  0.00998723  0.86256933  1
  In  In32  1  0.85403823  0.67233253  0.16102309  1
  In  In33  1  0.50446960  0.65652229  0.18938782  1
  In  In34  1  0.00459323  0.80747855  0.82086347  1
  In  In35  1  0.83791778  -0.00107548  0.49786128  1
  In  In36  1  0.17464861  0.33637972  0.52657901  1
  In  In37  1  0.67421983  0.01006960  0.00595071  1
  In  In38  1  0.01098445  0.49591100  0.83829776  1
  In  In39  1  0.65792567  0.18959880  0.84589007  1
  In  In40  1  -0.00483318  0.50661446  0.16291378  1
  In  In41  1  0.03021902  -0.01145559  0.30812697  1
  In  In42  1  0.66254636  0.48731099  0.51370656  1
  In  In43  1  0.00674644  0.48860001  0.49573307  1
  In  In44  1  0.67789215  0.38299453  0.70149240  1
  In  In45  1  0.67277095  0.15578048  0.16468269  1
  In  In46  1  0.49702211  0.01419864  0.16219494  1
  In  In47  1  0.48839441  0.34471915  0.82562994  1
  In  In48  1  -0.00669732  0.32983352  -0.00785880  1
  In  In49  1  0.00479144  0.36029824  0.34041234  1
  In  In50  1  0.84298571  0.16672344  0.67615827  1
  In  In51  1  0.83695155  0.49775041  0.34610100  1
  In  In52  1  0.65676123  0.49198690  0.15161375  1
  In  In53  1  0.65649386  -0.01132291  0.32772793  1
  In  In54  1  0.16391356  0.34524721  0.17044872  1
  In  In55  1  0.67390846  0.63098219  0.67439120  1
  In  In56  1  0.32999079  0.35212140  0.00849445  1
  In  In57  1  0.32641863  0.48729878  0.82643211  1
  In  In58  1  0.83556480  0.84510423  0.02527507  1
  In  In59  1  0.31932007  0.04443819  0.66981333  1
  In  In60  1  0.67720566  0.83529194  0.49038511  1
  In  In61  1  0.85459641  0.80265417  0.67548322  1
  In  In62  1  0.02380945  0.66111025  0.66174022  1
  In  In63  1  0.46860228  0.67144895  0.49672603  1
  In  In64  1  0.47886372  0.17175747  -0.00186547  1
  In  In65  1  0.02104597  0.65117066  0.01412257  1
  In  In66  1  0.49874240  0.83836774  0.65540100  1
  In  In67  1  0.33502575  0.00677676  0.33989692  1
  In  In68  1  0.16456683  0.17651986  -0.00320378  1
  In  In69  1  0.47595220  0.49129561  0.33171357  1
  In  In70  1  -0.00292190  0.35775220  0.68083222  1
  In  In71  1  0.62947284  0.20443470  0.48180039  1
  Te  Te72  1  0.10202433  0.07458504  0.09328238  1
  Te  Te73  1  0.10410535  0.05179932  0.42686170  1
  Te  Te74  1  0.09964490  0.08718728  0.74666148  1
  Te  Te75  1  0.08532864  0.42664942  0.06846874  1
  Te  Te76  1  0.12004170  0.42599855  0.41211603  1
  Te  Te77  1  0.10861522  0.41728521  0.75608118  1
  Te  Te78  1  0.06995239  0.76668152  0.09991254  1
  Te  Te79  1  0.10353439  0.75932852  0.39851225  1
  Te  Te80  1  0.10702841  0.76538127  0.72549324  1
  Te  Te81  1  0.39470950  0.09264542  0.08977868  1
  Te  Te82  1  0.41542926  0.11634845  0.40522978  1
  Te  Te83  1  0.42163247  0.12150367  0.75025144  1
  Te  Te84  1  0.41397064  0.44118585  0.09117608  1
  Te  Te85  1  0.43457366  0.38640828  0.44289092  1
  Te  Te86  1  0.39241036  0.39877385  0.72287549  1
  Te  Te87  1  0.40896645  0.75222094  0.08567321  1
  Te  Te88  1  0.41934594  0.74849456  0.38241326  1
  Te  Te89  1  0.41672254  0.74599762  0.74838264  1
  Te  Te90  1  0.77381172  0.08061706  0.08762895  1
  Te  Te91  1  0.72931986  0.08444242  0.43317315  1
  Te  Te92  1  0.74332713  0.07815306  0.75443590  1
  Te  Te93  1  0.76161735  0.42342612  0.07504063  1
  Te  Te94  1  0.72858055  0.40373986  0.40176622  1
  Te  Te95  1  0.77620389  0.43425763  0.79825431  1
  Te  Te96  1  0.73852052  0.75190780  0.09959027  1
  Te  Te97  1  0.76775485  0.73227660  0.42695604  1
  Te  Te98  1  0.73799433  0.74695321  0.75442308  1
  Te  Te99  1  0.07865639  0.24754941  0.26494427  1
  Te  Te100  1  0.07783545  0.24837718  0.60691374  1
  Te  Te101  1  0.09743405  0.26787573  0.89457655  1
  Te  Te102  1  0.07112257  0.58713102  0.26040686  1
  Te  Te103  1  0.10722719  0.55895135  0.58660226  1
  Te  Te104  1  0.09967384  0.59849475  0.90264903  1
  Te  Te105  1  0.07309622  0.89460335  0.20430449  1
  Te  Te106  1  0.12709898  0.91549909  0.58153893  1
  Te  Te107  1  0.07527540  0.91233097  0.91094523  1
  Te  Te108  1  0.40677700  0.23229855  0.25415517  1
  Te  Te109  1  0.37506178  0.21008763  0.60368021  1
  Te  Te110  1  0.39277922  0.25545745  0.90515574  1
  Te  Te111  1  0.39212154  0.58149725  0.24961088  1
  Te  Te112  1  0.44295106  0.56214007  0.59688771  1
  Te  Te113  1  0.41435808  0.57438844  0.91878045  1
  Te  Te114  1  0.42320605  0.91476780  0.25244855  1
  Te  Te115  1  0.40676356  0.93180925  0.57855508  1
  Te  Te116  1  0.40738169  0.93911744  0.93763400  1
  Te  Te117  1  0.73143687  0.26423558  0.24861931  1
  Te  Te118  1  0.74219736  0.23964949  0.58853205  1
  Te  Te119  1  0.76518166  0.24160939  0.92952273  1
  Te  Te120  1  0.74843860  0.58218820  0.24521877  1
  Te  Te121  1  0.76577050  0.57548009  0.57360540  1
  Te  Te122  1  0.72771155  0.55053325  0.89398051  1
  Te  Te123  1  0.75342085  0.92745031  0.23621782  1
  Te  Te124  1  0.75546820  0.91459896  0.59810254  1
  Te  Te125  1  0.74391486  0.90333145  0.91727182  1
  Te  Te126  1  0.25508567  0.24944000  0.09701203  1
  Te  Te127  1  0.25597638  0.25263164  0.42699584  1
  Te  Te128  1  0.26756110  0.19954926  0.70399394  1
  Te  Te129  1  0.23422574  0.56235019  0.08095128  1
  Te  Te130  1  0.27804508  0.59165023  0.41099666  1
  Te  Te131  1  0.23414832  0.58787143  0.76378329  1
  Te  Te132  1  0.25764443  0.93430128  0.07432086  1
  Te  Te133  1  0.23502347  0.91607611  0.40530944  1
  Te  Te134  1  0.26218185  0.91601364  0.74628262  1
  Te  Te135  1  0.58246367  0.25127571  0.07589366  1
  Te  Te136  1  0.52878877  0.26934138  0.39779293  1
  Te  Te137  1  0.58410830  0.26225431  0.73772187  1
  Te  Te138  1  0.56598527  0.58357065  0.07022164  1
  Te  Te139  1  0.57546071  0.58077090  0.41709407  1
  Te  Te140  1  0.58178199  0.53820410  0.74551584  1
  Te  Te141  1  0.58916071  0.91464720  0.09027469  1
  Te  Te142  1  0.56487372  0.90100537  0.41324503  1
  Te  Te143  1  0.58630354  0.90435558  0.76276787  1
  Te  Te144  1  0.90896741  0.26388179  0.09506111  1
  Te  Te145  1  0.91593009  0.25287063  0.42191618  1
  Te  Te146  1  0.90147002  0.27221281  0.76722210  1
  Te  Te147  1  0.90026510  0.57022092  0.05720025  1
  Te  Te148  1  0.94494865  0.58435451  0.39922983  1
  Te  Te149  1  0.92102677  0.58539350  0.74578606  1
  Te  Te150  1  0.92746490  0.91216203  0.12329446  1
  Te  Te151  1  0.92669131  0.91488120  0.41042291  1
  Te  Te152  1  0.91454084  0.92902112  0.75314780  1
  Te  Te153  1  0.24457918  0.06537975  0.23558549  1
  Te  Te154  1  0.24957711  0.12386800  0.56330431  1
  Te  Te155  1  0.26732972  0.10638516  0.91490858  1
  Te  Te156  1  0.24961581  0.43686663  0.24859624  1
  Te  Te157  1  0.26916872  0.41251519  0.61490192  1
  Te  Te158  1  0.23315272  0.40277764  0.90751619  1
  Te  Te159  1  0.23052693  0.75620874  0.26962076  1
  Te  Te160  1  0.26214473  0.74642130  0.57952168  1
  Te  Te161  1  0.23569867  0.73830471  0.90390476  1
  Te  Te162  1  0.57268670  0.09879325  0.26551952  1
  Te  Te163  1  0.56006195  0.11198023  0.58756247  1
  Te  Te164  1  0.57329529  0.07682178  0.90968858  1
  Te  Te165  1  0.57698819  0.40918606  0.25208044  1
  Te  Te166  1  0.58244606  0.38735087  0.58823036  1
  Te  Te167  1  0.56957249  0.42945084  0.91596664  1
  Te  Te168  1  0.58648666  0.76606053  0.24378004  1
  Te  Te169  1  0.58985447  0.74173400  0.57922591  1
  Te  Te170  1  0.59139436  0.73924118  0.91368793  1
  Te  Te171  1  0.91543434  0.08196787  0.25945403  1
  Te  Te172  1  0.93181692  0.08916581  0.57790498  1
  Te  Te173  1  0.92550795  0.10537245  0.94103626  1
  Te  Te174  1  0.90304402  0.40863561  0.23940482  1
  Te  Te175  1  0.89899427  0.43539653  0.59261460  1
  Te  Te176  1  0.90291004  0.41816248  0.90811876  1
  Te  Te177  1  0.93134922  0.73608542  0.26856038  1
  Te  Te178  1  0.92764574  0.73349815  0.56447980  1
  Te  Te179  1  0.91157898  0.74976285  0.92877156  1
