# generated using pymatgen
data_In2Te3
_symmetry_space_group_name_H-M   'P 1'
_cell_length_a   19.01777225
_cell_length_b   19.03621622
_cell_length_c   19.03604100
_cell_angle_alpha   90.27696852
_cell_angle_beta   90.01709852
_cell_angle_gamma   89.90368473
_symmetry_Int_Tables_number   1
_chemical_formula_structural   In2Te3
_chemical_formula_sum   'In72 Te108'
_cell_volume   6891.45931433
_cell_formula_units_Z   36
loop_
 _symmetry_equiv_pos_site_id
 _symmetry_equiv_pos_as_xyz
  1  'x, y, z'
loop_
 _atom_site_type_symbol
 _atom_site_label
 _atom_site_symmetry_multiplicity
 _atom_site_fract_x
 _atom_site_fract_y
 _atom_site_fract_z
 _atom_site_occupancy
  In  In0  1  0.68350605  0.83838428  0.81820591  1
  In  In1  1  0.19154097  0.18593837  0.39252633  1
  In  In2  1  0.84805363  0.14077668  0.03511159  1
  In  In3  1  0.83679193  0.34331561  0.81274277  1
  In  In4  1  0.16491087  0.65981347  0.83294767  1
  In  In5  1  0.81521241  0.70231608  0.15911036  1
  In  In6  1  0.33338978  0.33631433  0.00784882  1
  In  In7  1  0.47251351  0.49559421  0.64072331  1
  In  In8  1  0.35151459  0.81769089  0.82964284  1
  In  In9  1  0.01932528  0.67419085  0.30884076  1
  In  In10  1  0.01226485  -0.00143949  -0.00069053  1
  In  In11  1  0.64953805  0.83162373  0.50131652  1
  In  In12  1  0.16723706  0.18081293  -0.01119613  1
  In  In13  1  0.00519116  0.16570057  0.19634615  1
  In  In14  1  0.49693939  0.49894813  0.36911659  1
  In  In15  1  -0.02202233  0.02834205  0.33949631  1
  In  In16  1  0.64007403  0.15586719  0.17642519  1
  In  In17  1  0.65587833  0.00584426  0.68193324  1
  In  In18  1  0.48455266  0.34505831  0.83296617  1
  In  In19  1  0.66650659  0.32919350  -0.01909040  1
  In  In20  1  0.03721995  0.48941048  0.11621352  1
  In  In21  1  0.34189287  -0.01556877  0.00282908  1
  In  In22  1  -0.00854860  0.66617292  0.68291712  1
  In  In23  1  0.83380182  0.31359504  0.17605276  1
  In  In24  1  0.85196953  0.00791022  0.83875088  1
  In  In25  1  0.19505359  0.47803207  0.32345445  1
  In  In26  1  0.18111841  0.83954714  0.33147554  1
  In  In27  1  0.46403041  0.17583210  0.65515270  1
  In  In28  1  0.81468817  0.02509824  0.49451696  1
  In  In29  1  0.00354813  0.83855537  0.14827550  1
  In  In30  1  0.33756201  0.49891041  0.83967690  1
  In  In31  1  0.80958867  0.50770914  0.33898632  1
  In  In32  1  0.15779270  0.50518222  0.67556519  1
  In  In33  1  0.51120635  0.67364318  0.81179454  1
  In  In34  1  0.78302236  0.17081483  0.36447990  1
  In  In35  1  0.51782823  -0.02011424  0.82956470  1
  In  In36  1  0.01302194  0.33929749  0.67164960  1
  In  In37  1  0.50926596  0.65960077  0.16517847  1
  In  In38  1  0.81748909  0.48281891  0.67127848  1
  In  In39  1  0.82451337  0.51254642  -0.00308383  1
  In  In40  1  0.82871290  0.31830271  0.53862835  1
  In  In41  1  0.52220377  0.18930600  0.36119252  1
  In  In42  1  0.66947830  -0.12374301  0.03924565  1
  In  In43  1  0.33503295  0.67911106  0.33868941  1
  In  In44  1  0.31692815  0.49005659  0.49848448  1
  In  In45  1  -0.00116584  0.17805551  0.52104426  1
  In  In46  1  -0.01061829  0.68187764  0.00075814  1
  In  In47  1  0.64674048  0.49589370  0.48758225  1
  In  In48  1  0.34607720  0.13142382  0.17023108  1
  In  In49  1  0.04797149  0.01593859  0.66261923  1
  In  In50  1  0.84701831  0.85484464  0.68927314  1
  In  In51  1  0.01723890  0.52631760  0.48690195  1
  In  In52  1  0.34853795  0.65438290  0.01051083  1
  In  In53  1  0.67232711  0.18059111  0.82019131  1
  In  In54  1  0.34946806  -0.00659765  0.33537611  1
  In  In55  1  0.48039110  0.01402792  0.52010880  1
  In  In56  1  0.49320596  0.34690453  0.18321517  1
  In  In57  1  0.48200687  0.17600498  -0.02583467  1
  In  In58  1  0.80298596  0.69404526  0.90020713  1
  In  In59  1  0.00109278  0.47101282  0.84135716  1
  In  In60  1  0.20929371  0.81163730  0.65284189  1
  In  In61  1  0.64767792  0.66954949  0.65161176  1
  In  In62  1  0.31789847  0.50433972  0.15594724  1
  In  In63  1  0.15604863  0.00638399  0.84205848  1
  In  In64  1  0.47553486  0.82362799  0.32807098  1
  In  In65  1  0.18485326  -0.01604412  0.17250326  1
  In  In66  1  0.00071123  0.34846314  0.34940229  1
  In  In67  1  0.80343055  -0.03335527  0.18372444  1
  In  In68  1  0.29890542  0.03872940  0.65859056  1
  In  In69  1  0.65636593  0.50840652  0.17447440  1
  In  In70  1  0.81567007  0.69910395  0.49488347  1
  In  In71  1  0.01344801  0.86068591  0.49059537  1
  Te  Te72  1  0.09230075  0.08687373  0.09729568  1
  Te  Te73  1  0.08127232  0.08518950  0.43106000  1
  Te  Te74  1  0.11157808  0.11179655  0.75160687  1
  Te  Te75  1  0.11781412  0.39686717  0.03332766  1
  Te  Te76  1  0.10564739  0.41695394  0.43214551  1
  Te  Te77  1  0.11387933  0.39680388  0.77349928  1
  Te  Te78  1  0.08825966  0.73182664  0.09746571  1
  Te  Te79  1  0.09047874  0.75214616  0.41752986  1
  Te  Te80  1  0.09530826  0.75823760  0.74221621  1
  Te  Te81  1  0.44624511  0.06993467  0.07572931  1
  Te  Te82  1  0.40989771  0.10183097  0.42035237  1
  Te  Te83  1  0.42106805  0.06444566  0.75398108  1
  Te  Te84  1  0.43008797  0.43060253  0.07744404  1
  Te  Te85  1  0.38998239  0.40074659  0.39916502  1
  Te  Te86  1  0.38969314  0.40643034  0.73213346  1
  Te  Te87  1  0.42124651  0.75138682  0.09396774  1
  Te  Te88  1  0.37888037  0.78361357  0.43980046  1
  Te  Te89  1  0.41091288  0.73435431  0.72381521  1
  Te  Te90  1  0.72757634  0.06689106  0.09230512  1
  Te  Te91  1  0.71045607  0.04629704  0.39085880  1
  Te  Te92  1  0.76618042  0.08907737  0.74316083  1
  Te  Te93  1  0.74848316  0.40883360  0.09240321  1
  Te  Te94  1  0.75701134  0.40490503  0.43314438  1
  Te  Te95  1  0.72838328  0.38054592  0.72280867  1
  Te  Te96  1  0.74490431  0.74452057  0.03469852  1
  Te  Te97  1  0.74572907  0.78300392  0.39917501  1
  Te  Te98  1  0.76267195  0.73597233  0.73177638  1
  Te  Te99  1  0.09430262  0.25135454  0.28125467  1
  Te  Te100  1  0.10041961  0.26259361  0.58198750  1
  Te  Te101  1  0.09427514  0.28924780  0.92616667  1
  Te  Te102  1  0.08081247  0.55140992  0.25071920  1
  Te  Te103  1  0.09394224  0.61026132  0.58616276  1
  Te  Te104  1  0.07079376  0.58035823  0.91897414  1
  Te  Te105  1  0.06599160  0.93339970  0.25675443  1
  Te  Te106  1  0.12294302  0.91588260  0.57733937  1
  Te  Te107  1  0.09845874  0.90502614  0.93035680  1
  Te  Te108  1  0.42177485  0.23543478  0.25217825  1
  Te  Te109  1  0.41116727  0.26047135  0.54411237  1
  Te  Te110  1  0.38149172  0.25014194  0.89104568  1
  Te  Te111  1  0.41776235  0.57282347  0.25830380  1
  Te  Te112  1  0.40077487  0.59662566  0.55950374  1
  Te  Te113  1  0.43868608  0.58378267  0.91148489  1
  Te  Te114  1  0.41661557  0.91692275  0.22835757  1
  Te  Te115  1  0.39878746  0.94067299  0.61546789  1
  Te  Te116  1  0.43976487  0.89583450  0.92635979  1
  Te  Te117  1  0.72029714  0.25665531  0.25772099  1
  Te  Te118  1  0.72416032  0.21597657  0.53934466  1
  Te  Te119  1  0.76444527  0.22412930  0.93532652  1
  Te  Te120  1  0.73900368  0.60929934  0.25336679  1
  Te  Te121  1  0.75675550  0.58191484  0.57144777  1
  Te  Te122  1  0.73846516  0.56460041  0.89224193  1
  Te  Te123  1  0.71182134  0.87434540  0.24956149  1
  Te  Te124  1  0.75134628  0.91521374  0.58876882  1
  Te  Te125  1  0.74864094  0.93184030  0.91650129  1
  Te  Te126  1  0.26281610  0.23336607  0.09434000  1
  Te  Te127  1  0.29713443  0.27930374  0.43674001  1
  Te  Te128  1  0.31097747  0.20754964  0.65357623  1
  Te  Te129  1  0.23325471  0.59526261  0.08013121  1
  Te  Te130  1  0.23772591  0.59133686  0.41306854  1
  Te  Te131  1  0.26383249  0.58980467  0.74417502  1
  Te  Te132  1  0.24713257  0.89848455  0.07369850  1
  Te  Te133  1  0.26425189  0.91562416  0.42589180  1
  Te  Te134  1  0.25259442  0.91169858  0.76149088  1
  Te  Te135  1  0.57084753  0.25739168  0.07667825  1
  Te  Te136  1  0.59428843  0.26056290  0.47007341  1
  Te  Te137  1  0.56539504  0.25165424  0.74368602  1
  Te  Te138  1  0.60195213  0.59480575  0.07184699  1
  Te  Te139  1  0.58672911  0.60750238  0.41213733  1
  Te  Te140  1  0.57748116  0.56287123  0.72959985  1
  Te  Te141  1  0.55780445  0.88292328  0.13452856  1
  Te  Te142  1  0.54974617  0.91475721  0.42520218  1
  Te  Te143  1  0.57502581  0.88624538  0.72301979  1
  Te  Te144  1  0.94021871  0.25076066  0.08924271  1
  Te  Te145  1  0.90851678  0.24495429  0.41324406  1
  Te  Te146  1  0.91797053  0.24990650  0.73687766  1
  Te  Te147  1  0.90727507  0.58887756  0.09912274  1
  Te  Te148  1  0.91322518  0.60468020  0.40812976  1
  Te  Te149  1  0.91202296  0.56377285  0.75832835  1
  Te  Te150  1  0.90258250  0.92395142  0.07708155  1
  Te  Te151  1  0.90027376  0.92397891  0.41380408  1
  Te  Te152  1  0.95504982  0.93307221  0.75691558  1
  Te  Te153  1  0.23735312  0.08884693  0.27190832  1
  Te  Te154  1  0.24507890  0.12230442  0.54797082  1
  Te  Te155  1  0.26091549  0.08266696  0.92126441  1
  Te  Te156  1  0.26025177  0.39076295  0.22691829  1
  Te  Te157  1  0.24013164  0.41253343  0.59676913  1
  Te  Te158  1  0.24680532  0.43780438  0.94045145  1
  Te  Te159  1  0.24202535  0.74115669  0.24398836  1
  Te  Te160  1  0.30253651  0.73495301  0.56816688  1
  Te  Te161  1  0.25796911  0.74054574  0.91914258  1
  Te  Te162  1  0.58188504  0.07518581  0.28391394  1
  Te  Te163  1  0.59350152  0.09317711  0.58084302  1
  Te  Te164  1  0.58819305  0.09010541  0.90775944  1
  Te  Te165  1  0.58883251  0.41805858  0.27524235  1
  Te  Te166  1  0.56580389  0.40357875  0.56806219  1
  Te  Te167  1  0.58193667  0.42241945  0.91007446  1
  Te  Te168  1  0.59433862  0.77189792  0.23793885  1
  Te  Te169  1  0.56146572  0.72163948  0.54586336  1
  Te  Te170  1  0.59056392  0.76120201  0.90202832  1
  Te  Te171  1  0.88030783  0.09348317  0.24514117  1
  Te  Te172  1  0.92130223  0.06957049  0.59031841  1
  Te  Te173  1  0.93897787  0.10292259  0.91843139  1
  Te  Te174  1  0.90540443  0.42092544  0.25688079  1
  Te  Te175  1  0.93247309  0.43408989  0.57322272  1
  Te  Te176  1  0.90612956  0.40009435  0.93430205  1
  Te  Te177  1  0.91566268  0.76847939  0.25155813  1
  Te  Te178  1  0.92764979  0.76814434  0.58194287  1
  Te  Te179  1  0.92560808  0.76948045  0.90338374  1
