# generated using pymatgen
data_In2Te3
_symmetry_space_group_name_H-M   'P 1'
_cell_length_a   18.76344899
_cell_length_b   18.77292659
_cell_length_c   18.76958952
_cell_angle_alpha   90.07668779
_cell_angle_beta   90.10429526
_cell_angle_gamma   90.12245143
_symmetry_Int_Tables_number   1
_chemical_formula_structural   In2Te3
_chemical_formula_sum   'In72 Te108'
_cell_volume   6611.45924517
_cell_formula_units_Z   36
loop_
 _symmetry_equiv_pos_site_id
 _symmetry_equiv_pos_as_xyz
  1  'x, y, z'
loop_
 _atom_site_type_symbol
 _atom_site_label
 _atom_site_symmetry_multiplicity
 _atom_site_fract_x
 _atom_site_fract_y
 _atom_site_fract_z
 _atom_site_occupancy
  In  In0  1  0.00029203  0.15526476  0.48200856  1
  In  In1  1  0.51190106  0.32957995  0.18617829  1
  In  In2  1  -0.02250947  0.32430801  0.66283309  1
  In  In3  1  0.34283456  0.47987311  0.81930749  1
  In  In4  1  -0.01041561  0.50392409  0.85091704  1
  In  In5  1  0.83532103  0.82722346  0.31734411  1
  In  In6  1  0.84901833  0.00124222  0.49949054  1
  In  In7  1  0.34198502  0.33964460  0.65774453  1
  In  In8  1  0.50768394  0.32589048  0.51365585  1
  In  In9  1  0.34579425  0.49760634  0.51237474  1
  In  In10  1  0.83560384  0.83190123  -0.00705690  1
  In  In11  1  -0.00718756  -0.03787723  0.64917362  1
  In  In12  1  0.16895018  0.52196614  0.65683028  1
  In  In13  1  0.79994647  0.18821836  0.66932563  1
  In  In14  1  0.69521280  0.48897052  0.16775448  1
  In  In15  1  0.34070902  0.65690335  0.32611071  1
  In  In16  1  0.66369785  0.84252199  0.14884729  1
  In  In17  1  -0.02485570  0.52914875  0.14286234  1
  In  In18  1  0.66601536  -0.01092853  0.32579053  1
  In  In19  1  -0.00860606  0.17345970  0.81886277  1
  In  In20  1  0.49200778  -0.01515781  0.15260123  1
  In  In21  1  0.33115288  0.31628137  0.35145430  1
  In  In22  1  0.32347689  0.85627460  0.16231772  1
  In  In23  1  0.51547778  0.49957139  0.66408296  1
  In  In24  1  0.52757058  0.49051270  -0.00703520  1
  In  In25  1  -0.01952599  0.34241817  0.01391685  1
  In  In26  1  0.01581438  0.00095358  0.01288949  1
  In  In27  1  0.82436697  0.66111353  0.83514196  1
  In  In28  1  0.84184900  0.32614617  0.15885381  1
  In  In29  1  0.46711129  0.69228565  0.81443138  1
  In  In30  1  0.66618788  -0.00104631  0.65659102  1
  In  In31  1  0.47968542  0.66921288  0.16487921  1
  In  In32  1  0.00356733  0.83016643  0.51295953  1
  In  In33  1  0.15480246  -0.03953900  0.82875204  1
  In  In34  1  0.34437813  0.15854239  0.85098707  1
  In  In35  1  0.32910939  -0.01532804  0.00082840  1
  In  In36  1  0.17166151  0.34393375  0.83895290  1
  In  In37  1  0.35579242  0.51773198  0.16934412  1
  In  In38  1  0.81263227  0.17937985  -0.01052662  1
  In  In39  1  0.67098229  0.18722530  0.50051265  1
  In  In40  1  0.48263218  0.16675207  0.35154140  1
  In  In41  1  -0.02152074  0.65897425  0.33262626  1
  In  In42  1  0.81747683  0.47933608  0.35883932  1
  In  In43  1  0.17297979  0.31369226  0.17261651  1
  In  In44  1  0.68414415  0.16454377  0.16625820  1
  In  In45  1  0.31557645  0.83364365  0.50914571  1
  In  In46  1  0.49461341  0.02042760  0.50105880  1
  In  In47  1  0.17319825  0.14832070  0.65154517  1
  In  In48  1  0.51362641  0.65049911  0.50600398  1
  In  In49  1  0.82835808  0.49850412  0.67252886  1
  In  In50  1  0.00605099  0.33293565  0.34725049  1
  In  In51  1  0.12756867  0.70517392  0.14436535  1
  In  In52  1  0.13722955  0.69587570  0.81670590  1
  In  In53  1  0.17397380  0.50438250  -0.01722360  1
  In  In54  1  0.51084278  0.17023497  -0.00566684  1
  In  In55  1  0.47710583  0.84780083  0.30606424  1
  In  In56  1  0.66312400  0.83171080  0.83027252  1
  In  In57  1  0.67953529  0.66063220  0.34779158  1
  In  In58  1  0.15574360  0.68624345  0.51665165  1
  In  In59  1  0.83971858  -0.01155793  0.80661849  1
  In  In60  1  0.16291147  0.15925007  0.02387190  1
  In  In61  1  0.15462344  0.86815972  0.30690737  1
  In  In62  1  0.15046962  0.48561816  0.34306820  1
  In  In63  1  0.33464878  0.00243476  0.67740186  1
  In  In64  1  0.86063160  0.16086923  0.30419940  1
  In  In65  1  0.68096277  0.48876277  0.84286630  1
  In  In66  1  0.17975167  0.14336243  0.32987163  1
  In  In67  1  0.49554854  0.00383177  0.84335449  1
  In  In68  1  0.32913022  0.68430988  -0.00730911  1
  In  In69  1  0.67593530  0.68064070  -0.01927600  1
  In  In70  1  0.67491570  0.82303439  0.51232390  1
  In  In71  1  0.67580346  0.65288450  0.66374879  1
  Te  Te72  1  0.09927019  0.06589119  0.12239644  1
  Te  Te73  1  0.08680247  0.05961101  0.41304032  1
  Te  Te74  1  0.07888594  0.07063547  0.74653881  1
  Te  Te75  1  0.09192058  0.42252321  0.08469192  1
  Te  Te76  1  0.06769512  0.42366524  0.44760203  1
  Te  Te77  1  0.07910795  0.42013004  0.74568082  1
  Te  Te78  1  0.04445061  0.79028004  0.05745572  1
  Te  Te79  1  0.08999344  0.75289568  0.39516861  1
  Te  Te80  1  0.05439203  0.77292097  0.71277719  1
  Te  Te81  1  0.40875210  0.08869849  0.07823178  1
  Te  Te82  1  0.38344295  0.09359038  0.43416462  1
  Te  Te83  1  0.43338659  0.10216328  0.74139249  1
  Te  Te84  1  0.43051405  0.41561828  0.08546204  1
  Te  Te85  1  0.42856813  0.41604062  0.41574174  1
  Te  Te86  1  0.44965542  0.39282131  0.75183402  1
  Te  Te87  1  0.42252590  0.77622922  0.07573465  1
  Te  Te88  1  0.42324279  0.74821997  0.41881590  1
  Te  Te89  1  0.37268917  0.77602397  0.74045809  1
  Te  Te90  1  0.76494308  0.07515144  0.08279322  1
  Te  Te91  1  0.74917383  0.08203046  0.41538735  1
  Te  Te92  1  0.73294916  0.08716677  0.76384217  1
  Te  Te93  1  0.75245958  0.39877529  0.06636945  1
  Te  Te94  1  0.72267103  0.41527721  0.45357988  1
  Te  Te95  1  0.72324082  0.39851159  0.72816892  1
  Te  Te96  1  0.76090672  0.73964191  0.09395212  1
  Te  Te97  1  0.77776120  0.74341726  0.43366422  1
  Te  Te98  1  0.76000802  0.75932348  0.73802604  1
  Te  Te99  1  0.07125522  0.23590419  0.25106061  1
  Te  Te100  1  0.07980072  0.24516620  0.57940641  1
  Te  Te101  1  0.07920721  0.25175674  0.92007304  1
  Te  Te102  1  0.08982397  0.58344154  0.24225441  1
  Te  Te103  1  0.06336782  0.58731472  0.57634069  1
  Te  Te104  1  0.07292693  0.60330657  0.93061606  1
  Te  Te105  1  0.05262608  0.94312908  0.22805427  1
  Te  Te106  1  0.11050425  0.91423745  0.57545745  1
  Te  Te107  1  0.07455815  0.88489176  0.93167135  1
  Te  Te108  1  0.40191805  0.23706574  0.24200996  1
  Te  Te109  1  0.40792790  0.23632987  0.57584250  1
  Te  Te110  1  0.42810947  0.26300427  0.91176784  1
  Te  Te111  1  0.45465179  0.56843907  0.27667937  1
  Te  Te112  1  0.41004152  0.59554720  0.60941664  1
  Te  Te113  1  0.41865379  0.57771411  0.92178059  1
  Te  Te114  1  0.37857786  0.96470819  0.26591411  1
  Te  Te115  1  0.42370709  0.91483610  0.58480767  1
  Te  Te116  1  0.40256576  0.90429604  0.90177477  1
  Te  Te117  1  0.75268853  0.26027846  0.26441924  1
  Te  Te118  1  0.76435575  0.28767044  0.56154227  1
  Te  Te119  1  0.72057380  0.25910534  0.90336307  1
  Te  Te120  1  0.77529306  0.58619479  0.25473453  1
  Te  Te121  1  0.76168947  0.58317055  0.56797593  1
  Te  Te122  1  0.77032147  0.56124961  0.94811663  1
  Te  Te123  1  0.76351761  0.93088865  0.22746196  1
  Te  Te124  1  0.77347195  0.90798118  0.59485467  1
  Te  Te125  1  0.74697455  0.92778215  0.91402128  1
  Te  Te126  1  0.26561079  0.25057144  0.07755520  1
  Te  Te127  1  0.21920606  0.25478677  0.42221939  1
  Te  Te128  1  0.24920879  0.24658336  0.74993623  1
  Te  Te129  1  0.24880701  0.59455431  0.09046492  1
  Te  Te130  1  0.25001661  0.58416996  0.42498571  1
  Te  Te131  1  0.24165526  0.58452601  0.77540314  1
  Te  Te132  1  0.22101224  0.91925441  0.07759847  1
  Te  Te133  1  0.24416043  0.92016778  0.41294000  1
  Te  Te134  1  0.26146662  0.88953292  0.74929887  1
  Te  Te135  1  0.60060909  0.26018407  0.08315882  1
  Te  Te136  1  0.58983689  0.26400284  0.39699104  1
  Te  Te137  1  0.64219557  0.27397799  0.77199795  1
  Te  Te138  1  0.59067430  0.59697344  0.08734482  1
  Te  Te139  1  0.60734307  0.56154285  0.43335700  1
  Te  Te140  1  0.58502506  0.59162711  0.77683139  1
  Te  Te141  1  0.58597053  0.92641061  0.05611634  1
  Te  Te142  1  0.58142228  0.90919905  0.42459056  1
  Te  Te143  1  0.57172271  0.91356715  0.74028884  1
  Te  Te144  1  0.92837052  0.22118313  0.08966250  1
  Te  Te145  1  0.89904882  0.25210581  0.42108997  1
  Te  Te146  1  0.88537004  0.27094377  0.77280468  1
  Te  Te147  1  0.89192087  0.59834491  0.04537150  1
  Te  Te148  1  0.91332284  0.57020558  0.43030675  1
  Te  Te149  1  0.92806015  0.59246020  0.74339275  1
  Te  Te150  1  0.92420781  0.90784332  0.09007421  1
  Te  Te151  1  0.92954860  0.91468886  0.40520028  1
  Te  Te152  1  0.94254038  0.88684044  0.76953690  1
  Te  Te153  1  0.26546004  0.06923909  0.23664436  1
  Te  Te154  1  0.26119804  0.06858374  0.56447972  1
  Te  Te155  1  0.22637266  0.07721383  0.90609882  1
  Te  Te156  1  0.26126414  0.42510411  0.25205081  1
  Te  Te157  1  0.23667518  0.41042130  0.57401725  1
  Te  Te158  1  0.27620899  0.40133949  0.93431738  1
  Te  Te159  1  0.25042680  0.74980974  0.24653204  1
  Te  Te160  1  0.26027478  0.73804481  0.61132866  1
  Te  Te161  1  0.23059350  0.75971835  0.91339624  1
  Te  Te162  1  0.57246249  0.08284465  0.24959616  1
  Te  Te163  1  0.57970251  0.10919640  0.59414081  1
  Te  Te164  1  0.59942057  0.08094808  0.91662987  1
  Te  Te165  1  0.59800743  0.42575294  0.25873244  1
  Te  Te166  1  0.60772950  0.42236692  0.57478570  1
  Te  Te167  1  0.59073972  0.38463831  0.90663100  1
  Te  Te168  1  0.59348397  0.75583960  0.25831182  1
  Te  Te169  1  0.57450566  0.75240062  0.60325854  1
  Te  Te170  1  0.56130344  0.75914827  0.91838905  1
  Te  Te171  1  0.93762693  0.04179625  0.27105869  1
  Te  Te172  1  0.91127606  0.09480108  0.60545089  1
  Te  Te173  1  0.91959352  0.07529233  0.91226652  1
  Te  Te174  1  0.92719481  0.42393167  0.24475404  1
  Te  Te175  1  0.91615164  0.42478523  0.57509601  1
  Te  Te176  1  0.89781243  0.40276478  0.90744878  1
  Te  Te177  1  0.92879997  0.75236215  0.23018874  1
  Te  Te178  1  0.94189241  0.74020357  0.61306958  1
  Te  Te179  1  0.92350163  0.73173690  0.92344082  1
