# generated using pymatgen
data_In2Te3
_symmetry_space_group_name_H-M   'P 1'
_cell_length_a   19.02272454
_cell_length_b   19.00512480
_cell_length_c   19.00586248
_cell_angle_alpha   89.87753335
_cell_angle_beta   90.02170178
_cell_angle_gamma   90.12929367
_symmetry_Int_Tables_number   1
_chemical_formula_structural   In2Te3
_chemical_formula_sum   'In72 Te108'
_cell_volume   6871.14161220
_cell_formula_units_Z   36
loop_
 _symmetry_equiv_pos_site_id
 _symmetry_equiv_pos_as_xyz
  1  'x, y, z'
loop_
 _atom_site_type_symbol
 _atom_site_label
 _atom_site_symmetry_multiplicity
 _atom_site_fract_x
 _atom_site_fract_y
 _atom_site_fract_z
 _atom_site_occupancy
  In  In0  1  0.33673635  -0.00794738  0.32653724  1
  In  In1  1  0.83162527  0.66011079  0.11581355  1
  In  In2  1  0.51416812  0.00306442  0.49713979  1
  In  In3  1  0.16213780  0.82181108  0.66907780  1
  In  In4  1  0.15951233  0.16998829  -0.01508260  1
  In  In5  1  0.64940079  0.81955300  0.50532686  1
  In  In6  1  0.66101197  0.32517892  0.00223317  1
  In  In7  1  0.01033397  0.16228059  0.83617234  1
  In  In8  1  0.86043847  0.83578163  0.68216296  1
  In  In9  1  0.49951926  0.68453132  0.17159788  1
  In  In10  1  0.85048469  0.00282479  0.50808821  1
  In  In11  1  0.16503266  0.64673157  0.52846242  1
  In  In12  1  0.85657028  0.33040933  0.84581896  1
  In  In13  1  0.48669583  0.15929127  0.00327961  1
  In  In14  1  0.82712787  0.80506517  0.29790968  1
  In  In15  1  -0.03188387  -0.00354964  0.31405456  1
  In  In16  1  0.83947340  0.85405907  -0.00925548  1
  In  In17  1  0.49322715  0.51855466  0.67672013  1
  In  In18  1  0.30733598  0.52105671  0.14283723  1
  In  In19  1  -0.00332286  0.32546061  0.66304347  1
  In  In20  1  0.35360904  0.85346403  0.48820896  1
  In  In21  1  0.00696101  0.67001582  0.00515565  1
  In  In22  1  0.47666262  0.50647295  0.00694589  1
  In  In23  1  0.32981790  0.68282455  0.32508574  1
  In  In24  1  0.49948283  -0.01672663  0.82583117  1
  In  In25  1  0.18557152  0.33663525  0.68037078  1
  In  In26  1  0.17012548  0.15353739  0.35309514  1
  In  In27  1  0.50049848  0.34956488  0.82966701  1
  In  In28  1  0.15743835  -0.01421698  0.16712434  1
  In  In29  1  0.00555601  0.84207958  0.51574885  1
  In  In30  1  -0.01210193  0.81010017  0.15616138  1
  In  In31  1  0.32709376  0.15821013  0.52438255  1
  In  In32  1  0.51179184  0.66644804  0.82549467  1
  In  In33  1  0.03997274  0.83062976  0.83974181  1
  In  In34  1  -0.02026387  0.17707429  0.18247502  1
  In  In35  1  0.34237164  0.32865783  0.32413921  1
  In  In36  1  0.29647531  0.49989611  0.82730858  1
  In  In37  1  0.86153378  0.66759609  0.49109360  1
  In  In38  1  0.68508052  0.15535963  0.80482123  1
  In  In39  1  0.33702939  0.34402772  -0.00408231  1
  In  In40  1  0.66872702  0.50336846  0.48524974  1
  In  In41  1  0.30635619  0.79697087  0.86336215  1
  In  In42  1  0.49686283  0.82761600  -0.01356629  1
  In  In43  1  0.75894454  0.61464818  0.83222721  1
  In  In44  1  0.50368884  0.15671014  0.65036414  1
  In  In45  1  0.31719754  0.83749783  0.12863948  1
  In  In46  1  0.31460257  0.00678540  0.67755631  1
  In  In47  1  0.70197712  -0.02595200  0.34955078  1
  In  In48  1  0.66524707  0.15584595  0.14881402  1
  In  In49  1  0.85837270  0.50963591  0.33574066  1
  In  In50  1  0.48135490  0.31721417  0.49266324  1
  In  In51  1  -0.00309419  0.35982057  0.02155593  1
  In  In52  1  0.47678235  0.01391482  0.16072346  1
  In  In53  1  0.84660264  0.47930016  0.67539748  1
  In  In54  1  0.68505316  0.33752413  0.64269099  1
  In  In55  1  0.65977450  -0.01860370  0.67746909  1
  In  In56  1  0.32650159  0.65425135  0.67781215  1
  In  In57  1  0.83355684  0.32120734  0.49673219  1
  In  In58  1  0.18656223  0.81145898  0.33842136  1
  In  In59  1  0.52175179  0.18167173  0.32715391  1
  In  In60  1  -0.00072992  0.16713953  0.50484824  1
  In  In61  1  0.00059711  0.51240093  0.84505477  1
  In  In62  1  0.17623299  0.33783752  0.15516529  1
  In  In63  1  0.67460493  -0.00338444  -0.00952043  1
  In  In64  1  0.49864385  0.48604922  0.34113997  1
  In  In65  1  0.67632471  0.67813609  0.65974261  1
  In  In66  1  0.64606430  0.49367669  0.16687978  1
  In  In67  1  0.13031046  0.53155112  0.32641947  1
  In  In68  1  0.00692491  -0.00120812  -0.01961628  1
  In  In69  1  0.82138620  0.32977598  0.17533108  1
  In  In70  1  0.01447305  0.34536583  0.35750918  1
  In  In71  1  0.65390237  0.65621858  0.31114928  1
  Te  Te72  1  0.07567433  0.09720317  0.09566969  1
  Te  Te73  1  0.06413021  0.06360502  0.41172178  1
  Te  Te74  1  0.12266749  0.09888257  0.76306011  1
  Te  Te75  1  0.08881512  0.44169131  0.10143158  1
  Te  Te76  1  0.11797382  0.42264463  0.42445332  1
  Te  Te77  1  0.07393882  0.41078523  0.76114134  1
  Te  Te78  1  0.09737176  0.77508137  0.06267077  1
  Te  Te79  1  0.09231992  0.74497446  0.43698350  1
  Te  Te80  1  0.09851954  0.72079904  0.75750312  1
  Te  Te81  1  0.38524799  0.07185874  0.06211632  1
  Te  Te82  1  0.41512812  0.08701837  0.41820299  1
  Te  Te83  1  0.41751041  0.08986894  0.75403043  1
  Te  Te84  1  0.41123594  0.41567681  0.10723909  1
  Te  Te85  1  0.39515357  0.42466388  0.43266494  1
  Te  Te86  1  0.39905879  0.42121529  0.74438975  1
  Te  Te87  1  0.40629205  0.73337685  0.06364219  1
  Te  Te88  1  0.42542882  0.76177342  0.40096890  1
  Te  Te89  1  0.40755816  0.75372321  0.75799826  1
  Te  Te90  1  0.76101130  0.08970445  0.06180809  1
  Te  Te91  1  0.76670171  0.08307837  0.41932623  1
  Te  Te92  1  0.76750386  0.04371764  0.75732662  1
  Te  Te93  1  0.74707452  0.42236124  0.08004014  1
  Te  Te94  1  0.75801725  0.41573517  0.40342450  1
  Te  Te95  1  0.75000619  0.40312978  0.76294115  1
  Te  Te96  1  0.74468526  0.76929475  0.06917563  1
  Te  Te97  1  0.74626765  0.73164778  0.41687557  1
  Te  Te98  1  0.75917167  0.74892390  0.76345422  1
  Te  Te99  1  0.09614018  0.25017262  0.25815599  1
  Te  Te100  1  0.09830542  0.25523739  0.57738279  1
  Te  Te101  1  0.07132140  0.27452586  0.92113997  1
  Te  Te102  1  0.06211461  0.61802942  0.23090946  1
  Te  Te103  1  0.10359556  0.54429580  0.61421984  1
  Te  Te104  1  0.10035238  0.57524090  0.93660761  1
  Te  Te105  1  0.07975260  0.89818660  0.26359095  1
  Te  Te106  1  0.07238587  0.92753222  0.61586263  1
  Te  Te107  1  0.11842017  0.92627886  0.92160831  1
  Te  Te108  1  0.41346399  0.23113067  0.24387700  1
  Te  Te109  1  0.40068084  0.26051005  0.60782059  1
  Te  Te110  1  0.41391493  0.25130836  0.90396976  1
  Te  Te111  1  0.41845998  0.57739907  0.24566905  1
  Te  Te112  1  0.41262363  0.58985128  0.57905215  1
  Te  Te113  1  0.40839930  0.58164433  0.89655437  1
  Te  Te114  1  0.40884671  0.89808570  0.23438083  1
  Te  Te115  1  0.42503570  0.93273694  0.59533138  1
  Te  Te116  1  0.39756167  0.91372853  0.91274770  1
  Te  Te117  1  0.72432410  0.24823698  0.24667254  1
  Te  Te118  1  0.77078788  0.23139546  0.59424253  1
  Te  Te119  1  0.74965228  0.24350237  0.91180428  1
  Te  Te120  1  0.76199269  0.58112124  0.23628107  1
  Te  Te121  1  0.76333334  0.57434828  0.58138160  1
  Te  Te122  1  0.77132191  0.62495778  0.97733096  1
  Te  Te123  1  0.75617137  0.91144937  0.22980410  1
  Te  Te124  1  0.75714980  0.89410391  0.58083216  1
  Te  Te125  1  0.76107262  0.93090917  0.89105624  1
  Te  Te126  1  0.25831018  0.24020227  0.07788759  1
  Te  Te127  1  0.25746136  0.25225470  0.42570057  1
  Te  Te128  1  0.22076408  0.22044735  0.76511197  1
  Te  Te129  1  0.23861335  0.58848328  0.03133382  1
  Te  Te130  1  0.24586378  0.59183359  0.41064921  1
  Te  Te131  1  0.21313666  0.60640374  0.76235632  1
  Te  Te132  1  0.24343768  0.94281364  0.05549186  1
  Te  Te133  1  0.23916549  0.92756805  0.42253294  1
  Te  Te134  1  0.24880653  0.90115656  0.76450197  1
  Te  Te135  1  0.56232174  0.25494482  0.09155657  1
  Te  Te136  1  0.59378648  0.24615396  0.43624146  1
  Te  Te137  1  0.58353109  0.25737981  0.74093517  1
  Te  Te138  1  0.57827666  0.59460595  0.07760998  1
  Te  Te139  1  0.56874847  0.59560443  0.42048505  1
  Te  Te140  1  0.61413008  0.56995685  0.75426258  1
  Te  Te141  1  0.56907333  0.92782339  0.07379316  1
  Te  Te142  1  0.57725752  0.90448713  0.40307027  1
  Te  Te143  1  0.58460341  0.88597346  0.75843191  1
  Te  Te144  1  0.90507976  0.25216405  0.07487431  1
  Te  Te145  1  0.91604335  0.23865345  0.40072268  1
  Te  Te146  1  0.90817522  0.23376683  0.74318079  1
  Te  Te147  1  0.95856104  0.58030404  0.11766303  1
  Te  Te148  1  0.95211362  0.57124819  0.42984727  1
  Te  Te149  1  0.89792761  0.58756577  0.76503921  1
  Te  Te150  1  0.92462222  0.92884266  0.09198971  1
  Te  Te151  1  0.90528533  0.88858899  0.41023865  1
  Te  Te152  1  0.96085319  0.91954035  0.74894275  1
  Te  Te153  1  0.24764828  0.08211267  0.24475273  1
  Te  Te154  1  0.22431270  0.07429599  0.58443029  1
  Te  Te155  1  0.23465308  0.10683468  0.87384604  1
  Te  Te156  1  0.24740052  0.43263864  0.25331766  1
  Te  Te157  1  0.22384679  0.45981357  0.61205564  1
  Te  Te158  1  0.23090498  0.40752122  0.91965794  1
  Te  Te159  1  0.23989377  0.73825980  0.21751663  1
  Te  Te160  1  0.26543828  0.76029696  0.57193335  1
  Te  Te161  1  0.21906855  0.72665219  0.96204669  1
  Te  Te162  1  0.58516876  0.06597966  0.25393753  1
  Te  Te163  1  0.61347653  0.08501829  0.57606885  1
  Te  Te164  1  0.58081742  0.09484513  0.90082566  1
  Te  Te165  1  0.59012823  0.40232358  0.26567221  1
  Te  Te166  1  0.57704495  0.42249904  0.57802672  1
  Te  Te167  1  0.58212352  0.43092196  0.92586063  1
  Te  Te168  1  0.60005974  0.76816894  0.23565950  1
  Te  Te169  1  0.56384006  0.73921262  0.59107292  1
  Te  Te170  1  0.59515343  0.75775357  0.90318199  1
  Te  Te171  1  0.88035686  0.08980536  0.24546509  1
  Te  Te172  1  0.93728423  0.07421975  0.60038317  1
  Te  Te173  1  0.91264904  0.08839313  0.91628348  1
  Te  Te174  1  0.93065350  0.40925226  0.24902768  1
  Te  Te175  1  0.92784796  0.41842437  0.56389004  1
  Te  Te176  1  0.90127519  0.44273674  0.93653370  1
  Te  Te177  1  0.94821312  0.72165674  0.27185791  1
  Te  Te178  1  0.93984685  0.73383828  0.60184224  1
  Te  Te179  1  0.92741018  0.75905100  0.91182218  1
