# generated using pymatgen
data_In2Te3
_symmetry_space_group_name_H-M   'P 1'
_cell_length_a   18.72326676
_cell_length_b   18.72006438
_cell_length_c   18.72162184
_cell_angle_alpha   90.00579342
_cell_angle_beta   90.00340927
_cell_angle_gamma   89.99824450
_symmetry_Int_Tables_number   1
_chemical_formula_structural   In2Te3
_chemical_formula_sum   'In72 Te108'
_cell_volume   6561.94261823
_cell_formula_units_Z   36
loop_
 _symmetry_equiv_pos_site_id
 _symmetry_equiv_pos_as_xyz
  1  'x, y, z'
loop_
 _atom_site_type_symbol
 _atom_site_label
 _atom_site_symmetry_multiplicity
 _atom_site_fract_x
 _atom_site_fract_y
 _atom_site_fract_z
 _atom_site_occupancy
  In  In0  1  0.33123429  0.33405095  0.34638274  1
  In  In1  1  0.48932230  0.35215266  0.16518070  1
  In  In2  1  0.35175769  0.35762333  0.67376992  1
  In  In3  1  0.01158003  0.83033863  0.83621615  1
  In  In4  1  0.33320490  0.82146402  0.85591680  1
  In  In5  1  0.16950327  0.82245101  0.30831989  1
  In  In6  1  0.00039902  0.17950741  0.81851824  1
  In  In7  1  0.52201668  0.79732024  0.30874474  1
  In  In8  1  0.16430065  0.14854172  0.67676539  1
  In  In9  1  0.49881609  0.37518083  0.83715798  1
  In  In10  1  0.50373105  0.17104547  -0.00162552  1
  In  In11  1  0.17753876  0.36473343  0.48548970  1
  In  In12  1  0.82345170  0.80429272  0.70324935  1
  In  In13  1  0.64543048  0.79363730  0.51807824  1
  In  In14  1  0.65653248  -0.00838994  0.67911944  1
  In  In15  1  0.32056577  0.64956794  -0.00059646  1
  In  In16  1  0.67519795  -0.01321279  0.31890254  1
  In  In17  1  0.00612778  0.65886965  0.66668709  1
  In  In18  1  0.35393073  0.52702851  0.17680862  1
  In  In19  1  0.15508358  0.35468979  0.84565195  1
  In  In20  1  0.81337419  0.78994956  0.03910725  1
  In  In21  1  0.32563224  0.15737301  0.84044419  1
  In  In22  1  0.16508360  0.01553379  0.50570174  1
  In  In23  1  0.67557160  0.35043409  -0.01698400  1
  In  In24  1  0.63816442  0.52131076  0.48829473  1
  In  In25  1  0.02779818  0.01417133  0.01716500  1
  In  In26  1  0.68145054  0.19408744  0.51507053  1
  In  In27  1  -0.01109711  0.35669762  0.01648563  1
  In  In28  1  0.00144203  0.35192451  0.67657726  1
  In  In29  1  0.48507052  0.00249621  0.48598890  1
  In  In30  1  0.66978861  0.18557665  0.85251976  1
  In  In31  1  0.32745211  -0.00851252  0.67590318  1
  In  In32  1  0.83881479  0.64954731  0.46900685  1
  In  In33  1  0.32306070  0.36480409  0.01688224  1
  In  In34  1  0.16520581  0.66424682  0.49324661  1
  In  In35  1  0.01567177  0.64754370  -0.00420431  1
  In  In36  1  0.84198726  0.80683847  0.32199644  1
  In  In37  1  0.31045400  -0.01261469  0.00962263  1
  In  In38  1  0.84768535  0.51756030  0.00002510  1
  In  In39  1  0.83964069  0.32738300  0.50986978  1
  In  In40  1  0.52272858  0.35433511  0.51297942  1
  In  In41  1  0.67177189  0.14969120  0.18151527  1
  In  In42  1  0.50225152  0.79702513  0.67318313  1
  In  In43  1  0.48969302  0.81533704  -0.00111790  1
  In  In44  1  0.67253582  0.33586268  0.32957957  1
  In  In45  1  0.83837540  0.00665038  0.16758814  1
  In  In46  1  0.83950477  -0.03100880  0.48577757  1
  In  In47  1  0.66596734  0.51638105  0.15748482  1
  In  In48  1  0.50068139  -0.01345747  0.16262179  1
  In  In49  1  0.67678206  0.81859435  0.83371182  1
  In  In50  1  0.66315795  0.00211667  0.01412699  1
  In  In51  1  0.80950808  0.65820510  0.83993568  1
  In  In52  1  0.16344826  0.18124580  0.30495472  1
  In  In53  1  0.82584229  0.49218936  0.68193339  1
  In  In54  1  0.00464970  0.81127749  0.15114655  1
  In  In55  1  0.31097263  0.18771142  0.18133568  1
  In  In56  1  0.50843885  0.65643013  0.82996052  1
  In  In57  1  0.31903929  0.81915358  0.16457049  1
  In  In58  1  0.85583654  0.48490032  0.30199947  1
  In  In59  1  0.33968930  0.79631317  0.48890378  1
  In  In60  1  -0.01065303  0.83205668  0.47387759  1
  In  In61  1  0.34519080  0.51923078  0.50658830  1
  In  In62  1  0.18428441  0.82065140  0.66630103  1
  In  In63  1  0.31603537  0.01380250  0.32763764  1
  In  In64  1  0.00953071  0.17887453  0.47929251  1
  In  In65  1  0.48640418  0.18902500  0.67086321  1
  In  In66  1  0.14139705  0.51693869  0.30584833  1
  In  In67  1  0.01463793  0.03056973  0.65905014  1
  In  In68  1  0.84876350  0.15788790  0.31894968  1
  In  In69  1  0.85569424  0.01053508  0.84819170  1
  In  In70  1  0.15187020  0.34379283  0.14417121  1
  In  In71  1  0.83913706  0.19757250  0.66703708  1
  Te  Te72  1  0.09458875  0.09622200  0.11942251  1
  Te  Te73  1  0.08231436  0.07530710  0.39406375  1
  Te  Te74  1  0.09676057  0.06355799  0.78322582  1
  Te  Te75  1  0.09162727  0.45563406  0.06672075  1
  Te  Te76  1  0.07380912  0.42123446  0.39829317  1
  Te  Te77  1  0.09061430  0.45051395  0.74622378  1
  Te  Te78  1  0.10898540  0.74128846  0.06805481  1
  Te  Te79  1  0.07306258  0.73538267  0.39318985  1
  Te  Te80  1  0.10273865  0.73101126  0.76221682  1
  Te  Te81  1  0.41221266  0.08909174  0.09078906  1
  Te  Te82  1  0.40534612  0.09972763  0.40908783  1
  Te  Te83  1  0.42659913  0.07697105  0.75689913  1
  Te  Te84  1  0.43864336  0.45211221  0.06404810  1
  Te  Te85  1  0.42900630  0.42889851  0.41470759  1
  Te  Te86  1  0.41365616  0.46714002  0.75410439  1
  Te  Te87  1  0.42078925  0.72583365  0.09940091  1
  Te  Te88  1  0.43104397  0.71384284  0.40148281  1
  Te  Te89  1  0.39096838  0.72680077  0.75270685  1
  Te  Te90  1  0.76472379  0.10114686  0.06953331  1
  Te  Te91  1  0.74421898  0.08703708  0.41742991  1
  Te  Te92  1  0.75629616  0.08762107  0.74849209  1
  Te  Te93  1  0.76277779  0.42085850  0.08739974  1
  Te  Te94  1  0.75160799  0.42612749  0.42444547  1
  Te  Te95  1  0.73937771  0.39294046  0.74692502  1
  Te  Te96  1  0.73330407  0.68900664  0.11527411  1
  Te  Te97  1  0.73047282  0.73634285  0.40323944  1
  Te  Te98  1  0.70326876  0.70439170  0.72710058  1
  Te  Te99  1  0.05902379  0.26894401  0.23807015  1
  Te  Te100  1  0.08545294  0.25301381  0.59083162  1
  Te  Te101  1  0.07864192  0.25376196  0.92725787  1
  Te  Te102  1  0.03764776  0.59687733  0.23064005  1
  Te  Te103  1  0.08008090  0.57237345  0.57290724  1
  Te  Te104  1  0.10767239  0.56798389  0.90015358  1
  Te  Te105  1  0.07446850  0.91018202  0.23802693  1
  Te  Te106  1  0.08182882  0.90316399  0.58269880  1
  Te  Te107  1  0.09191084  0.91105382  0.93071076  1
  Te  Te108  1  0.42692918  0.24903689  0.25964098  1
  Te  Te109  1  0.40744551  0.26382818  0.56512785  1
  Te  Te110  1  0.41468197  0.26730601  0.91873374  1
  Te  Te111  1  0.44905823  0.58617592  0.27456564  1
  Te  Te112  1  0.44045871  0.57766215  0.60595836  1
  Te  Te113  1  0.41336686  0.57231516  0.91009080  1
  Te  Te114  1  0.41206747  0.90832551  0.26429008  1
  Te  Te115  1  0.41739092  0.90171694  0.58584434  1
  Te  Te116  1  0.42159979  0.92865355  0.92193056  1
  Te  Te117  1  0.76534369  0.25817513  0.23662097  1
  Te  Te118  1  0.72654764  0.30438537  0.61724780  1
  Te  Te119  1  0.77428066  0.25292696  0.93131945  1
  Te  Te120  1  0.75480215  0.58752452  0.25819865  1
  Te  Te121  1  0.75458970  0.57909446  0.57472997  1
  Te  Te122  1  0.72720065  0.56194792  0.91894240  1
  Te  Te123  1  0.75289279  0.89354452  0.22891632  1
  Te  Te124  1  0.74160512  0.90203472  0.58769718  1
  Te  Te125  1  0.75830624  0.91526378  0.92119495  1
  Te  Te126  1  0.23899429  0.24544871  0.06031507  1
  Te  Te127  1  0.24074323  0.23873005  0.42547568  1
  Te  Te128  1  0.24907201  0.26026963  0.75075612  1
  Te  Te129  1  0.23645414  0.57580365  0.09985704  1
  Te  Te130  1  0.25014037  0.57778285  0.39942262  1
  Te  Te131  1  0.21076064  0.55832653  0.79417935  1
  Te  Te132  1  0.22054369  0.89938599  0.08813396  1
  Te  Te133  1  0.24923430  0.90646214  0.42896316  1
  Te  Te134  1  0.24020664  0.91561627  0.77339320  1
  Te  Te135  1  0.58991004  0.25647018  0.09255885  1
  Te  Te136  1  0.58027551  0.24696142  0.41339390  1
  Te  Te137  1  0.58117470  0.27047233  0.75866124  1
  Te  Te138  1  0.57465487  0.61894006  0.09694413  1
  Te  Te139  1  0.55741329  0.59924736  0.38854287  1
  Te  Te140  1  0.59912457  0.58918386  0.73225213  1
  Te  Te141  1  0.59391113  0.89039859  0.09073225  1
  Te  Te142  1  0.58390214  0.90469535  0.41858966  1
  Te  Te143  1  0.56662575  0.90211116  0.76502420  1
  Te  Te144  1  0.92651769  0.27189072  0.12290130  1
  Te  Te145  1  0.92290983  0.27156949  0.39479117  1
  Te  Te146  1  0.90208467  0.28893334  0.77459670  1
  Te  Te147  1  0.93162528  0.58685907  0.10798952  1
  Te  Te148  1  0.93819510  0.56284838  0.40210810  1
  Te  Te149  1  0.91958703  0.58019756  0.76696499  1
  Te  Te150  1  0.91061351  0.91089033  0.06906341  1
  Te  Te151  1  0.92893991  0.92751737  0.36953951  1
  Te  Te152  1  0.92002443  0.92180909  0.73767193  1
  Te  Te153  1  0.22126528  0.06252526  0.21284486  1
  Te  Te154  1  0.27213162  0.09649185  0.57969009  1
  Te  Te155  1  0.23307162  0.08825687  0.93197290  1
  Te  Te156  1  0.25620003  0.41442197  0.24119725  1
  Te  Te157  1  0.24541111  0.44147656  0.59718165  1
  Te  Te158  1  0.26016577  0.44666238  0.90646639  1
  Te  Te159  1  0.25860802  0.71752333  0.25569806  1
  Te  Te160  1  0.26828158  0.71256666  0.59692152  1
  Te  Te161  1  0.23035268  0.75507277  0.94137279  1
  Te  Te162  1  0.56527798  0.08081688  0.26650264  1
  Te  Te163  1  0.58117875  0.08911120  0.58485410  1
  Te  Te164  1  0.57983679  0.07351411  0.90713537  1
  Te  Te165  1  0.57938136  0.43317950  0.25802982  1
  Te  Te166  1  0.56797080  0.46141140  0.61023713  1
  Te  Te167  1  0.59468266  0.45833518  0.91875495  1
  Te  Te168  1  0.60776033  0.72466254  0.20921900  1
  Te  Te169  1  0.54583599  0.69145773  0.57174293  1
  Te  Te170  1  0.59867585  0.73101177  0.93205520  1
  Te  Te171  1  0.94625273  0.09372421  0.22373813  1
  Te  Te172  1  0.90409751  0.09392299  0.56556167  1
  Te  Te173  1  0.92986824  0.10722770  0.93773034  1
  Te  Te174  1  0.94036953  0.39604853  0.21275045  1
  Te  Te175  1  0.92549307  0.43528405  0.57447094  1
  Te  Te176  1  0.92222221  0.42993252  0.90571369  1
  Te  Te177  1  0.92469444  0.71267656  0.23717207  1
  Te  Te178  1  0.90727638  0.75064046  0.57687226  1
  Te  Te179  1  0.91074571  0.74610622  0.91967744  1
