# generated using pymatgen
data_In2Te3
_symmetry_space_group_name_H-M   'P 1'
_cell_length_a   19.04327653
_cell_length_b   19.01806810
_cell_length_c   19.02030555
_cell_angle_alpha   89.91186921
_cell_angle_beta   90.37080029
_cell_angle_gamma   89.76645242
_symmetry_Int_Tables_number   1
_chemical_formula_structural   In2Te3
_chemical_formula_sum   'In72 Te108'
_cell_volume   6888.30434438
_cell_formula_units_Z   36
loop_
 _symmetry_equiv_pos_site_id
 _symmetry_equiv_pos_as_xyz
  1  'x, y, z'
loop_
 _atom_site_type_symbol
 _atom_site_label
 _atom_site_symmetry_multiplicity
 _atom_site_fract_x
 _atom_site_fract_y
 _atom_site_fract_z
 _atom_site_occupancy
  In  In0  1  0.20384956  0.67229677  0.16348278  1
  In  In1  1  0.81323206  0.65987105  0.51626631  1
  In  In2  1  0.01792345  0.33134490  0.66713533  1
  In  In3  1  0.83339796  0.85650683  -0.01544551  1
  In  In4  1  -0.00311925  0.50226387  0.82934114  1
  In  In5  1  0.17286860  -0.06003586  0.49754063  1
  In  In6  1  0.36019975  0.64781537  0.31262351  1
  In  In7  1  0.85461634  0.69852845  0.13490211  1
  In  In8  1  0.17140116  0.47895830  0.33250723  1
  In  In9  1  -0.01398008  0.33483457  0.00386029  1
  In  In10  1  0.30667235  0.16166115  0.19358301  1
  In  In11  1  0.00282374  0.67134071  -0.03834900  1
  In  In12  1  0.65923004  0.83192867  0.83537012  1
  In  In13  1  0.46493367  0.32172457  0.53256209  1
  In  In14  1  0.10825640  0.81616589  0.75302965  1
  In  In15  1  0.65375378  0.03088225  -0.00200119  1
  In  In16  1  0.47061421  -0.02027561  0.80866429  1
  In  In17  1  0.78384228  0.38151920  0.22071415  1
  In  In18  1  0.16410048  -0.00300976  0.82003347  1
  In  In19  1  0.34672727  0.83498816  0.16672685  1
  In  In20  1  -0.00120542  0.52783449  0.14252827  1
  In  In21  1  0.16843551  0.16977651  -0.00763992  1
  In  In22  1  0.33165814  -0.02334033  -0.02474820  1
  In  In23  1  0.31138461  0.51998513  0.82378559  1
  In  In24  1  0.80457117  0.49965290  0.68618680  1
  In  In25  1  0.79667793  0.66444452  0.83607263  1
  In  In26  1  0.66161189  0.66956707  0.66572094  1
  In  In27  1  -0.00096405  0.00189450  -0.01868458  1
  In  In28  1  0.87275321  -0.01134648  0.18845828  1
  In  In29  1  0.84807056  0.00627792  0.47888248  1
  In  In30  1  0.66519881  0.86495268  0.16633582  1
  In  In31  1  0.50326300  0.00792055  0.52921032  1
  In  In32  1  0.63833497  0.35336319  0.01101225  1
  In  In33  1  0.80665186  0.32641265  0.82878777  1
  In  In34  1  0.83617385  0.18001129  0.64503984  1
  In  In35  1  0.01465948  -0.01192997  0.35250900  1
  In  In36  1  0.84795079  0.02571221  0.80536151  1
  In  In37  1  0.02761828  0.14976436  0.18664307  1
  In  In38  1  0.17614427  0.33970366  0.84218424  1
  In  In39  1  0.32122389  -0.03819586  0.65560452  1
  In  In40  1  0.48977892  0.82193035  0.34743769  1
  In  In41  1  0.35393345  0.34859118  0.34768172  1
  In  In42  1  0.51842456  0.65159909  0.17230148  1
  In  In43  1  0.00174576  0.51238168  0.52022752  1
  In  In44  1  0.65191292  0.01448934  0.68759268  1
  In  In45  1  0.16063496  0.16072176  0.67260373  1
  In  In46  1  0.66607386  0.83203171  0.51353860  1
  In  In47  1  0.50339204  0.00968073  0.14170084  1
  In  In48  1  0.49014381  0.14218320  0.34264682  1
  In  In49  1  0.24725762  0.30398320  0.54088537  1
  In  In50  1  0.66635175  0.51054560  0.15659230  1
  In  In51  1  -0.01214953  0.33690931  0.33901344  1
  In  In52  1  0.18139559  0.80968095  -0.01588364  1
  In  In53  1  0.33543349  0.50709155  0.52974151  1
  In  In54  1  0.14585737  0.33291674  0.17245465  1
  In  In55  1  0.81224507  0.36619889  0.47766846  1
  In  In56  1  0.41478832  0.40343521  -0.02413094  1
  In  In57  1  0.85143802  0.84619931  0.62513630  1
  In  In58  1  0.76040601  0.52993001  0.34800890  1
  In  In59  1  0.49323363  0.16975312  -0.01352120  1
  In  In60  1  0.04291284  0.80704179  0.21147564  1
  In  In61  1  0.32986409  -0.00403423  0.36407367  1
  In  In62  1  0.65485126  0.17908644  0.52132289  1
  In  In63  1  0.02381224  -0.01245987  0.64997363  1
  In  In64  1  0.17113805  0.65533896  0.51726443  1
  In  In65  1  0.82318999  0.19748547  0.01273456  1
  In  In66  1  0.01026860  0.65129606  0.36419409  1
  In  In67  1  0.47790916  0.32597112  0.80311856  1
  In  In68  1  0.34416314  0.64039903  0.00489624  1
  In  In69  1  0.69639147  0.18861903  0.14898337  1
  In  In70  1  0.68290267  0.00276351  0.33006876  1
  In  In71  1  0.49308157  0.50629548  0.67996961  1
  Te  Te72  1  0.09515509  0.06942001  0.07761421  1
  Te  Te73  1  0.10476545  0.05973203  0.44452504  1
  Te  Te74  1  0.06022205  0.08701121  0.75969154  1
  Te  Te75  1  0.08524924  0.42773663  0.06923034  1
  Te  Te76  1  0.07910891  0.41613606  0.43199528  1
  Te  Te77  1  0.10071583  0.43035214  0.74517324  1
  Te  Te78  1  0.08177690  0.73602054  0.08345393  1
  Te  Te79  1  0.10456375  0.74529235  0.42079396  1
  Te  Te80  1  0.11865842  0.67123166  0.77088871  1
  Te  Te81  1  0.39332265  0.08786529  0.07441187  1
  Te  Te82  1  0.40152210  0.09367391  0.45411096  1
  Te  Te83  1  0.38726832  0.06945671  0.73057301  1
  Te  Te84  1  0.46164494  0.43421734  0.11447615  1
  Te  Te85  1  0.43534965  0.43812658  0.43906473  1
  Te  Te86  1  0.38175833  0.42014521  0.73377894  1
  Te  Te87  1  0.42934753  0.74233076  0.08602020  1
  Te  Te88  1  0.45295681  0.69841999  0.41441844  1
  Te  Te89  1  0.37013214  0.82006557  0.68612410  1
  Te  Te90  1  0.76967080  0.06159109  0.09483990  1
  Te  Te91  1  0.74461935  0.10370072  0.42322776  1
  Te  Te92  1  0.74305935  0.11845162  0.74911214  1
  Te  Te93  1  0.76044682  0.41424589  0.07590276  1
  Te  Te94  1  0.68515282  0.41667031  0.41681314  1
  Te  Te95  1  0.71946151  0.43425051  0.78322659  1
  Te  Te96  1  0.74010081  0.77450516  0.06847167  1
  Te  Te97  1  0.74215231  0.74750336  0.42321911  1
  Te  Te98  1  0.75653283  0.77530472  0.72851710  1
  Te  Te99  1  0.09573661  0.24373547  0.28339831  1
  Te  Te100  1  0.09484219  0.25010836  0.57109434  1
  Te  Te101  1  0.07189680  0.25268251  0.91074665  1
  Te  Te102  1  0.09341678  0.58293664  0.24927102  1
  Te  Te103  1  0.06744447  0.60754269  0.61151119  1
  Te  Te104  1  0.10105383  0.57536612  0.90824415  1
  Te  Te105  1  0.11007118  0.92614082  0.25776005  1
  Te  Te106  1  0.09925152  0.86330170  0.61018753  1
  Te  Te107  1  0.07822166  0.89820672  0.90528967  1
  Te  Te108  1  0.41883188  0.24143397  0.25304471  1
  Te  Te109  1  0.36557240  0.25330592  0.61614721  1
  Te  Te110  1  0.39899092  0.25835453  0.91265652  1
  Te  Te111  1  0.42967276  0.54322122  0.22978557  1
  Te  Te112  1  0.41001863  0.60875148  0.60785196  1
  Te  Te113  1  0.42602595  0.56802213  0.90459961  1
  Te  Te114  1  0.42980147  0.93377669  0.24988988  1
  Te  Te115  1  0.41702193  0.88940216  0.55599324  1
  Te  Te116  1  0.42437464  0.88561245  0.91134111  1
  Te  Te117  1  0.73874428  0.25307981  0.27178820  1
  Te  Te118  1  0.74254987  0.28346078  0.58727196  1
  Te  Te119  1  0.71456968  0.24976263  0.92366476  1
  Te  Te120  1  0.76269038  0.61218489  0.21826581  1
  Te  Te121  1  0.71931003  0.55942527  0.57578108  1
  Te  Te122  1  0.70227653  0.61443360  0.93616710  1
  Te  Te123  1  0.77515486  0.90271640  0.26503304  1
  Te  Te124  1  0.74307037  0.95380967  0.58422180  1
  Te  Te125  1  0.74582305  0.94727473  0.89797325  1
  Te  Te126  1  0.24653340  0.25530163  0.08857700  1
  Te  Te127  1  0.26104150  0.25317371  0.40488509  1
  Te  Te128  1  0.24940734  0.25160128  0.74806944  1
  Te  Te129  1  0.25894038  0.56024484  0.09274714  1
  Te  Te130  1  0.25814198  0.57791329  0.40618631  1
  Te  Te131  1  0.25892401  0.62332115  0.72628148  1
  Te  Te132  1  0.24627121  0.90851890  0.07986491  1
  Te  Te133  1  0.29271478  0.87522854  0.43934841  1
  Te  Te134  1  0.24527040  0.87665663  0.77356343  1
  Te  Te135  1  0.56839425  0.24733843  0.09269690  1
  Te  Te136  1  0.55515731  0.24712616  0.42957209  1
  Te  Te137  1  0.57482834  0.26611738  0.71281879  1
  Te  Te138  1  0.58947702  0.59054352  0.05656436  1
  Te  Te139  1  0.61216476  0.53746028  0.34391071  1
  Te  Te140  1  0.57901807  0.59646251  0.76396463  1
  Te  Te141  1  0.57498513  0.91266140  0.05169885  1
  Te  Te142  1  0.58047106  0.93374647  0.41635859  1
  Te  Te143  1  0.57028346  0.89607814  0.72960499  1
  Te  Te144  1  0.93000023  0.24249056  0.10954038  1
  Te  Te145  1  0.90498001  0.26408889  0.43330439  1
  Te  Te146  1  0.91616309  0.25579963  0.74947864  1
  Te  Te147  1  0.90339246  0.58964542  0.04176505  1
  Te  Te148  1  0.90031295  0.55760056  0.41269971  1
  Te  Te149  1  0.90180162  0.59391686  0.75227224  1
  Te  Te150  1  0.94022285  0.90302842  0.08390423  1
  Te  Te151  1  0.93068555  0.89758863  0.43090110  1
  Te  Te152  1  0.92427049  0.91473247  0.74111402  1
  Te  Te153  1  0.23714883  0.05599235  0.26535026  1
  Te  Te154  1  0.22581076  0.05837649  0.58230928  1
  Te  Te155  1  0.25499710  0.08595822  0.90049927  1
  Te  Te156  1  0.26111839  0.40750973  0.23723338  1
  Te  Te157  1  0.22066905  0.43966902  0.58737840  1
  Te  Te158  1  0.26605109  0.41994314  0.93118539  1
  Te  Te159  1  0.26462999  0.75982688  0.26799869  1
  Te  Te160  1  0.27423896  0.72134458  0.60431703  1
  Te  Te161  1  0.28103075  0.73613571  0.90979955  1
  Te  Te162  1  0.59454450  0.08577296  0.23611182  1
  Te  Te163  1  0.55741705  0.11394008  0.62132316  1
  Te  Te164  1  0.56448778  0.08250649  0.88867157  1
  Te  Te165  1  0.56425621  0.43148575  0.23285716  1
  Te  Te166  1  0.57013540  0.38755631  0.62131300  1
  Te  Te167  1  0.55042774  0.41478325  0.90608429  1
  Te  Te168  1  0.59004169  0.76398001  0.24999207  1
  Te  Te169  1  0.57029500  0.74247288  0.57503331  1
  Te  Te170  1  0.59413596  0.71280265  0.88922744  1
  Te  Te171  1  0.92275410  0.09500442  0.27985607  1
  Te  Te172  1  0.93211087  0.08624603  0.57582789  1
  Te  Te173  1  0.90557593  0.10446901  0.92171512  1
  Te  Te174  1  0.92668008  0.42759911  0.23391124  1
  Te  Te175  1  0.91081197  0.42181474  0.60088986  1
  Te  Te176  1  0.90159448  0.41744985  0.90924695  1
  Te  Te177  1  0.92459059  0.73733541  0.26531817  1
  Te  Te178  1  0.92552035  0.72954441  0.57923370  1
  Te  Te179  1  0.90291640  0.76076201  0.89139895  1
