# generated using pymatgen
data_In2Te3
_symmetry_space_group_name_H-M   'P 1'
_cell_length_a   18.94996370
_cell_length_b   18.94153561
_cell_length_c   18.94264320
_cell_angle_alpha   89.97907692
_cell_angle_beta   90.22507745
_cell_angle_gamma   89.89900943
_symmetry_Int_Tables_number   1
_chemical_formula_structural   In2Te3
_chemical_formula_sum   'In72 Te108'
_cell_volume   6799.23560512
_cell_formula_units_Z   36
loop_
 _symmetry_equiv_pos_site_id
 _symmetry_equiv_pos_as_xyz
  1  'x, y, z'
loop_
 _atom_site_type_symbol
 _atom_site_label
 _atom_site_symmetry_multiplicity
 _atom_site_fract_x
 _atom_site_fract_y
 _atom_site_fract_z
 _atom_site_occupancy
  In  In0  1  0.14873844  0.15419430  0.69535440  1
  In  In1  1  0.18057384  0.48064907  0.69504353  1
  In  In2  1  0.15276159  0.33960145  0.85245614  1
  In  In3  1  0.16598555  0.18287914  0.00317172  1
  In  In4  1  0.17969625  0.15075857  0.31673692  1
  In  In5  1  0.13529525  0.80771521  0.65440352  1
  In  In6  1  -0.04487277  0.32892517  0.68593118  1
  In  In7  1  0.33231611  0.65617066  0.32625591  1
  In  In8  1  0.00321721  0.35084650  -0.00525403  1
  In  In9  1  -0.01500896  0.67033101  0.66898751  1
  In  In10  1  0.35599512  0.19467311  0.52892278  1
  In  In11  1  0.15957552  0.64138288  0.46136003  1
  In  In12  1  0.31173122  0.65726360  0.00070954  1
  In  In13  1  0.82207663  0.02416294  0.50452855  1
  In  In14  1  0.49823674  0.35372510  0.18728447  1
  In  In15  1  0.47617887  0.66712183  0.50371081  1
  In  In16  1  0.16521079  -0.01758836  0.14290467  1
  In  In17  1  0.37033500  0.32658398  0.65851534  1
  In  In18  1  0.65793359  0.18738309  0.17825316  1
  In  In19  1  -0.01328418  0.81330430  0.48950484  1
  In  In20  1  0.65063247  0.66796065  0.00291869  1
  In  In21  1  0.68524367  0.85563682  0.85043313  1
  In  In22  1  0.01479108  0.65323591  0.01070122  1
  In  In23  1  0.32435965  0.37514548  0.32354222  1
  In  In24  1  0.00786568  0.65324778  0.29509451  1
  In  In25  1  0.00463942  0.48730043  0.53252964  1
  In  In26  1  0.17744278  0.33962061  0.49962962  1
  In  In27  1  -0.00223860  0.18375442  0.51846880  1
  In  In28  1  0.51478157  0.66891182  0.16881170  1
  In  In29  1  0.53299358  0.15366093  0.00642704  1
  In  In30  1  0.32883207  0.81412850  0.83966261  1
  In  In31  1  0.34919474  -0.01406945  0.67684033  1
  In  In32  1  0.20854396  -0.01005659  0.49319922  1
  In  In33  1  0.56887675  0.07728611  0.47360575  1
  In  In34  1  0.82532280  0.66043931  0.50415164  1
  In  In35  1  -0.03016719  0.84405818  0.86691121  1
  In  In36  1  0.82067344  0.15411103  0.31308089  1
  In  In37  1  0.66603523  0.87115208  0.49978894  1
  In  In38  1  0.33819107  0.81976364  0.46419169  1
  In  In39  1  0.49836241  0.83312397  0.66113446  1
  In  In40  1  0.51539703  0.48843208  0.00126342  1
  In  In41  1  0.15702534  -0.03111661  0.85132035  1
  In  In42  1  0.36843321  0.50486123  0.81477808  1
  In  In43  1  0.51073028  0.01436085  0.15027159  1
  In  In44  1  0.37108496  0.17142545  0.15278694  1
  In  In45  1  0.36567711  -0.00864260  0.33084503  1
  In  In46  1  0.83003368  0.65111295  0.15187538  1
  In  In47  1  0.81940020  0.37932771  0.13629829  1
  In  In48  1  -0.00697773  0.17117791  0.17166619  1
  In  In49  1  0.81179249  0.67480630  0.83926037  1
  In  In50  1  0.82228265  0.31885677  0.86090834  1
  In  In51  1  0.83900957  0.48624967  0.34964144  1
  In  In52  1  0.49965619  0.85895119  -0.01117878  1
  In  In53  1  0.01751406  -0.00401388  0.34069575  1
  In  In54  1  0.32875943  0.64973004  0.65416170  1
  In  In55  1  -0.00877041  -0.03686950  0.68720082  1
  In  In56  1  0.35948194  0.32017561  -0.00891435  1
  In  In57  1  0.50449637  0.49489965  0.33861146  1
  In  In58  1  0.33672745  0.15527619  0.81924069  1
  In  In59  1  -0.03914677  0.83902498  0.13948946  1
  In  In60  1  0.76798121  0.15591811  0.68776890  1
  In  In61  1  0.63443077  0.52780809  0.81984501  1
  In  In62  1  0.68412365  0.32477344  0.65930390  1
  In  In63  1  0.83123111  0.50037165  0.66435814  1
  In  In64  1  0.17110497  0.49951308  0.01231212  1
  In  In65  1  0.82034966  0.14820902  0.00255029  1
  In  In66  1  0.51719454  0.02737354  0.81825098  1
  In  In67  1  0.66806206  0.67987523  0.32688842  1
  In  In68  1  0.68705054  0.49351196  0.50781282  1
  In  In69  1  0.32510812  0.82886531  0.16188217  1
  In  In70  1  0.80025918  0.87339809  0.29142795  1
  In  In71  1  -0.00511612  0.33786396  0.33134615  1
  Te  Te72  1  0.07459985  0.08589152  0.07601504  1
  Te  Te73  1  0.09182775  0.09768727  0.43167398  1
  Te  Te74  1  0.06128449  0.06451148  0.77804196  1
  Te  Te75  1  0.10723986  0.39210893  0.08891928  1
  Te  Te76  1  0.08465867  0.42724622  0.41735026  1
  Te  Te77  1  0.06012003  0.41714471  0.75848059  1
  Te  Te78  1  0.07368012  0.75625575  0.09844896  1
  Te  Te79  1  0.08479225  0.75161639  0.39252846  1
  Te  Te80  1  0.06015193  0.75379482  0.77065855  1
  Te  Te81  1  0.41177464  0.07169426  0.04807116  1
  Te  Te82  1  0.41369701  0.08313501  0.43862265  1
  Te  Te83  1  0.43686358  0.10327811  0.71277017  1
  Te  Te84  1  0.40638050  0.42689642  0.08862803  1
  Te  Te85  1  0.41980469  0.41328531  0.42736932  1
  Te  Te86  1  0.44830792  0.38839232  0.76927140  1
  Te  Te87  1  0.42796223  0.74536106  0.06926429  1
  Te  Te88  1  0.44267061  0.75100481  0.38134865  1
  Te  Te89  1  0.41779282  0.73678319  0.74574856  1
  Te  Te90  1  0.74141592  0.08045972  0.11286429  1
  Te  Te91  1  0.72974132  0.06409520  0.39070415  1
  Te  Te92  1  0.71712034  0.10568201  0.81985437  1
  Te  Te93  1  0.71497702  0.45210452  0.06506386  1
  Te  Te94  1  0.73830103  0.39698218  0.40877719  1
  Te  Te95  1  0.74671283  0.42222748  0.76241221  1
  Te  Te96  1  0.73431476  0.74888821  0.09414855  1
  Te  Te97  1  0.75545729  0.76485500  0.41854294  1
  Te  Te98  1  0.71716055  0.74814652  0.75516598  1
  Te  Te99  1  0.09401491  0.25521558  0.24812882  1
  Te  Te100  1  0.08720771  0.27106805  0.60529350  1
  Te  Te101  1  0.05920085  0.23540005  0.90823561  1
  Te  Te102  1  0.12223312  0.57572145  0.24706987  1
  Te  Te103  1  0.09774570  0.58916765  0.59791119  1
  Te  Te104  1  0.09182773  0.57269343  0.91417335  1
  Te  Te105  1  0.07127857  0.90586398  0.23271514  1
  Te  Te106  1  0.08240643  0.91812238  0.56301327  1
  Te  Te107  1  0.07418477  0.90448825  0.95246390  1
  Te  Te108  1  0.41136367  0.25835328  0.26818250  1
  Te  Te109  1  0.47401528  0.27383557  0.56718144  1
  Te  Te110  1  0.44031270  0.22651315  0.90420394  1
  Te  Te111  1  0.42157413  0.57151392  0.23659177  1
  Te  Te112  1  0.44235950  0.56223014  0.60737564  1
  Te  Te113  1  0.42594999  0.58831593  0.92678956  1
  Te  Te114  1  0.43784611  0.90603481  0.23072575  1
  Te  Te115  1  0.41373377  0.91265709  0.56263742  1
  Te  Te116  1  0.41497667  0.92924242  0.88253865  1
  Te  Te117  1  0.76719601  0.27462483  0.23761835  1
  Te  Te118  1  0.74321396  0.22962263  0.55925475  1
  Te  Te119  1  0.72711532  0.25026019  0.94928439  1
  Te  Te120  1  0.75349388  0.57517889  0.25990012  1
  Te  Te121  1  0.73401332  0.60205770  0.60839895  1
  Te  Te122  1  0.73880565  0.57128127  0.92596624  1
  Te  Te123  1  0.71613435  0.95432048  0.20179503  1
  Te  Te124  1  0.74639400  0.94278397  0.60058746  1
  Te  Te125  1  0.78486649  0.91916184  0.94368300  1
  Te  Te126  1  0.26215989  0.25947833  0.09258759  1
  Te  Te127  1  0.25525495  0.23885986  0.41704688  1
  Te  Te128  1  0.24623344  0.25981713  0.75359779  1
  Te  Te129  1  0.23417007  0.59365286  0.10968176  1
  Te  Te130  1  0.28238873  0.56867338  0.43466884  1
  Te  Te131  1  0.24708215  0.59328550  0.76882608  1
  Te  Te132  1  0.26042115  0.91115837  0.05814190  1
  Te  Te133  1  0.24735460  0.90560695  0.37585671  1
  Te  Te134  1  0.23359611  0.90437192  0.72969957  1
  Te  Te135  1  0.57901548  0.27599616  0.08300060  1
  Te  Te136  1  0.61507426  0.18597219  0.38145036  1
  Te  Te137  1  0.63235734  0.21690599  0.75192534  1
  Te  Te138  1  0.60514922  0.55434914  0.10873836  1
  Te  Te139  1  0.59208129  0.59238611  0.42642798  1
  Te  Te140  1  0.53443804  0.58807169  0.73177594  1
  Te  Te141  1  0.60230092  0.92241384  0.07651265  1
  Te  Te142  1  0.57456532  0.94271726  0.41118425  1
  Te  Te143  1  0.59174811  0.92158795  0.74085880  1
  Te  Te144  1  0.90674973  0.25782126  0.08180052  1
  Te  Te145  1  0.91105073  0.23812507  0.40812900  1
  Te  Te146  1  0.89132188  0.22226214  0.76505991  1
  Te  Te147  1  0.92727926  0.56264467  0.08850038  1
  Te  Te148  1  0.93357551  0.58507198  0.42971518  1
  Te  Te149  1  0.91256460  0.58011053  0.76351645  1
  Te  Te150  1  0.89162430  0.94131471  0.05704151  1
  Te  Te151  1  0.90821741  0.92241090  0.41711061  1
  Te  Te152  1  0.88152935  0.91148104  0.76795523  1
  Te  Te153  1  0.27146875  0.07083314  0.22762639  1
  Te  Te154  1  0.25015719  0.09476368  0.59951236  1
  Te  Te155  1  0.23951228  0.08584142  0.91134854  1
  Te  Te156  1  0.21610365  0.45265872  0.26769973  1
  Te  Te157  1  0.26956710  0.42037834  0.58981615  1
  Te  Te158  1  0.27397188  0.41489985  0.90580547  1
  Te  Te159  1  0.24245512  0.73873776  0.24263967  1
  Te  Te160  1  0.24904500  0.74967055  0.56629144  1
  Te  Te161  1  0.22988677  0.75619908  0.92783126  1
  Te  Te162  1  0.55536682  0.11139538  0.25826487  1
  Te  Te163  1  0.64710657  0.10826461  0.60008320  1
  Te  Te164  1  0.61628015  0.05566550  0.92880874  1
  Te  Te165  1  0.60308599  0.40269216  0.27923051  1
  Te  Te166  1  0.59267949  0.42188348  0.59490515  1
  Te  Te167  1  0.56884332  0.41121780  0.88627649  1
  Te  Te168  1  0.61344034  0.76743470  0.22030659  1
  Te  Te169  1  0.58350657  0.75548905  0.56435920  1
  Te  Te170  1  0.57729386  0.75808045  0.90591447  1
  Te  Te171  1  0.91876932  0.06120778  0.24355033  1
  Te  Te172  1  0.93040146  0.07829195  0.59981208  1
  Te  Te173  1  0.88934411  0.03675800  0.93045384  1
  Te  Te174  1  0.92677499  0.43393464  0.23671318  1
  Te  Te175  1  0.88901354  0.39702326  0.56723534  1
  Te  Te176  1  0.90746922  0.42567988  0.91379386  1
  Te  Te177  1  0.89847472  0.75288270  0.25894144  1
  Te  Te178  1  0.89222983  0.76582093  0.59721458  1
  Te  Te179  1  0.89805170  0.73648826  0.94508380  1
