# generated using pymatgen
data_In2Te3
_symmetry_space_group_name_H-M   'P 1'
_cell_length_a   18.77648353
_cell_length_b   18.77558907
_cell_length_c   18.77748942
_cell_angle_alpha   89.93576621
_cell_angle_beta   90.03793050
_cell_angle_gamma   89.95040242
_symmetry_Int_Tables_number   1
_chemical_formula_structural   In2Te3
_chemical_formula_sum   'In72 Te108'
_cell_volume   6619.79936956
_cell_formula_units_Z   36
loop_
 _symmetry_equiv_pos_site_id
 _symmetry_equiv_pos_as_xyz
  1  'x, y, z'
loop_
 _atom_site_type_symbol
 _atom_site_label
 _atom_site_symmetry_multiplicity
 _atom_site_fract_x
 _atom_site_fract_y
 _atom_site_fract_z
 _atom_site_occupancy
  In  In0  1  0.18403337  0.83860967  0.00161655  1
  In  In1  1  -0.00703608  0.02895511  0.01361841  1
  In  In2  1  0.63743073  0.32997187  0.33626630  1
  In  In3  1  0.34898803  0.00995302  0.32967059  1
  In  In4  1  0.00708318  -0.00733791  0.34253649  1
  In  In5  1  0.82080823  0.67366633  0.49144200  1
  In  In6  1  0.81867165  0.31211731  0.49349579  1
  In  In7  1  0.64653217  0.66659265  0.30637436  1
  In  In8  1  0.03010453  0.19288248  0.17854003  1
  In  In9  1  0.49666633  -0.01315274  0.16733373  1
  In  In10  1  0.34552521  0.50711573  0.83593684  1
  In  In11  1  0.50892607  0.51299628  0.67110181  1
  In  In12  1  0.17874617  0.16768846  0.66726738  1
  In  In13  1  -0.00310544  0.83917871  0.18215575  1
  In  In14  1  0.15480664  0.19239229  0.00262957  1
  In  In15  1  0.18789055  0.64277511  0.49570030  1
  In  In16  1  0.13993076  0.49310990  0.00133022  1
  In  In17  1  0.49962267  0.69418669  0.49444502  1
  In  In18  1  0.66120103  0.50683467  0.83399906  1
  In  In19  1  0.82280315  0.15670110  0.34411451  1
  In  In20  1  0.34713507  0.83119290  0.85267797  1
  In  In21  1  0.13572988  0.00488604  0.50025483  1
  In  In22  1  0.35773989  0.19298911  0.20393020  1
  In  In23  1  0.64788794  -0.00448651  0.35536311  1
  In  In24  1  0.33545701  0.14815159  0.81448871  1
  In  In25  1  0.83644960  0.47836749  -0.01605090  1
  In  In26  1  0.17668100  0.81497136  0.33769429  1
  In  In27  1  0.52836465  0.14318288  -0.01878810  1
  In  In28  1  0.32807920  0.47468543  0.46980475  1
  In  In29  1  0.82275522  0.83401251  0.32598976  1
  In  In30  1  0.34913946  0.17521386  0.48448722  1
  In  In31  1  0.50025803  0.49923315  0.31402949  1
  In  In32  1  0.50934676  0.52029047  0.03561953  1
  In  In33  1  0.18294279  -0.02117673  0.83165205  1
  In  In34  1  0.18165592  0.66661600  0.15811090  1
  In  In35  1  0.35554674  0.82648613  0.49150698  1
  In  In36  1  0.66059024  0.32573972  0.00224283  1
  In  In37  1  -0.00098326  0.50032847  0.16908258  1
  In  In38  1  0.49113806  0.83022851  0.65744644  1
  In  In39  1  0.81454765  0.00042471  0.18177098  1
  In  In40  1  0.16074678  0.31333394  0.82676821  1
  In  In41  1  -0.01327535  0.86118904  0.49603748  1
  In  In42  1  -0.00680996  0.82203342  0.81533352  1
  In  In43  1  -0.01357703  0.15372643  0.48613574  1
  In  In44  1  0.84047763  0.35505941  0.16303433  1
  In  In45  1  0.53063982  0.31267669  0.80946247  1
  In  In46  1  0.81072639  0.86030037  0.65476831  1
  In  In47  1  -0.00258269  0.18117500  0.83701696  1
  In  In48  1  0.83104027  0.66117646  0.83962088  1
  In  In49  1  0.82306913  0.49248322  0.67414275  1
  In  In50  1  -0.00050025  0.65768125  0.67984508  1
  In  In51  1  0.34852189  0.68403986  0.00882172  1
  In  In52  1  0.00486916  0.50813227  0.48156419  1
  In  In53  1  0.78376436  0.81151455  0.02436742  1
  In  In54  1  0.82314633  0.16145339  0.68320111  1
  In  In55  1  0.51787298  0.83240240  0.00173129  1
  In  In56  1  -0.00512860  0.64218557  -0.01079259  1
  In  In57  1  -0.01561985  -0.00531648  0.66136108  1
  In  In58  1  0.31080005  0.47724360  0.19974545  1
  In  In59  1  0.33970738  0.66084343  0.66608296  1
  In  In60  1  0.37111756  -0.00330645  0.66020228  1
  In  In61  1  0.81364621  0.17999224  -0.00690647  1
  In  In62  1  0.18429460  0.33870873  0.48897192  1
  In  In63  1  0.34849455  -0.02520803  0.01596093  1
  In  In64  1  0.66131915  0.82695323  0.83982034  1
  In  In65  1  0.65506083  0.01617186  0.65191609  1
  In  In66  1  0.68550846  0.48964144  0.50165162  1
  In  In67  1  0.00539863  0.33928993  0.67775237  1
  In  In68  1  0.50505949  0.32687312  0.50559163  1
  In  In69  1  -0.00192751  0.65823037  0.32101599  1
  In  In70  1  0.65399569  0.15757566  0.16397897  1
  In  In71  1  0.34872388  0.32955498  0.00829122  1
  Te  Te72  1  0.10462884  0.08289062  0.10053633  1
  Te  Te73  1  0.09779302  0.10648347  0.39209169  1
  Te  Te74  1  0.08304140  0.08035497  0.75255001  1
  Te  Te75  1  0.08816794  0.39846260  0.10437840  1
  Te  Te76  1  0.09556837  0.42245021  0.40023094  1
  Te  Te77  1  0.09849363  0.42461167  0.75216508  1
  Te  Te78  1  0.07323404  0.74910275  0.08272920  1
  Te  Te79  1  0.06758080  0.74609416  0.42666384  1
  Te  Te80  1  0.09775950  0.74824146  0.74488135  1
  Te  Te81  1  0.41359738  0.09585464  0.08175581  1
  Te  Te82  1  0.44488303  0.09126081  0.40974473  1
  Te  Te83  1  0.45464975  0.08991568  0.74419833  1
  Te  Te84  1  0.42078789  0.41818159  0.10794644  1
  Te  Te85  1  0.41720877  0.37940865  0.38419851  1
  Te  Te86  1  0.42718956  0.40971488  0.74861118  1
  Te  Te87  1  0.42426975  0.77067492  0.10249031  1
  Te  Te88  1  0.42711863  0.75677824  0.38083642  1
  Te  Te89  1  0.42903261  0.73827919  0.76320476  1
  Te  Te90  1  0.73713953  0.07119128  0.06996917  1
  Te  Te91  1  0.71487210  0.10690238  0.43384805  1
  Te  Te92  1  0.73558348  0.07160165  0.76866500  1
  Te  Te93  1  0.73143404  0.43028976  0.08687615  1
  Te  Te94  1  0.75578853  0.41163268  0.39264546  1
  Te  Te95  1  0.74135271  0.40632374  0.76174788  1
  Te  Te96  1  0.71624242  0.72047655  0.12169470  1
  Te  Te97  1  0.72167445  0.75433528  0.40891780  1
  Te  Te98  1  0.75307922  0.74857477  0.74269024  1
  Te  Te99  1  0.10000660  0.30056541  0.25152129  1
  Te  Te100  1  0.07495549  0.24019988  0.58010752  1
  Te  Te101  1  0.04790951  0.28749011  0.93820420  1
  Te  Te102  1  0.10527602  0.57473150  0.25383975  1
  Te  Te103  1  0.09138874  0.57091393  0.58983071  1
  Te  Te104  1  0.08900345  0.58226263  0.89480858  1
  Te  Te105  1  0.10470031  0.92115281  0.24976783  1
  Te  Te106  1  0.08924507  0.90072027  0.60403947  1
  Te  Te107  1  0.07434249  0.92264905  0.92443647  1
  Te  Te108  1  0.45641327  0.28097147  0.26943656  1
  Te  Te109  1  0.40561639  0.25862609  0.59250985  1
  Te  Te110  1  0.42331614  0.24320972  0.90604693  1
  Te  Te111  1  0.39973343  0.58598497  0.24850724  1
  Te  Te112  1  0.41625102  0.57464857  0.56173686  1
  Te  Te113  1  0.43732871  0.59498601  0.92189379  1
  Te  Te114  1  0.43458210  0.90142670  0.27328333  1
  Te  Te115  1  0.45322408  0.93787243  0.54089385  1
  Te  Te116  1  0.44015909  0.93909037  0.90364382  1
  Te  Te117  1  0.75170031  0.24599912  0.24057131  1
  Te  Te118  1  0.73465375  0.25339419  0.60277585  1
  Te  Te119  1  0.72870118  0.25116872  0.89231243  1
  Te  Te120  1  0.74324663  0.59785121  0.21796444  1
  Te  Te121  1  0.74094350  0.59580195  0.59644335  1
  Te  Te122  1  0.73908785  0.59002868  0.93670953  1
  Te  Te123  1  0.71373230  0.90750684  0.24621652  1
  Te  Te124  1  0.71632032  0.91753864  0.55359880  1
  Te  Te125  1  0.74641203  0.91358268  0.92654300  1
  Te  Te126  1  0.25380795  0.25505835  0.09978899  1
  Te  Te127  1  0.25162088  0.24455265  0.39402289  1
  Te  Te128  1  0.27360581  0.26440253  0.73430950  1
  Te  Te129  1  0.26218349  0.56839968  0.06885546  1
  Te  Te130  1  0.27014275  0.58568326  0.38814946  1
  Te  Te131  1  0.25051248  0.57391188  0.74517408  1
  Te  Te132  1  0.25660661  0.90819289  0.10864623  1
  Te  Te133  1  0.24393264  0.92159031  0.42768230  1
  Te  Te134  1  0.27342131  0.90401576  0.73722856  1
  Te  Te135  1  0.55961860  0.24967535  0.08720107  1
  Te  Te136  1  0.60069310  0.23003742  0.43975418  1
  Te  Te137  1  0.60160784  0.23050606  0.70580448  1
  Te  Te138  1  0.58936782  0.61394396  0.12292117  1
  Te  Te139  1  0.58205083  0.57306409  0.42348047  1
  Te  Te140  1  0.58810976  0.60640803  0.75255811  1
  Te  Te141  1  0.59845502  0.93542694  0.07243593  1
  Te  Te142  1  0.58388519  0.90704358  0.45737247  1
  Te  Te143  1  0.58051690  0.91745262  0.74512610  1
  Te  Te144  1  0.91423939  0.24396127  0.08890884  1
  Te  Te145  1  0.92571003  0.25898993  0.39496762  1
  Te  Te146  1  0.89858267  0.27123190  0.76213682  1
  Te  Te147  1  0.89934273  0.58172690  0.08653176  1
  Te  Te148  1  0.89376762  0.57690915  0.39967040  1
  Te  Te149  1  0.92175883  0.56073561  0.76925873  1
  Te  Te150  1  0.90680052  0.91819694  0.08620549  1
  Te  Te151  1  0.88356624  0.94145865  0.41678156  1
  Te  Te152  1  0.89460177  0.92697288  0.76427130  1
  Te  Te153  1  0.25822952  0.09353377  0.24802623  1
  Te  Te154  1  0.25602337  0.06882146  0.58150778  1
  Te  Te155  1  0.24135556  0.08917248  0.92086099  1
  Te  Te156  1  0.23195922  0.37968553  0.28149421  1
  Te  Te157  1  0.25427367  0.42291971  0.58709680  1
  Te  Te158  1  0.25192511  0.40629503  0.91864246  1
  Te  Te159  1  0.26953528  0.74594031  0.24674855  1
  Te  Te160  1  0.25289331  0.75319984  0.57835536  1
  Te  Te161  1  0.24175262  0.73397328  0.90858183  1
  Te  Te162  1  0.56351127  0.08842513  0.26351462  1
  Te  Te163  1  0.55066340  0.11668691  0.61175711  1
  Te  Te164  1  0.63574008  0.10393310  0.88880330  1
  Te  Te165  1  0.59056585  0.41809377  0.22796613  1
  Te  Te166  1  0.59613349  0.41147742  0.59614415  1
  Te  Te167  1  0.56015608  0.41962366  0.92606947  1
  Te  Te168  1  0.56415557  0.74469091  0.20568016  1
  Te  Te169  1  0.59624474  0.75062762  0.58963271  1
  Te  Te170  1  0.58976741  0.72843075  0.92526051  1
  Te  Te171  1  0.92621158  0.08596265  0.24203318  1
  Te  Te172  1  0.88953585  0.07536825  0.57356400  1
  Te  Te173  1  0.90085639  0.08514144  0.90679592  1
  Te  Te174  1  0.91673125  0.42477482  0.26761346  1
  Te  Te175  1  0.91246329  0.41626878  0.56993810  1
  Te  Te176  1  0.93614224  0.39774616  0.91706427  1
  Te  Te177  1  0.89791676  0.73649124  0.23567833  1
  Te  Te178  1  0.91301793  0.75317909  0.58738093  1
  Te  Te179  1  0.90797173  0.76180768  0.92991739  1
