# generated using pymatgen
data_In2Te3
_symmetry_space_group_name_H-M   'P 1'
_cell_length_a   18.90089026
_cell_length_b   18.91025707
_cell_length_c   18.92782802
_cell_angle_alpha   89.98999378
_cell_angle_beta   90.02143555
_cell_angle_gamma   90.04149724
_symmetry_Int_Tables_number   1
_chemical_formula_structural   In2Te3
_chemical_formula_sum   'In72 Te108'
_cell_volume   6765.19507107
_cell_formula_units_Z   36
loop_
 _symmetry_equiv_pos_site_id
 _symmetry_equiv_pos_as_xyz
  1  'x, y, z'
loop_
 _atom_site_type_symbol
 _atom_site_label
 _atom_site_symmetry_multiplicity
 _atom_site_fract_x
 _atom_site_fract_y
 _atom_site_fract_z
 _atom_site_occupancy
  In  In0  1  0.64647950  0.02551540  0.66601704  1
  In  In1  1  0.17107445  0.46454537  0.66502889  1
  In  In2  1  -0.01231394  0.48824488  0.50039271  1
  In  In3  1  0.31610358  0.66839788  0.65707638  1
  In  In4  1  0.82163082  0.83706293  -0.00105320  1
  In  In5  1  -0.01387663  0.84323635  0.86464193  1
  In  In6  1  0.33262048  0.00111618  -0.00741641  1
  In  In7  1  -0.03910541  0.87397845  0.47942426  1
  In  In8  1  0.63831261  0.12039636  0.17186062  1
  In  In9  1  0.51408009  0.65150060  0.18222693  1
  In  In10  1  0.68223001  0.16977330  0.82887039  1
  In  In11  1  0.14428046  0.65913184  0.84143077  1
  In  In12  1  0.65899522  0.32493222  0.33553768  1
  In  In13  1  0.68049222  0.31385634  0.65136290  1
  In  In14  1  0.49403143  0.01425856  0.83140404  1
  In  In15  1  0.69057871  0.52260459  0.86842301  1
  In  In16  1  0.34485780  0.85876472  0.83672248  1
  In  In17  1  0.83684167  0.68648657  0.15526281  1
  In  In18  1  0.82673504  0.32081132  0.48600391  1
  In  In19  1  0.34898450  0.31597463  0.32814492  1
  In  In20  1  -0.03064973  0.51533940  0.15833986  1
  In  In21  1  0.50766334  0.31063995  0.48518564  1
  In  In22  1  0.02602928  0.84175143  0.19587397  1
  In  In23  1  0.82164874  0.13902190  0.32878577  1
  In  In24  1  0.82099267  0.49607717  0.65678885  1
  In  In25  1  0.16068620  0.31526895  0.83517194  1
  In  In26  1  0.34554588  0.83389935  0.19904357  1
  In  In27  1  0.36115469  0.49046250  0.82747815  1
  In  In28  1  0.67803058  0.48647648  0.17663360  1
  In  In29  1  -0.01425032  0.66688562  0.34481072  1
  In  In30  1  0.14896689  0.51089158  0.33524301  1
  In  In31  1  0.52125200  0.48364363  0.65694835  1
  In  In32  1  0.34679140  0.50860419  0.15250724  1
  In  In33  1  0.67052668  0.85641322  0.83870405  1
  In  In34  1  0.83409335  0.32692699  0.83324505  1
  In  In35  1  0.35964979  -0.00296232  0.64550677  1
  In  In36  1  0.01495701  0.34364318  0.32309594  1
  In  In37  1  0.00981524  0.15879409  0.50639976  1
  In  In38  1  0.17984373  0.83197906  0.66523018  1
  In  In39  1  0.66410972  0.64958303  0.66949907  1
  In  In40  1  0.51364160  0.67124492  0.48206680  1
  In  In41  1  0.31791039  0.49223552  0.49905416  1
  In  In42  1  0.82808255  0.82285016  0.67150734  1
  In  In43  1  0.34521368  0.35193810  -0.01311027  1
  In  In44  1  0.34607690  0.17232185  0.18320341  1
  In  In45  1  0.50479540  0.49278966  0.02426879  1
  In  In46  1  0.16645544  0.14821873  -0.01300506  1
  In  In47  1  0.51998216  0.18209346  0.00134200  1
  In  In48  1  0.16252530  0.50884240  0.03030864  1
  In  In49  1  0.67088473  0.67267804  0.34400443  1
  In  In50  1  0.83119098  -0.00103397  0.16846890  1
  In  In51  1  0.16070018  0.16987711  0.66888705  1
  In  In52  1  0.33205722  0.69269743  0.01881242  1
  In  In53  1  0.18297191  0.13103745  0.34350005  1
  In  In54  1  0.49824544  0.85292632  0.34466097  1
  In  In55  1  -0.00333745  0.01343368  -0.00777090  1
  In  In56  1  0.50282817  0.69432180  0.84864682  1
  In  In57  1  0.51417679  0.34391899  0.82980147  1
  In  In58  1  0.84770609  0.33488202  0.16336861  1
  In  In59  1  -0.01846178  0.65957136  0.66379939  1
  In  In60  1  -0.00285826  0.49702686  0.85025102  1
  In  In61  1  -0.01044229  0.16448503  0.15752650  1
  In  In62  1  0.34729021  0.15479670  0.48601985  1
  In  In63  1  -0.02233128  0.16642615  0.83974955  1
  In  In64  1  0.14844083  0.82911830  0.01905571  1
  In  In65  1  0.64141257  0.89839426  0.15230972  1
  In  In66  1  0.66400251  0.83002223  0.50404215  1
  In  In67  1  0.50445342  0.00507435  0.49434782  1
  In  In68  1  0.16994142  0.33996719  0.15907464  1
  In  In69  1  0.15067721  0.68258486  0.49191379  1
  In  In70  1  -0.00597146  0.01535150  0.66145552  1
  In  In71  1  0.18787532  -0.03406697  0.47366926  1
  Te  Te72  1  0.09441241  0.07059777  0.09494829  1
  Te  Te73  1  0.07549542  0.05262791  0.41664405  1
  Te  Te74  1  0.08138517  0.08220124  0.76513115  1
  Te  Te75  1  0.05888434  0.41240961  0.08618064  1
  Te  Te76  1  0.09768210  0.40789447  0.43397421  1
  Te  Te77  1  0.06614773  0.40127579  0.75190758  1
  Te  Te78  1  0.05588432  0.74205682  0.09074955  1
  Te  Te79  1  0.06335200  0.77838436  0.41499996  1
  Te  Te80  1  0.07229195  0.75613362  0.74665486  1
  Te  Te81  1  0.42003624  0.09303996  0.07557569  1
  Te  Te82  1  0.41584555  0.06587189  0.38859210  1
  Te  Te83  1  0.42686363  0.09646510  0.72958100  1
  Te  Te84  1  0.42974389  0.38927945  0.10751458  1
  Te  Te85  1  0.42038247  0.41794554  0.41442085  1
  Te  Te86  1  0.41539923  0.39637191  0.72396108  1
  Te  Te87  1  0.43879676  0.75943845  0.10172877  1
  Te  Te88  1  0.41596105  0.74389392  0.40018182  1
  Te  Te89  1  0.40893658  0.75493052  0.74593905  1
  Te  Te90  1  0.74854418  0.08402804  0.08234059  1
  Te  Te91  1  0.76425665  0.04901238  0.42931297  1
  Te  Te92  1  0.76018695  0.08472456  0.73836474  1
  Te  Te93  1  0.76533793  0.42233803  0.07546346  1
  Te  Te94  1  0.75599033  0.41529325  0.40087643  1
  Te  Te95  1  0.72481842  0.42627503  0.75233824  1
  Te  Te96  1  0.72794399  0.77751946  0.10080150  1
  Te  Te97  1  0.76281195  0.75169643  0.42876813  1
  Te  Te98  1  0.74228401  0.73894842  0.76314772  1
  Te  Te99  1  0.10016740  0.23872901  0.25006729  1
  Te  Te100  1  0.08283234  0.25969580  0.58312350  1
  Te  Te101  1  0.06719990  0.24960404  0.93440050  1
  Te  Te102  1  0.07113967  0.59647160  0.23872069  1
  Te  Te103  1  0.09206448  0.58109870  0.59190760  1
  Te  Te104  1  0.06364005  0.59418433  0.95026549  1
  Te  Te105  1  0.13742624  0.91406400  0.26190088  1
  Te  Te106  1  0.07964644  0.91330536  0.58158631  1
  Te  Te107  1  0.10043365  0.92761125  0.91392516  1
  Te  Te108  1  0.45363938  0.22712445  0.26994191  1
  Te  Te109  1  0.42547352  0.23476816  0.58098423  1
  Te  Te110  1  0.42000046  0.25075780  0.90492530  1
  Te  Te111  1  0.40533641  0.58994317  0.25847454  1
  Te  Te112  1  0.41901775  0.57815559  0.58996621  1
  Te  Te113  1  0.41013541  0.58599278  0.94092521  1
  Te  Te114  1  0.44673014  0.94413736  0.23337183  1
  Te  Te115  1  0.41925338  0.90040812  0.55450747  1
  Te  Te116  1  0.44917491  0.90385933  0.93971049  1
  Te  Te117  1  0.75336661  0.23939837  0.23957352  1
  Te  Te118  1  0.75840617  0.21945748  0.56917641  1
  Te  Te119  1  0.73956019  0.26239989  0.92618436  1
  Te  Te120  1  0.76039857  0.59289535  0.24864007  1
  Te  Te121  1  0.75183046  0.59042952  0.56855371  1
  Te  Te122  1  0.77844105  0.61745450  0.93916824  1
  Te  Te123  1  0.74122321  0.92268195  0.25942205  1
  Te  Te124  1  0.74164953  0.92215518  0.59804826  1
  Te  Te125  1  0.77134109  0.94248732  0.90781325  1
  Te  Te126  1  0.25724410  0.25247449  0.07047888  1
  Te  Te127  1  0.24656474  0.24812006  0.41672538  1
  Te  Te128  1  0.25721963  0.24031765  0.75594341  1
  Te  Te129  1  0.24147215  0.61215501  0.10990783  1
  Te  Te130  1  0.24777415  0.59712104  0.41121538  1
  Te  Te131  1  0.24284393  0.57750459  0.75602005  1
  Te  Te132  1  0.26387786  0.90120198  0.08413721  1
  Te  Te133  1  0.25764834  0.89332049  0.36211366  1
  Te  Te134  1  0.25249050  0.93583454  0.74569848  1
  Te  Te135  1  0.59529658  0.24723839  0.10824613  1
  Te  Te136  1  0.60908699  0.21754478  0.42742708  1
  Te  Te137  1  0.58036350  0.24168645  0.74067192  1
  Te  Te138  1  0.60568906  0.58940435  0.07915044  1
  Te  Te139  1  0.58571527  0.56969358  0.40660766  1
  Te  Te140  1  0.56805083  0.57603559  0.77596814  1
  Te  Te141  1  0.57109058  0.94597598  0.03268677  1
  Te  Te142  1  0.61038143  0.93482619  0.40814866  1
  Te  Te143  1  0.56915962  0.91678162  0.74242230  1
  Te  Te144  1  0.90392735  0.23790441  0.06620518  1
  Te  Te145  1  0.92851241  0.24027907  0.39345840  1
  Te  Te146  1  0.90307649  0.24052624  0.73750952  1
  Te  Te147  1  0.86844725  0.57132980  0.05991959  1
  Te  Te148  1  0.90079468  0.58101141  0.42951458  1
  Te  Te149  1  0.90175811  0.57722625  0.75957309  1
  Te  Te150  1  0.93266131  0.90955066  0.08533552  1
  Te  Te151  1  0.85279223  0.93331531  0.39469918  1
  Te  Te152  1  0.91706980  0.91682045  0.75189585  1
  Te  Te153  1  0.25569348  0.06757101  0.23370347  1
  Te  Te154  1  0.23957660  0.07276227  0.56812822  1
  Te  Te155  1  0.26414549  0.08812314  0.89620046  1
  Te  Te156  1  0.24980319  0.42372978  0.25687799  1
  Te  Te157  1  0.26347244  0.38623864  0.58457525  1
  Te  Te158  1  0.23506331  0.43344082  0.91969195  1
  Te  Te159  1  0.21978211  0.77726792  0.26033012  1
  Te  Te160  1  0.26253978  0.76774788  0.55527734  1
  Te  Te161  1  0.24853653  0.75215497  0.90285800  1
  Te  Te162  1  0.53326246  0.07194432  0.26678906  1
  Te  Te163  1  0.58808703  0.11191043  0.55788127  1
  Te  Te164  1  0.59730721  0.07306670  0.92610771  1
  Te  Te165  1  0.57718411  0.42651615  0.26463259  1
  Te  Te166  1  0.60509445  0.40861687  0.55851510  1
  Te  Te167  1  0.59805290  0.41568605  0.93294763  1
  Te  Te168  1  0.58967565  0.76529680  0.25302146  1
  Te  Te169  1  0.57430825  0.74846656  0.59819572  1
  Te  Te170  1  0.60429364  0.75909427  0.92974758  1
  Te  Te171  1  0.93749805  0.06504920  0.25751183  1
  Te  Te172  1  0.89958887  0.08776207  0.57488654  1
  Te  Te173  1  0.88741024  0.07065466  0.91128161  1
  Te  Te174  1  0.90632643  0.43266780  0.26854172  1
  Te  Te175  1  0.91313885  0.39495979  0.59248098  1
  Te  Te176  1  0.90305399  0.41697590  0.92829767  1
  Te  Te177  1  0.90843329  0.76907922  0.26110115  1
  Te  Te178  1  0.91491422  0.75460893  0.56704194  1
  Te  Te179  1  0.89751931  0.73686306  0.91589445  1
