# generated using pymatgen
data_In2Te3
_symmetry_space_group_name_H-M   'P 1'
_cell_length_a   18.80799162
_cell_length_b   18.80566306
_cell_length_c   18.79808599
_cell_angle_alpha   90.24654950
_cell_angle_beta   90.04012709
_cell_angle_gamma   89.89510002
_symmetry_Int_Tables_number   1
_chemical_formula_structural   In2Te3
_chemical_formula_sum   'In72 Te108'
_cell_volume   6648.74769016
_cell_formula_units_Z   36
loop_
 _symmetry_equiv_pos_site_id
 _symmetry_equiv_pos_as_xyz
  1  'x, y, z'
loop_
 _atom_site_type_symbol
 _atom_site_label
 _atom_site_symmetry_multiplicity
 _atom_site_fract_x
 _atom_site_fract_y
 _atom_site_fract_z
 _atom_site_occupancy
  In  In0  1  -0.00533238  0.01324652  0.67160994  1
  In  In1  1  0.01094002  0.15841136  0.14768259  1
  In  In2  1  0.49193388  0.64820791  0.84665309  1
  In  In3  1  0.18258974  0.68634532  0.48856414  1
  In  In4  1  0.18235649  0.51076567  0.00951209  1
  In  In5  1  0.16948185  0.83320568  -0.01857316  1
  In  In6  1  0.32043388  0.17792810  0.17916422  1
  In  In7  1  0.82878488  0.83449162  -0.01680207  1
  In  In8  1  0.15921186  0.50486506  0.32182647  1
  In  In9  1  0.66028194  0.83103704  0.14894973  1
  In  In10  1  -0.00258002  0.82711678  0.17422046  1
  In  In11  1  -0.01324847  0.32674655  0.00192476  1
  In  In12  1  0.50349836  0.00814280  0.52414567  1
  In  In13  1  0.81615380  0.49405146  0.33037840  1
  In  In14  1  0.16075438  0.82585092  0.65654463  1
  In  In15  1  -0.01181785  0.49383086  0.52081416  1
  In  In16  1  0.49987396  0.32063053  0.52061104  1
  In  In17  1  0.14058516  0.00441015  0.83110805  1
  In  In18  1  0.34724886  0.51712074  0.53557216  1
  In  In19  1  0.82532298  0.67985409  0.49556999  1
  In  In20  1  0.84267682  0.50632193  0.66817056  1
  In  In21  1  0.01092180  0.82832578  0.49166330  1
  In  In22  1  0.50172306  0.83136223  0.34205932  1
  In  In23  1  0.18561584  0.49258496  0.68212604  1
  In  In24  1  0.00785376  0.67270043  0.31756965  1
  In  In25  1  -0.01612956  0.14378095  0.81864494  1
  In  In26  1  0.32634487  -0.02594026  0.01765037  1
  In  In27  1  0.34047264  0.35221183  -0.00538710  1
  In  In28  1  0.81639790  0.16950749  -0.01688590  1
  In  In29  1  0.51980025  0.51670264  0.34438111  1
  In  In30  1  0.33048191  0.68906175  0.31832388  1
  In  In31  1  0.66690106  0.68123184  0.34185068  1
  In  In32  1  0.50584617  -0.01144721  0.16257911  1
  In  In33  1  0.16742285  0.33572631  0.82574519  1
  In  In34  1  0.84073969  -0.02896674  0.52154282  1
  In  In35  1  0.14454906  0.31904901  0.53623176  1
  In  In36  1  0.82649498  0.33087220  0.84396007  1
  In  In37  1  0.34409175  0.49621763  0.15358805  1
  In  In38  1  0.66832065  0.68157404  0.67368152  1
  In  In39  1  0.66424742  0.34268129  0.35268677  1
  In  In40  1  0.00842412  0.50787037  0.17267882  1
  In  In41  1  0.82564970  0.18841927  0.35422806  1
  In  In42  1  0.65442713  0.33189509  0.67892019  1
  In  In43  1  0.83091538  0.00509653  0.16527033  1
  In  In44  1  0.66083611  0.15471051  0.51670898  1
  In  In45  1  0.32599744  -0.00447908  0.33994522  1
  In  In46  1  0.32743037  0.01498593  0.66695095  1
  In  In47  1  0.35619038  0.81722023  0.81969718  1
  In  In48  1  0.66361768  0.66880073  -0.01034076  1
  In  In49  1  0.16058917  0.15992866  0.33766226  1
  In  In50  1  0.81309479  0.83108387  0.67139054  1
  In  In51  1  0.16212808  0.15219925  0.01317926  1
  In  In52  1  0.17816904  0.65796735  0.82925463  1
  In  In53  1  0.65789961  -0.00974138  0.32445138  1
  In  In54  1  0.47919747  0.80296794  0.02047007  1
  In  In55  1  -0.01117734  0.66648368  -0.02006727  1
  In  In56  1  -0.00764684  0.32657540  0.32421828  1
  In  In57  1  0.66233265  0.17673927  0.15414683  1
  In  In58  1  0.01563474  0.65316232  0.68920596  1
  In  In59  1  0.32827002  0.17837441  0.82081575  1
  In  In60  1  0.33349178  0.34205957  0.32864501  1
  In  In61  1  0.53109925  -0.02613853  0.81026997  1
  In  In62  1  0.33908217  0.83259735  0.48785101  1
  In  In63  1  0.50265458  0.48831681  0.68540650  1
  In  In64  1  0.00574836  -0.00179016  0.34744363  1
  In  In65  1  0.47546525  0.33737753  0.14769303  1
  In  In66  1  0.82874915  0.50172027  0.00061378  1
  In  In67  1  0.66796931  0.50565964  0.14073832  1
  In  In68  1  0.81826285  0.00185691  0.82943004  1
  In  In69  1  0.52168690  0.14550394  -0.01282202  1
  In  In70  1  0.35228640  0.17156665  0.51537290  1
  In  In71  1  0.82595182  0.16563805  0.67792793  1
  Te  Te72  1  0.08890966  0.04895974  0.08689019  1
  Te  Te73  1  0.06941890  0.09961645  0.43556544  1
  Te  Te74  1  0.10969761  0.11179888  0.72392409  1
  Te  Te75  1  0.08596896  0.41379358  0.07997763  1
  Te  Te76  1  0.08815795  0.41481221  0.42123076  1
  Te  Te77  1  0.07582419  0.41911707  0.74464312  1
  Te  Te78  1  0.08088047  0.74491800  0.07117506  1
  Te  Te79  1  0.10628796  0.76827195  0.38743590  1
  Te  Te80  1  0.08274757  0.76369054  0.77103307  1
  Te  Te81  1  0.40939592  0.09131836  0.08556841  1
  Te  Te82  1  0.42665960  0.08261111  0.41327556  1
  Te  Te83  1  0.42914933  0.08023484  0.75906139  1
  Te  Te84  1  0.45202237  0.45397917  0.04247755  1
  Te  Te85  1  0.42129942  0.42211050  0.42448031  1
  Te  Te86  1  0.41163013  0.42287488  0.78348652  1
  Te  Te87  1  0.37415821  0.73739850  0.10067021  1
  Te  Te88  1  0.43130244  0.72692482  0.42746228  1
  Te  Te89  1  0.44780664  0.73774029  0.73222743  1
  Te  Te90  1  0.73315456  0.07153462  0.06971706  1
  Te  Te91  1  0.75312892  0.06750204  0.41900096  1
  Te  Te92  1  0.72393191  0.09647257  0.75979623  1
  Te  Te93  1  0.74201190  0.40195063  0.06709457  1
  Te  Te94  1  0.76003875  0.41391631  0.43883541  1
  Te  Te95  1  0.74646703  0.42689100  0.75790081  1
  Te  Te96  1  0.76226709  0.73997186  0.08298456  1
  Te  Te97  1  0.73666971  0.77776814  0.43189314  1
  Te  Te98  1  0.76519787  0.73625204  0.77517757  1
  Te  Te99  1  0.09302334  0.25328222  0.23618118  1
  Te  Te100  1  0.07793286  0.21307341  0.60802599  1
  Te  Te101  1  0.07668495  0.23571856  0.91423277  1
  Te  Te102  1  0.11154133  0.60953755  0.22386551  1
  Te  Te103  1  0.09990027  0.58843914  0.57196509  1
  Te  Te104  1  0.08350057  0.56930218  0.90859622  1
  Te  Te105  1  0.08521240  0.91990427  0.25084984  1
  Te  Te106  1  0.08570832  0.93073700  0.57681603  1
  Te  Te107  1  0.06359432  0.91547707  0.91793609  1
  Te  Te108  1  0.42985026  0.24411228  0.26149770  1
  Te  Te109  1  0.42508705  0.24465309  0.62218715  1
  Te  Te110  1  0.42090622  0.24419614  0.92212461  1
  Te  Te111  1  0.42385420  0.58679085  0.24959310  1
  Te  Te112  1  0.45224664  0.59798378  0.59668898  1
  Te  Te113  1  0.41403582  0.54209056  0.91507726  1
  Te  Te114  1  0.41023773  0.90641248  0.24576048  1
  Te  Te115  1  0.41461925  0.90928000  0.59716082  1
  Te  Te116  1  0.42367549  0.92141278  0.91319433  1
  Te  Te117  1  0.74624960  0.26392806  0.24816973  1
  Te  Te118  1  0.75041814  0.25788811  0.58237254  1
  Te  Te119  1  0.71876272  0.24583454  0.90008508  1
  Te  Te120  1  0.74515693  0.59297060  0.24200048  1
  Te  Te121  1  0.74508637  0.58363318  0.57907441  1
  Te  Te122  1  0.73824869  0.57146250  0.90661505  1
  Te  Te123  1  0.75442581  0.90160330  0.24721607  1
  Te  Te124  1  0.72738450  0.94040110  0.61403940  1
  Te  Te125  1  0.72959445  0.91302484  0.90675909  1
  Te  Te126  1  0.24598756  0.26297574  0.07717879  1
  Te  Te127  1  0.24873122  0.25673486  0.42226112  1
  Te  Te128  1  0.25162695  0.26156178  0.72706259  1
  Te  Te129  1  0.26947376  0.60680747  0.08427522  1
  Te  Te130  1  0.26211350  0.57346243  0.41183853  1
  Te  Te131  1  0.27504967  0.59547114  0.73696785  1
  Te  Te132  1  0.23799197  0.89278054  0.10445598  1
  Te  Te133  1  0.23584619  0.91763569  0.42643903  1
  Te  Te134  1  0.24585575  0.91485786  0.76044822  1
  Te  Te135  1  0.58199309  0.26716283  0.06113045  1
  Te  Te136  1  0.57721501  0.23638694  0.41793962  1
  Te  Te137  1  0.56883941  0.28244771  0.78959901  1
  Te  Te138  1  0.56812946  0.59375120  0.07610569  1
  Te  Te139  1  0.59925897  0.59356159  0.44027654  1
  Te  Te140  1  0.60449309  0.57692989  0.76677256  1
  Te  Te141  1  0.58206720  0.91946248  0.05352420  1
  Te  Te142  1  0.58910088  0.91340350  0.43621642  1
  Te  Te143  1  0.60480038  0.88862781  0.71297179  1
  Te  Te144  1  0.89693791  0.24432421  0.09151338  1
  Te  Te145  1  0.92110670  0.26455255  0.43614413  1
  Te  Te146  1  0.92347354  0.26181630  0.74623121  1
  Te  Te147  1  0.91321110  0.59324180  0.09093861  1
  Te  Te148  1  0.92537674  0.58274740  0.41220305  1
  Te  Te149  1  0.91030929  0.59152888  0.77040476  1
  Te  Te150  1  0.91789853  0.91715435  0.07723455  1
  Te  Te151  1  0.90595897  0.89659227  0.40523616  1
  Te  Te152  1  0.91697418  0.91317181  0.75232051  1
  Te  Te153  1  0.23555079  0.06853647  0.23943671  1
  Te  Te154  1  0.24897945  0.07601020  0.55891574  1
  Te  Te155  1  0.25630413  0.07642405  0.91598801  1
  Te  Te156  1  0.24094398  0.41253320  0.23113651  1
  Te  Te157  1  0.26699955  0.40119637  0.58897000  1
  Te  Te158  1  0.25896852  0.43706421  0.89714131  1
  Te  Te159  1  0.26808236  0.77615878  0.21731139  1
  Te  Te160  1  0.27111138  0.74032660  0.59868166  1
  Te  Te161  1  0.27361495  0.73749494  0.91917892  1
  Te  Te162  1  0.57549461  0.09333173  0.24899462  1
  Te  Te163  1  0.56890102  0.10199174  0.61899764  1
  Te  Te164  1  0.60924576  0.07810637  0.88645357  1
  Te  Te165  1  0.57534218  0.41424421  0.24257029  1
  Te  Te166  1  0.59416094  0.42439002  0.57411753  1
  Te  Te167  1  0.54972656  0.42214245  0.84233189  1
  Te  Te168  1  0.57227332  0.74476861  0.23746289  1
  Te  Te169  1  0.57288665  0.77520507  0.61017033  1
  Te  Te170  1  0.57512507  0.76365780  0.90879954  1
  Te  Te171  1  0.91325472  0.09662842  0.25763647  1
  Te  Te172  1  0.91284329  0.09520341  0.57231680  1
  Te  Te173  1  0.91949591  0.06962003  0.93145989  1
  Te  Te174  1  0.90507918  0.41383697  0.23467963  1
  Te  Te175  1  0.91831892  0.39537188  0.60236228  1
  Te  Te176  1  0.92741075  0.42728880  0.90734737  1
  Te  Te177  1  0.90016140  0.74824081  0.25353924  1
  Te  Te178  1  0.92956125  0.74526752  0.59088391  1
  Te  Te179  1  0.89687866  0.73911635  0.88734035  1
