# generated using pymatgen
data_In2Te3
_symmetry_space_group_name_H-M   'P 1'
_cell_length_a   18.82627836
_cell_length_b   18.80972823
_cell_length_c   18.82225207
_cell_angle_alpha   90.08465639
_cell_angle_beta   90.03905479
_cell_angle_gamma   89.96071955
_symmetry_Int_Tables_number   1
_chemical_formula_structural   In2Te3
_chemical_formula_sum   'In72 Te108'
_cell_volume   6665.27243223
_cell_formula_units_Z   36
loop_
 _symmetry_equiv_pos_site_id
 _symmetry_equiv_pos_as_xyz
  1  'x, y, z'
loop_
 _atom_site_type_symbol
 _atom_site_label
 _atom_site_symmetry_multiplicity
 _atom_site_fract_x
 _atom_site_fract_y
 _atom_site_fract_z
 _atom_site_occupancy
  In  In0  1  0.46977647  0.63800421  0.21174107  1
  In  In1  1  0.81847348  0.17580314  -0.00637318  1
  In  In2  1  0.50922079  0.34090810  0.17587910  1
  In  In3  1  0.00119929  0.52787717  0.83808144  1
  In  In4  1  0.50698584  0.15786200  0.34652941  1
  In  In5  1  0.16579067  0.34804588  0.51300110  1
  In  In6  1  0.31754613  0.16572561  0.16290901  1
  In  In7  1  -0.01256603  0.16870647  0.20114366  1
  In  In8  1  0.02261059  -0.01039070  -0.00418709  1
  In  In9  1  0.66094943  0.79381210  0.18395384  1
  In  In10  1  0.65895557  0.17752014  0.49091927  1
  In  In11  1  0.67825592  0.65527988  0.00331107  1
  In  In12  1  0.82466307  -0.00761216  0.81964007  1
  In  In13  1  0.49615129  0.51208397  0.65357783  1
  In  In14  1  0.82834270  0.83184092  0.65683675  1
  In  In15  1  0.16684627  -0.00646360  0.15960220  1
  In  In16  1  0.00848602  0.81591319  0.17007909  1
  In  In17  1  -0.02038693  0.17510906  0.80560538  1
  In  In18  1  0.64227798  0.51699645  0.81675611  1
  In  In19  1  0.64407579  -0.01066301  0.35357998  1
  In  In20  1  -0.00579448  0.17528203  0.51727652  1
  In  In21  1  0.17161497  0.00546394  0.49176298  1
  In  In22  1  0.47236730  0.16504258  0.68171610  1
  In  In23  1  0.00951248  0.02052024  0.64813012  1
  In  In24  1  0.20562327  0.65173530  0.47093616  1
  In  In25  1  0.82449783  0.17676426  0.65866888  1
  In  In26  1  0.16581398  0.50192404  0.66235852  1
  In  In27  1  0.33018246  -0.01702222  -0.00017432  1
  In  In28  1  0.35898494  0.80514193  0.48209463  1
  In  In29  1  0.82270427  0.33259223  0.18070134  1
  In  In30  1  0.00196008  0.51270641  0.15547046  1
  In  In31  1  0.48810831  -0.01186280  0.51812936  1
  In  In32  1  0.31753354  0.35610356  0.33290704  1
  In  In33  1  0.50570511  0.49241954  0.02082629  1
  In  In34  1  0.64627143  -0.05614931  0.63711873  1
  In  In35  1  0.19317689  0.17413884  -0.00323591  1
  In  In36  1  0.00642999  0.33179178  0.33309022  1
  In  In37  1  0.33835745  0.83476436  0.17832231  1
  In  In38  1  0.68575236  0.21042675  0.18499571  1
  In  In39  1  0.46325888  0.18631413  -0.03946461  1
  In  In40  1  0.84486906  0.51544399  0.00965542  1
  In  In41  1  -0.01906549  0.87129025  0.47285436  1
  In  In42  1  -0.01919145  0.67020261  0.35018620  1
  In  In43  1  0.49147057  0.67244992  0.81156050  1
  In  In44  1  0.65189690  0.16333322  0.85140157  1
  In  In45  1  0.81229377  0.66169166  0.50375154  1
  In  In46  1  0.65496838  0.48682382  0.21088669  1
  In  In47  1  0.84234378  -0.00863225  0.18506769  1
  In  In48  1  0.18621620  0.14395916  0.67755801  1
  In  In49  1  0.67187330  0.83422176  0.80614093  1
  In  In50  1  -0.01112874  0.47292417  0.51647009  1
  In  In51  1  0.31029219  0.66683610  0.00211446  1
  In  In52  1  0.49581245  -0.01729944  0.17567450  1
  In  In53  1  0.17401098  0.66412160  0.16567514  1
  In  In54  1  0.00639259  0.66960735  0.67593869  1
  In  In55  1  0.32064290  0.32678336  0.66064275  1
  In  In56  1  0.33151704  0.48899527  0.83785813  1
  In  In57  1  0.84230431  0.65607687  0.16743747  1
  In  In58  1  0.66270146  0.67481552  0.33741339  1
  In  In59  1  0.49275438  0.83985736  -0.00111896  1
  In  In60  1  0.67584722  0.00015170  -0.02334175  1
  In  In61  1  0.33148244  0.15812322  0.52320675  1
  In  In62  1  0.16516815  0.16267163  0.31604088  1
  In  In63  1  0.01142932  0.35766528  -0.00096543  1
  In  In64  1  0.17247469  0.33951094  0.83131516  1
  In  In65  1  0.34681857  0.66789712  0.65230718  1
  In  In66  1  0.66938412  0.32826283  -0.01286681  1
  In  In67  1  0.67577870  0.49813050  0.48177104  1
  In  In68  1  0.15569412  0.67699324  0.85492865  1
  In  In69  1  -0.00990113  0.81036189  0.85526510  1
  In  In70  1  0.16873298  0.83511982  0.31386130  1
  In  In71  1  0.66509439  0.33279808  0.67176036  1
  Te  Te72  1  0.08176095  0.10124935  0.09142892  1
  Te  Te73  1  0.07369610  0.09104418  0.41372538  1
  Te  Te74  1  0.08566436  0.07188547  0.76886143  1
  Te  Te75  1  0.10068451  0.42052782  0.09663348  1
  Te  Te76  1  0.09435314  0.43150546  0.40912990  1
  Te  Te77  1  0.07429082  0.41886888  0.74709598  1
  Te  Te78  1  0.10719218  0.76070031  0.07427508  1
  Te  Te79  1  0.08884906  0.75529843  0.41809125  1
  Te  Te80  1  0.09906223  0.76559675  0.74515154  1
  Te  Te81  1  0.41792267  0.08023438  0.08262552  1
  Te  Te82  1  0.40567069  0.07240077  0.42015665  1
  Te  Te83  1  0.39495346  0.06479930  0.75889932  1
  Te  Te84  1  0.41035830  0.39926907  0.08267626  1
  Te  Te85  1  0.39846923  0.44091143  0.42459798  1
  Te  Te86  1  0.42079232  0.41261283  0.74266656  1
  Te  Te87  1  0.42527521  0.73748901  0.08972293  1
  Te  Te88  1  0.44646576  0.70850304  0.41155989  1
  Te  Te89  1  0.42528815  0.77349708  0.72511982  1
  Te  Te90  1  0.74866162  0.08280531  0.09054963  1
  Te  Te91  1  0.74100194  0.08077789  0.41556294  1
  Te  Te92  1  0.73373210  0.08758009  0.74486502  1
  Te  Te93  1  0.73611496  0.42629964  0.08469195  1
  Te  Te94  1  0.73934296  0.41196348  0.37903653  1
  Te  Te95  1  0.74299102  0.43571290  0.74465130  1
  Te  Te96  1  0.76528802  0.75494564  0.07947729  1
  Te  Te97  1  0.75779788  0.76334639  0.41092004  1
  Te  Te98  1  0.76028966  0.73580562  0.74340103  1
  Te  Te99  1  0.10170887  0.26946537  0.22956931  1
  Te  Te100  1  0.09749751  0.24679050  0.60473398  1
  Te  Te101  1  0.07327997  0.24172733  0.91100812  1
  Te  Te102  1  0.07784871  0.59260907  0.26169522  1
  Te  Te103  1  0.09074252  0.58987885  0.56289493  1
  Te  Te104  1  0.11316996  0.55809731  0.93310722  1
  Te  Te105  1  0.06473002  0.93328079  0.25576682  1
  Te  Te106  1  0.08769211  0.91108603  0.57772790  1
  Te  Te107  1  0.09536229  0.89914877  0.90650181  1
  Te  Te108  1  0.40874349  0.24687777  0.25940770  1
  Te  Te109  1  0.42797137  0.26412570  0.57115340  1
  Te  Te110  1  0.37500197  0.27509032  0.88856843  1
  Te  Te111  1  0.41635449  0.51867052  0.28735302  1
  Te  Te112  1  0.43740183  0.60643074  0.54989645  1
  Te  Te113  1  0.42703516  0.58585859  0.92059268  1
  Te  Te114  1  0.40990825  0.91997238  0.27610284  1
  Te  Te115  1  0.41372811  0.88539130  0.59726547  1
  Te  Te116  1  0.39563242  0.89152149  0.90056910  1
  Te  Te117  1  0.75605047  0.27424157  0.30291923  1
  Te  Te118  1  0.75542848  0.27281718  0.56166292  1
  Te  Te119  1  0.76360499  0.26546584  0.88474185  1
  Te  Te120  1  0.76132641  0.57715484  0.26964256  1
  Te  Te121  1  0.75835388  0.55621762  0.59147692  1
  Te  Te122  1  0.75895893  0.58070129  0.90043765  1
  Te  Te123  1  0.73219563  0.90943131  0.25392300  1
  Te  Te124  1  0.75675820  0.89740742  0.54190748  1
  Te  Te125  1  0.76821221  0.89480998  0.91962871  1
  Te  Te126  1  0.26342980  0.27399461  0.07866313  1
  Te  Te127  1  0.24293617  0.24060594  0.42521889  1
  Te  Te128  1  0.27265455  0.23262451  0.77621294  1
  Te  Te129  1  0.27524953  0.56902269  0.10817939  1
  Te  Te130  1  0.27963086  0.55513034  0.38435344  1
  Te  Te131  1  0.25226311  0.59105163  0.75197865  1
  Te  Te132  1  0.23598572  0.88680710  0.07701472  1
  Te  Te133  1  0.25767336  0.90543044  0.41649072  1
  Te  Te134  1  0.27241285  0.98110962  0.76376728  1
  Te  Te135  1  0.57767046  0.23969119  0.07029762  1
  Te  Te136  1  0.56709991  0.27147359  0.41937433  1
  Te  Te137  1  0.56808822  0.25345686  0.76247319  1
  Te  Te138  1  0.58874479  0.59144443  0.11031541  1
  Te  Te139  1  0.57450253  0.60263178  0.43520532  1
  Te  Te140  1  0.59215309  0.61718667  0.71113978  1
  Te  Te141  1  0.59890498  0.91010317  0.08612220  1
  Te  Te142  1  0.57158838  0.88794337  0.43816957  1
  Te  Te143  1  0.57460770  0.93426575  0.76516752  1
  Te  Te144  1  0.91556242  0.25319147  0.08325915  1
  Te  Te145  1  0.91682292  0.26776820  0.43134494  1
  Te  Te146  1  0.91469604  0.28139235  0.72235275  1
  Te  Te147  1  0.94963988  0.62195997  0.05518661  1
  Te  Te148  1  0.90454291  0.56266600  0.42585506  1
  Te  Te149  1  0.91094728  0.57386976  0.73106376  1
  Te  Te150  1  0.92332549  0.91143230  0.08119579  1
  Te  Te151  1  0.91995308  0.95154500  0.36784976  1
  Te  Te152  1  0.92958909  0.91700491  0.74021921  1
  Te  Te153  1  0.26176178  0.05994685  0.25862921  1
  Te  Te154  1  0.27469953  0.03944944  0.60442516  1
  Te  Te155  1  0.24484607  0.06655073  0.90739951  1
  Te  Te156  1  0.26152147  0.46345034  0.24562265  1
  Te  Te157  1  0.27262016  0.44229645  0.57166143  1
  Te  Te158  1  0.22680630  0.43753364  0.93102625  1
  Te  Te159  1  0.27013897  0.73095446  0.26624092  1
  Te  Te160  1  0.24480185  0.75253005  0.57730746  1
  Te  Te161  1  0.27359051  0.75995570  0.89392431  1
  Te  Te162  1  0.58991856  0.09050159  0.23695729  1
  Te  Te163  1  0.57904253  0.09222918  0.59014689  1
  Te  Te164  1  0.55352456  0.06571514  0.91505248  1
  Te  Te165  1  0.57893068  0.39486125  0.29947714  1
  Te  Te166  1  0.58108305  0.41501866  0.57363878  1
  Te  Te167  1  0.57185467  0.41376911  0.90764031  1
  Te  Te168  1  0.54342931  0.76030705  0.27286709  1
  Te  Te169  1  0.62067719  0.81323079  0.56838186  1
  Te  Te170  1  0.58793106  0.74454528  0.91704789  1
  Te  Te171  1  0.89086517  0.09358246  0.28601511  1
  Te  Te172  1  0.89023525  0.07053383  0.57061734  1
  Te  Te173  1  0.91113284  0.07932555  0.91753129  1
  Te  Te174  1  0.91863959  0.42825362  0.25060499  1
  Te  Te175  1  0.91465738  0.37561856  0.59510545  1
  Te  Te176  1  0.90818365  0.41949473  0.90975530  1
  Te  Te177  1  0.89859906  0.76278712  0.26220809  1
  Te  Te178  1  0.93048052  0.75348385  0.56819437  1
  Te  Te179  1  0.92132544  0.70372553  0.92355437  1
