# generated using pymatgen
data_In2Te3
_symmetry_space_group_name_H-M   'P 1'
_cell_length_a   18.94883874
_cell_length_b   18.97774187
_cell_length_c   18.97031934
_cell_angle_alpha   89.95510120
_cell_angle_beta   89.89765881
_cell_angle_gamma   89.83925818
_symmetry_Int_Tables_number   1
_chemical_formula_structural   In2Te3
_chemical_formula_sum   'In72 Te108'
_cell_volume   6821.80409039
_cell_formula_units_Z   36
loop_
 _symmetry_equiv_pos_site_id
 _symmetry_equiv_pos_as_xyz
  1  'x, y, z'
loop_
 _atom_site_type_symbol
 _atom_site_label
 _atom_site_symmetry_multiplicity
 _atom_site_fract_x
 _atom_site_fract_y
 _atom_site_fract_z
 _atom_site_occupancy
  In  In0  1  0.47685360  0.86447948  0.00706503  1
  In  In1  1  0.16458042  0.01111781  0.50183341  1
  In  In2  1  0.13782960  0.66531610  0.84830365  1
  In  In3  1  0.00042491  0.81621215  0.16813514  1
  In  In4  1  -0.01738705  0.14267063  0.85532780  1
  In  In5  1  0.51606274  0.86468655  0.66931577  1
  In  In6  1  0.68390435  0.49136636  0.83958562  1
  In  In7  1  0.83452596  0.16477907  0.32172339  1
  In  In8  1  0.34599927  0.87472428  0.85358261  1
  In  In9  1  0.50678158  0.48894518  -0.00924042  1
  In  In10  1  0.00974303  0.50192950  0.50026215  1
  In  In11  1  0.32692759  0.48345407  0.83883233  1
  In  In12  1  0.19628989  0.32565762  0.50940848  1
  In  In13  1  0.31695614  0.66969151  0.00748003  1
  In  In14  1  0.02946271  0.17500595  0.15779840  1
  In  In15  1  0.02301594  0.65028978  0.34683502  1
  In  In16  1  0.48444180  0.03474056  0.13447051  1
  In  In17  1  0.00242246  0.32098207  -0.01041350  1
  In  In18  1  0.83194480  0.63052910  0.14309740  1
  In  In19  1  0.00422246  0.00467658  0.67100667  1
  In  In20  1  0.51254342  0.69256366  0.84471346  1
  In  In21  1  0.34596146  0.65518699  0.32118682  1
  In  In22  1  0.79037604  0.13121994  0.70343028  1
  In  In23  1  0.60464354  0.28571275  -0.02178022  1
  In  In24  1  0.34243111  0.84975535  0.50155897  1
  In  In25  1  0.83607925  0.49506326  -0.01006529  1
  In  In26  1  0.82131138  0.82191157  -0.01117468  1
  In  In27  1  0.01084103  0.49444195  0.80737229  1
  In  In28  1  0.64824422  0.47849837  0.15342847  1
  In  In29  1  0.34837961  0.32938597  -0.01408575  1
  In  In30  1  0.20939623  0.19698819  0.67659320  1
  In  In31  1  0.85314461  0.64849628  0.84344450  1
  In  In32  1  -0.01343783  0.16009758  0.47924612  1
  In  In33  1  0.50081099  0.48944340  0.67161647  1
  In  In34  1  0.65100759  0.85343877  0.16181714  1
  In  In35  1  0.85000281  0.84903699  0.68317902  1
  In  In36  1  0.14445756  0.85233061  -0.01332345  1
  In  In37  1  0.81408662  -0.00921092  0.50003907  1
  In  In38  1  0.16334202  0.50777299  0.33930167  1
  In  In39  1  0.65837295  0.32014764  0.34882910  1
  In  In40  1  0.17732650  0.83491421  0.70834768  1
  In  In41  1  0.85229767  0.36772326  0.16162920  1
  In  In42  1  0.00995329  0.32930397  0.66768133  1
  In  In43  1  0.67811612  0.66899307  0.65736250  1
  In  In44  1  0.15595219  0.34554736  0.16808168  1
  In  In45  1  0.65215609  0.85295224  0.82592216  1
  In  In46  1  0.80693239  0.31883017  0.80924855  1
  In  In47  1  0.15658417  0.67519097  0.50947692  1
  In  In48  1  0.67149560  0.82828665  0.52364790  1
  In  In49  1  0.51290713  0.17109523  0.33519104  1
  In  In50  1  0.17679826  0.64328849  0.17161955  1
  In  In51  1  0.49422089  0.50675312  0.33478867  1
  In  In52  1  0.82609546  0.01141250  0.12113996  1
  In  In53  1  0.16916360  0.01453647  0.84694290  1
  In  In54  1  0.62863612  0.32016847  0.69596786  1
  In  In55  1  0.67530909  0.65052230  0.32089871  1
  In  In56  1  0.81611541  0.31801064  0.50367321  1
  In  In57  1  0.83182485  0.67980010  0.51162921  1
  In  In58  1  0.51491600  0.83525006  0.33067704  1
  In  In59  1  0.33420295  0.00987694  0.32653345  1
  In  In60  1  0.00091744  -0.01506481  0.32850943  1
  In  In61  1  0.37723590  0.17994744  0.52327085  1
  In  In62  1  0.86727023  0.83539482  0.34091686  1
  In  In63  1  0.34713552  0.65118663  0.67819097  1
  In  In64  1  0.31862115  0.82782108  0.17699852  1
  In  In65  1  0.67849231  -0.01473879  0.33950669  1
  In  In66  1  0.17358289  0.18012371  -0.00170884  1
  In  In67  1  0.18007492  0.01022504  0.15029700  1
  In  In68  1  0.34319487  0.31862274  0.32144836  1
  In  In69  1  0.57945992  0.17690719  0.60107587  1
  In  In70  1  0.33480895  0.47042870  0.51698012  1
  In  In71  1  0.66090497  0.17081621  0.13961898  1
  Te  Te72  1  0.07906703  0.07427958  0.05720881  1
  Te  Te73  1  0.08985204  0.08884536  0.39349688  1
  Te  Te74  1  0.10090275  0.10116322  0.74007333  1
  Te  Te75  1  0.07754620  0.41838091  0.06740754  1
  Te  Te76  1  0.09587109  0.40229627  0.42309119  1
  Te  Te77  1  0.11063894  0.40422170  0.74374536  1
  Te  Te78  1  0.09997917  0.74243386  0.08107962  1
  Te  Te79  1  0.07875041  0.76186481  0.42109247  1
  Te  Te80  1  0.06966511  0.74521741  0.74695638  1
  Te  Te81  1  0.37944583  0.07629233  0.04268936  1
  Te  Te82  1  0.43220257  0.07516719  0.41986830  1
  Te  Te83  1  0.42970410  0.17310103  0.69433167  1
  Te  Te84  1  0.42060017  0.41490807  0.08101429  1
  Te  Te85  1  0.42589701  0.39881889  0.41919645  1
  Te  Te86  1  0.40227274  0.39885495  0.73953580  1
  Te  Te87  1  0.41523533  0.74935449  0.08993535  1
  Te  Te88  1  0.41965177  0.75243169  0.41358756  1
  Te  Te89  1  0.41744040  0.77147493  0.75615673  1
  Te  Te90  1  0.75164212  0.10813364  0.03427033  1
  Te  Te91  1  0.74072443  0.09714353  0.42080304  1
  Te  Te92  1  0.73101801  0.04123431  0.80056261  1
  Te  Te93  1  0.74102262  0.39959670  0.06052723  1
  Te  Te94  1  0.75954878  0.40915793  0.40433085  1
  Te  Te95  1  0.74474259  0.42466622  0.71972811  1
  Te  Te96  1  0.74707946  0.75036189  0.10017673  1
  Te  Te97  1  0.74390855  0.76842553  0.40270391  1
  Te  Te98  1  0.74920042  0.75268345  0.76119630  1
  Te  Te99  1  0.08495401  0.25758189  0.26282061  1
  Te  Te100  1  0.08652312  0.23035474  0.57221652  1
  Te  Te101  1  0.08891054  0.24508449  0.89013356  1
  Te  Te102  1  0.05813506  0.55347198  0.23164633  1
  Te  Te103  1  0.09394335  0.57538946  0.59377813  1
  Te  Te104  1  0.06164433  0.56641298  0.92638627  1
  Te  Te105  1  0.09571905  0.91201725  0.23624366  1
  Te  Te106  1  0.10096181  0.91350925  0.59864287  1
  Te  Te107  1  0.05949509  0.92444340  0.88990463  1
  Te  Te108  1  0.42292510  0.22864660  0.23276872  1
  Te  Te109  1  0.40764777  0.29695639  0.61249028  1
  Te  Te110  1  0.41431572  0.22180870  0.90348080  1
  Te  Te111  1  0.42148526  0.57548770  0.22683179  1
  Te  Te112  1  0.42699263  0.57873825  0.57208849  1
  Te  Te113  1  0.41372355  0.59548281  0.90666216  1
  Te  Te114  1  0.43109521  0.92123726  0.23536064  1
  Te  Te115  1  0.41811448  0.94345663  0.58869407  1
  Te  Te116  1  0.44164310  0.97209768  0.91027847  1
  Te  Te117  1  0.74900181  0.25302304  0.23300351  1
  Te  Te118  1  0.73535126  0.22659051  0.60141497  1
  Te  Te119  1  0.73937635  0.24768411  0.91618207  1
  Te  Te120  1  0.75256940  0.54708007  0.24170956  1
  Te  Te121  1  0.73502750  0.58014870  0.55665401  1
  Te  Te122  1  0.73807838  0.59871580  0.92978337  1
  Te  Te123  1  0.77429010  0.91631459  0.24325730  1
  Te  Te124  1  0.73877410  0.92775759  0.61473246  1
  Te  Te125  1  0.75097055  0.92967899  0.90966249  1
  Te  Te126  1  0.25585823  0.25894480  0.09391186  1
  Te  Te127  1  0.27134825  0.22946033  0.42084545  1
  Te  Te128  1  0.30711412  0.23303367  0.78102067  1
  Te  Te129  1  0.24820884  0.56073435  0.07505087  1
  Te  Te130  1  0.26019027  0.57981648  0.43147683  1
  Te  Te131  1  0.24332367  0.58890296  0.76314267  1
  Te  Te132  1  0.25979988  0.91257404  0.06577059  1
  Te  Te133  1  0.24442224  0.91949148  0.40897337  1
  Te  Te134  1  0.26787945  0.95004920  0.74820048  1
  Te  Te135  1  0.53966270  0.25223438  0.11014994  1
  Te  Te136  1  0.58555327  0.23448884  0.45084574  1
  Te  Te137  1  0.57769948  0.19439051  0.76075059  1
  Te  Te138  1  0.59394481  0.58123258  0.06465311  1
  Te  Te139  1  0.58563175  0.58766059  0.41681053  1
  Te  Te140  1  0.58423928  0.58898243  0.75943330  1
  Te  Te141  1  0.59236644  0.95238184  0.06494489  1
  Te  Te142  1  0.58333344  0.91911478  0.43583507  1
  Te  Te143  1  0.56719346  0.96359230  0.76895958  1
  Te  Te144  1  0.91431754  0.24843590  0.09009587  1
  Te  Te145  1  0.91742841  0.26579621  0.39649242  1
  Te  Te146  1  0.91647041  0.22918238  0.74176745  1
  Te  Te147  1  0.93658279  0.58722875  0.04835927  1
  Te  Te148  1  0.90987077  0.58261369  0.41924980  1
  Te  Te149  1  0.90080445  0.56167132  0.73721356  1
  Te  Te150  1  0.92292516  0.90565203  0.07296563  1
  Te  Te151  1  0.93605800  0.91633172  0.44824582  1
  Te  Te152  1  0.92592895  0.93660188  0.77615715  1
  Te  Te153  1  0.25839181  0.09655974  0.23721128  1
  Te  Te154  1  0.26420504  0.09091954  0.58207551  1
  Te  Te155  1  0.27159650  0.08750889  0.92950085  1
  Te  Te156  1  0.25885908  0.42625716  0.25537444  1
  Te  Te157  1  0.23560746  0.42043747  0.61526333  1
  Te  Te158  1  0.23928815  0.40980847  0.92816464  1
  Te  Te159  1  0.23365197  0.74360450  0.26987813  1
  Te  Te160  1  0.26631814  0.75504157  0.59670867  1
  Te  Te161  1  0.25241363  0.76487425  0.90719719  1
  Te  Te162  1  0.59730263  0.07064670  0.24436525  1
  Te  Te163  1  0.55622577  0.03099846  0.61088200  1
  Te  Te164  1  0.55160468  0.15627910  0.92545830  1
  Te  Te165  1  0.56914900  0.39936052  0.25559843  1
  Te  Te166  1  0.58359869  0.40467750  0.58509662  1
  Te  Te167  1  0.56947513  0.40456427  0.88340657  1
  Te  Te168  1  0.58244735  0.73940980  0.23574343  1
  Te  Te169  1  0.56453315  0.74423585  0.58848665  1
  Te  Te170  1  0.58639090  0.77759499  0.94239019  1
  Te  Te171  1  0.91923352  0.07291802  0.23357842  1
  Te  Te172  1  0.90529007  0.08499906  0.58354597  1
  Te  Te173  1  0.89218728  0.10126517  0.96126642  1
  Te  Te174  1  0.94290353  0.44844713  0.23693008  1
  Te  Te175  1  0.91756221  0.40663304  0.57759044  1
  Te  Te176  1  0.90854391  0.40135395  0.89241818  1
  Te  Te177  1  0.90980734  0.72205137  0.24847162  1
  Te  Te178  1  0.92261908  0.75781690  0.59386087  1
  Te  Te179  1  0.92765998  0.74379449  0.92465238  1
