# generated using pymatgen
data_In2Te3
_symmetry_space_group_name_H-M   'P 1'
_cell_length_a   18.83073676
_cell_length_b   18.84355189
_cell_length_c   18.83279455
_cell_angle_alpha   89.99274855
_cell_angle_beta   90.08778640
_cell_angle_gamma   90.04741661
_symmetry_Int_Tables_number   1
_chemical_formula_structural   In2Te3
_chemical_formula_sum   'In72 Te108'
_cell_volume   6682.58031486
_cell_formula_units_Z   36
loop_
 _symmetry_equiv_pos_site_id
 _symmetry_equiv_pos_as_xyz
  1  'x, y, z'
loop_
 _atom_site_type_symbol
 _atom_site_label
 _atom_site_symmetry_multiplicity
 _atom_site_fract_x
 _atom_site_fract_y
 _atom_site_fract_z
 _atom_site_occupancy
  In  In0  1  0.84434568  0.64000317  0.83243983  1
  In  In1  1  0.83471213  0.82625849  0.02665885  1
  In  In2  1  0.84249554  0.50055074  0.31876912  1
  In  In3  1  0.51056135  0.00089500  0.15255993  1
  In  In4  1  0.67037737  0.64880340  0.66865056  1
  In  In5  1  0.70128599  -0.00640976  0.01408317  1
  In  In6  1  0.33240651  0.65044759  0.02757040  1
  In  In7  1  0.17609504  0.81340979  0.02529786  1
  In  In8  1  0.48553242  0.67678594  0.49080850  1
  In  In9  1  0.84987098  0.00600652  0.83154887  1
  In  In10  1  0.33335547  0.00158590  -0.02172168  1
  In  In11  1  0.48403119  0.82325164  0.34822411  1
  In  In12  1  0.48563838  0.35890450  0.83829039  1
  In  In13  1  0.32871158  0.51043283  0.17203697  1
  In  In14  1  0.18890821  0.47622922  0.63854337  1
  In  In15  1  0.63722114  0.79003961  0.87884978  1
  In  In16  1  0.84668914  0.48760626  0.62722504  1
  In  In17  1  0.66068927  0.13578916  0.82615792  1
  In  In18  1  0.31678360  0.19067229  0.46288855  1
  In  In19  1  0.48517777  0.18804903  0.32181034  1
  In  In20  1  0.17678757  0.65648962  0.48546023  1
  In  In21  1  0.66249024  0.31689644  0.02078719  1
  In  In22  1  0.03666582  0.68171859  0.64364535  1
  In  In23  1  0.15806500  0.35190839  0.20186588  1
  In  In24  1  -0.00594626  0.84080926  0.82405436  1
  In  In25  1  0.32992164  0.82807062  0.82572987  1
  In  In26  1  0.65819971  0.34668790  0.31746892  1
  In  In27  1  0.32875147  0.34138027  0.02930900  1
  In  In28  1  0.66533495  0.49150201  0.86620529  1
  In  In29  1  0.17152122  0.34953794  0.83590361  1
  In  In30  1  0.66845377  -0.00476417  0.64909912  1
  In  In31  1  0.88098398  0.14799794  0.60292121  1
  In  In32  1  0.14337806  0.82375059  0.65412796  1
  In  In33  1  0.00030547  0.67075999  0.04248540  1
  In  In34  1  0.49749979  0.64542963  0.16076787  1
  In  In35  1  0.15053587  0.15765879  0.64499560  1
  In  In36  1  0.68142558  0.83828719  0.17597126  1
  In  In37  1  0.85610131  0.15236518  0.33044139  1
  In  In38  1  0.29260101  0.16359198  0.82446710  1
  In  In39  1  0.47889009  0.84968996  0.66990381  1
  In  In40  1  0.49863172  0.50057545  0.66381043  1
  In  In41  1  0.12675201  0.00437073  0.16330894  1
  In  In42  1  0.49331996  -0.01249829  0.83076498  1
  In  In43  1  0.85663143  0.18298860  0.01526943  1
  In  In44  1  0.68733241  0.81339462  0.48423557  1
  In  In45  1  0.01139282  0.32224842  0.63477815  1
  In  In46  1  0.82517139  0.32012188  0.48776058  1
  In  In47  1  -0.01135107  0.17524399  0.84590891  1
  In  In48  1  0.30189007  0.81396924  0.19729424  1
  In  In49  1  0.31886680  0.66403560  0.67774159  1
  In  In50  1  0.81427682  0.84952379  0.66863682  1
  In  In51  1  0.15511342  0.82850589  0.31433738  1
  In  In52  1  0.49553864  0.18841689  0.01276901  1
  In  In53  1  0.66272882  0.33093043  0.65260906  1
  In  In54  1  0.00704153  0.34830562  0.03905926  1
  In  In55  1  0.67772746  0.65526762  0.34111704  1
  In  In56  1  0.68998248  -0.00005532  0.32150186  1
  In  In57  1  0.01292077  0.52311383  0.84858102  1
  In  In58  1  0.86273301  0.65684885  0.47642996  1
  In  In59  1  0.16595640  -0.00246998  0.83725951  1
  In  In60  1  0.85910495  0.01696524  0.15732333  1
  In  In61  1  0.33918917  0.01231554  0.63140785  1
  In  In62  1  -0.00725068  0.85633717  0.48898040  1
  In  In63  1  0.82905399  0.33958391  0.82305118  1
  In  In64  1  0.48133231  0.48660570  0.32892445  1
  In  In65  1  0.31604690  -0.01075990  0.34593679  1
  In  In66  1  0.48702030  0.32454526  0.49049751  1
  In  In67  1  0.51654890  0.16356534  0.64757414  1
  In  In68  1  0.85292152  0.33603761  0.17228413  1
  In  In69  1  0.33569008  0.50953345  0.83912508  1
  In  In70  1  0.31185060  0.18168837  0.20313236  1
  In  In71  1  0.85190593  0.51741906  0.02566931  1
  Te  Te72  1  0.05737165  0.10629616  0.08310743  1
  Te  Te73  1  0.05848869  0.14114737  0.42814381  1
  Te  Te74  1  0.07175530  0.08414886  0.75375688  1
  Te  Te75  1  0.10087001  0.44420886  0.09662308  1
  Te  Te76  1  0.11229070  0.38477080  0.34961951  1
  Te  Te77  1  0.06475015  0.41454465  0.74512767  1
  Te  Te78  1  0.06715144  0.77849891  0.12549599  1
  Te  Te79  1  0.06944239  0.74734396  0.42060912  1
  Te  Te80  1  0.09671339  0.74000007  0.77236951  1
  Te  Te81  1  0.40028874  0.09303485  0.09021063  1
  Te  Te82  1  0.41663917  0.08574231  0.41166864  1
  Te  Te83  1  0.41178212  0.08907302  0.75235736  1
  Te  Te84  1  0.42640583  0.42645130  0.09840091  1
  Te  Te85  1  0.38888723  0.41958188  0.42889629  1
  Te  Te86  1  0.39183887  0.41452264  0.73205282  1
  Te  Te87  1  0.40827818  0.75964348  0.10313401  1
  Te  Te88  1  0.37893364  0.74458904  0.41424768  1
  Te  Te89  1  0.42987409  0.73507015  0.75658546  1
  Te  Te90  1  0.74853467  0.10857206  0.09778659  1
  Te  Te91  1  0.75203835  0.09332424  0.41812031  1
  Te  Te92  1  0.76890670  0.08626101  0.72881139  1
  Te  Te93  1  0.75424614  0.41774514  0.09068451  1
  Te  Te94  1  0.74573787  0.42593931  0.41445791  1
  Te  Te95  1  0.74231704  0.43918410  0.73653522  1
  Te  Te96  1  0.76228161  0.73051002  0.11251404  1
  Te  Te97  1  0.78842919  0.75430027  0.38587465  1
  Te  Te98  1  0.75232813  0.74173514  0.76097838  1
  Te  Te99  1  0.10622776  0.23469013  0.28726659  1
  Te  Te100  1  0.09874974  0.25037866  0.53627649  1
  Te  Te101  1  0.07774168  0.26885411  0.92513004  1
  Te  Te102  1  0.03751710  0.60540845  0.26379281  1
  Te  Te103  1  0.08440530  0.56041982  0.56617344  1
  Te  Te104  1  0.09009198  0.59766927  0.94778753  1
  Te  Te105  1  0.05515416  0.93620934  0.27769193  1
  Te  Te106  1  0.08920291  0.93466445  0.57322524  1
  Te  Te107  1  0.09110502  0.90092265  0.92643245  1
  Te  Te108  1  0.39810007  0.28833641  0.25757231  1
  Te  Te109  1  0.40309613  0.24220924  0.58679781  1
  Te  Te110  1  0.39689357  0.24866696  0.90824376  1
  Te  Te111  1  0.40270533  0.60416623  0.27082667  1
  Te  Te112  1  0.40231840  0.58286510  0.57955029  1
  Te  Te113  1  0.42661105  0.58650936  0.92859587  1
  Te  Te114  1  0.41665681  0.92343054  0.24559528  1
  Te  Te115  1  0.41914370  0.91566814  0.55435219  1
  Te  Te116  1  0.42647866  0.89129349  0.92759635  1
  Te  Te117  1  0.75907155  0.25124826  0.25576107  1
  Te  Te118  1  0.74659033  0.22908059  0.58211719  1
  Te  Te119  1  0.74744750  0.23970121  0.91378175  1
  Te  Te120  1  0.75531536  0.58868041  0.23530603  1
  Te  Te121  1  0.75101742  0.58474459  0.55712751  1
  Te  Te122  1  0.74874735  0.59510693  0.94208215  1
  Te  Te123  1  0.79177711  0.91272392  0.24937806  1
  Te  Te124  1  0.76720493  0.93141548  0.54877816  1
  Te  Te125  1  0.76023465  0.90610277  0.90418676  1
  Te  Te126  1  0.22919889  0.25158114  0.09679726  1
  Te  Te127  1  0.23268378  0.27282817  0.36872485  1
  Te  Te128  1  0.23411074  0.26282893  0.72652919  1
  Te  Te129  1  0.22082172  0.59276750  0.10797990  1
  Te  Te130  1  0.24557238  0.53763832  0.42846610  1
  Te  Te131  1  0.22420899  0.57174242  0.75209657  1
  Te  Te132  1  0.25202373  0.92955476  0.09295188  1
  Te  Te133  1  0.22140454  0.90755633  0.42225786  1
  Te  Te134  1  0.25550491  0.92601936  0.73538145  1
  Te  Te135  1  0.57293916  0.25332750  0.11914740  1
  Te  Te136  1  0.59193736  0.24689906  0.41447797  1
  Te  Te137  1  0.58042392  0.26185562  0.76383579  1
  Te  Te138  1  0.60219737  0.60411901  0.06658984  1
  Te  Te139  1  0.57325754  0.57674682  0.41806278  1
  Te  Te140  1  0.58008863  0.57679403  0.76821535  1
  Te  Te141  1  0.59171476  0.90177657  0.06933481  1
  Te  Te142  1  0.59608392  0.90787717  0.40664159  1
  Te  Te143  1  0.59981745  0.90844539  0.75564303  1
  Te  Te144  1  0.96149126  0.22534290  0.12196823  1
  Te  Te145  1  0.93421476  0.25536395  0.40829804  1
  Te  Te146  1  0.91382323  0.24902672  0.72909749  1
  Te  Te147  1  0.93954792  0.56783226  0.13837591  1
  Te  Te148  1  0.95470630  0.57050121  0.39747112  1
  Te  Te149  1  0.92900386  0.57875466  0.72199601  1
  Te  Te150  1  0.93692069  0.91538127  0.08202399  1
  Te  Te151  1  0.89691421  0.95142441  0.42722279  1
  Te  Te152  1  0.92999039  0.93420756  0.72207837  1
  Te  Te153  1  0.22167059  0.07586485  0.26462996  1
  Te  Te154  1  0.23879371  0.08434344  0.54365615  1
  Te  Te155  1  0.21958702  0.09762435  0.94007439  1
  Te  Te156  1  0.22992859  0.46868740  0.28316681  1
  Te  Te157  1  0.25785328  0.41095918  0.52593192  1
  Te  Te158  1  0.24677964  0.43334188  0.93822720  1
  Te  Te159  1  0.21745878  0.70631982  0.25428627  1
  Te  Te160  1  0.25355764  0.75510720  0.57495718  1
  Te  Te161  1  0.25661391  0.73628298  0.92045583  1
  Te  Te162  1  0.58390190  0.08692766  0.25171687  1
  Te  Te163  1  0.57692672  0.06585706  0.55839483  1
  Te  Te164  1  0.57222734  0.07359987  0.93581114  1
  Te  Te165  1  0.58349245  0.44171253  0.23319460  1
  Te  Te166  1  0.58286210  0.42291255  0.56346357  1
  Te  Te167  1  0.56507972  0.41762930  0.95333151  1
  Te  Te168  1  0.58055646  0.74902481  0.25593686  1
  Te  Te169  1  0.59046108  0.75274092  0.58791847  1
  Te  Te170  1  0.55274571  0.69600919  0.95773021  1
  Te  Te171  1  0.95799499  0.06319251  0.26259167  1
  Te  Te172  1  0.96899453  0.05626565  0.51635250  1
  Te  Te173  1  0.93435971  0.06870376  0.94200040  1
  Te  Te174  1  0.94156543  0.39865438  0.27198548  1
  Te  Te175  1  0.94107969  0.41457016  0.53539467  1
  Te  Te176  1  0.91595724  0.42081634  0.92253177  1
  Te  Te177  1  0.95603135  0.71918495  0.22117654  1
  Te  Te178  1  0.90828689  0.75499036  0.59225583  1
  Te  Te179  1  0.92218493  0.74065705  0.91818373  1
