# generated using pymatgen
data_In2Te3
_symmetry_space_group_name_H-M   'P 1'
_cell_length_a   19.00556526
_cell_length_b   18.98986663
_cell_length_c   18.96599856
_cell_angle_alpha   90.29904591
_cell_angle_beta   89.99704373
_cell_angle_gamma   90.13443310
_symmetry_Int_Tables_number   1
_chemical_formula_structural   In2Te3
_chemical_formula_sum   'In72 Te108'
_cell_volume   6844.96619024
_cell_formula_units_Z   36
loop_
 _symmetry_equiv_pos_site_id
 _symmetry_equiv_pos_as_xyz
  1  'x, y, z'
loop_
 _atom_site_type_symbol
 _atom_site_label
 _atom_site_symmetry_multiplicity
 _atom_site_fract_x
 _atom_site_fract_y
 _atom_site_fract_z
 _atom_site_occupancy
  In  In0  1  0.00799716  0.48142782  0.86426421  1
  In  In1  1  0.18667583  0.63525160  0.49112351  1
  In  In2  1  0.01197519  0.34296343  0.31847712  1
  In  In3  1  0.35113054  0.34184634  0.35369254  1
  In  In4  1  0.83426585  0.69100175  0.16001051  1
  In  In5  1  0.17770540  0.15153547  -0.00571480  1
  In  In6  1  0.48690316  0.83662395  0.68708324  1
  In  In7  1  0.63782300  0.33391160  0.34678948  1
  In  In8  1  0.18235777  0.34067237  0.82005600  1
  In  In9  1  0.82085390  0.03399605  0.81205593  1
  In  In10  1  0.84390856  0.16523990  0.32897106  1
  In  In11  1  0.14826853  -0.00278430  0.81942577  1
  In  In12  1  0.34413875  0.01395818  0.67735987  1
  In  In13  1  -0.02365734  0.66069179  0.65805807  1
  In  In14  1  -0.00819670  0.32966366  -0.00640812  1
  In  In15  1  0.35583269  0.83705524  0.51317622  1
  In  In16  1  0.33155230  0.18063923  0.49301372  1
  In  In17  1  0.67685343  0.66875609  0.66367373  1
  In  In18  1  0.50607108  0.34687531  0.18647026  1
  In  In19  1  0.49028307  -0.00942186  0.86231574  1
  In  In20  1  0.81126204  0.86925065  0.66931881  1
  In  In21  1  0.83100664  0.33617246  0.14282617  1
  In  In22  1  0.49595036  0.67205963  0.50910587  1
  In  In23  1  0.35767564  0.67311961  0.00816868  1
  In  In24  1  0.34779851  0.83031789  0.84697237  1
  In  In25  1  0.66668440  0.00493449  0.01006844  1
  In  In26  1  0.66371149  0.32865089  0.01040591  1
  In  In27  1  0.67780555  0.17695210  0.84459502  1
  In  In28  1  -0.00677277  0.00175700  0.32832263  1
  In  In29  1  0.16988662  0.01480748  0.47930389  1
  In  In30  1  0.03749929  0.66700382  0.32298265  1
  In  In31  1  0.80133857  0.51265104  0.35518625  1
  In  In32  1  0.33071365  -0.01100518  0.31228002  1
  In  In33  1  0.33293962  0.49389690  0.84701720  1
  In  In34  1  0.15765508  0.01154348  0.18311651  1
  In  In35  1  -0.01430969  0.03352585  0.63913582  1
  In  In36  1  0.17448823  0.48956402  0.31696888  1
  In  In37  1  0.49722716  0.51264730  0.67443880  1
  In  In38  1  0.18942148  0.29383259  0.17936503  1
  In  In39  1  0.01323780  0.85048896  0.16391896  1
  In  In40  1  0.29625673  0.54634333  0.64254900  1
  In  In41  1  0.71969357  0.32291733  0.68046839  1
  In  In42  1  -0.01523667  0.81606235  0.48734371  1
  In  In43  1  0.81353616  0.84298646  0.33558535  1
  In  In44  1  0.81734854  0.65245941  0.83644695  1
  In  In45  1  0.52884763  0.49632911  0.02563144  1
  In  In46  1  0.37771769  0.66211555  0.29917802  1
  In  In47  1  -0.01131543  0.48602963  0.49781902  1
  In  In48  1  0.18980405  0.83631722  0.01831306  1
  In  In49  1  0.66566214  -0.00097472  0.32573596  1
  In  In50  1  0.79150124  0.02848217  0.49986449  1
  In  In51  1  0.51219927  0.16046556  0.34970691  1
  In  In52  1  -0.01568772  0.46719267  0.13508192  1
  In  In53  1  0.80181158  0.65054546  0.48541241  1
  In  In54  1  0.63356107  0.70367538  0.31001512  1
  In  In55  1  0.65093549  0.50284606  0.51570943  1
  In  In56  1  0.34459820  0.16709895  0.83666573  1
  In  In57  1  0.35306088  0.83373369  0.16300252  1
  In  In58  1  0.18260056  0.50606504  -0.00651010  1
  In  In59  1  0.67046714  0.15647633  0.17458767  1
  In  In60  1  0.34439388  0.33686240  0.63498924  1
  In  In61  1  0.79912642  0.82974201  -0.00398934  1
  In  In62  1  0.51755330  0.70499820  0.85723683  1
  In  In63  1  -0.01944367  0.17539350  0.81164559  1
  In  In64  1  -0.02280295  0.31935605  0.66217126  1
  In  In65  1  0.19338337  0.66800371  0.15089060  1
  In  In66  1  0.50742621  0.31848427  0.86138718  1
  In  In67  1  -0.00896866  -0.03025414  -0.02015688  1
  In  In68  1  0.80865256  0.51072669  -0.00149553  1
  In  In69  1  -0.02596588  0.80226537  0.80827034  1
  In  In70  1  0.17639027  0.83016582  0.63096384  1
  In  In71  1  -0.01847513  0.17025207  0.49908119  1
  Te  Te72  1  0.07654740  0.06349735  0.06631412  1
  Te  Te73  1  0.07846549  0.10441735  0.40067596  1
  Te  Te74  1  0.08712081  0.10185967  0.73068925  1
  Te  Te75  1  0.10450372  0.39744920  0.07609815  1
  Te  Te76  1  0.09887313  0.41229293  0.42191682  1
  Te  Te77  1  0.07432381  0.41177647  0.74724342  1
  Te  Te78  1  0.08311681  0.74581705  0.08027234  1
  Te  Te79  1  0.10902483  0.74940759  0.42738866  1
  Te  Te80  1  0.08640999  0.74724998  0.72295020  1
  Te  Te81  1  0.45138572  0.03405244  0.00125888  1
  Te  Te82  1  0.40528601  0.07373035  0.41644225  1
  Te  Te83  1  0.44737068  0.09079544  0.75487977  1
  Te  Te84  1  0.42954420  0.40130208  0.07307699  1
  Te  Te85  1  0.45630438  0.40451235  0.43466678  1
  Te  Te86  1  0.41985292  0.40539952  0.75905023  1
  Te  Te87  1  0.44589427  0.72187984  0.11967774  1
  Te  Te88  1  0.43167445  0.75985738  0.40406313  1
  Te  Te89  1  0.40808678  0.72653055  0.75316855  1
  Te  Te90  1  0.76133557  0.09654032  0.07683159  1
  Te  Te91  1  0.73066650  0.15558477  0.43228432  1
  Te  Te92  1  0.70975622  0.08402461  0.73342372  1
  Te  Te93  1  0.72865688  0.43809280  0.10349192  1
  Te  Te94  1  0.73870463  0.40484538  0.43848083  1
  Te  Te95  1  0.72733127  0.46193239  0.72361363  1
  Te  Te96  1  0.72599716  0.71860376  0.06242776  1
  Te  Te97  1  0.72277927  0.76530533  0.42547828  1
  Te  Te98  1  0.74742851  0.76408140  0.75947648  1
  Te  Te99  1  0.06181111  0.23906167  0.22756321  1
  Te  Te100  1  0.07550018  0.24494452  0.58262044  1
  Te  Te101  1  0.08778067  0.24534604  0.90546490  1
  Te  Te102  1  0.08740953  0.56808568  0.21903008  1
  Te  Te103  1  0.07743352  0.57790371  0.58118498  1
  Te  Te104  1  0.08456622  0.58938594  0.92636096  1
  Te  Te105  1  0.09777337  0.90590135  0.27550681  1
  Te  Te106  1  0.07364048  0.92509577  0.57134666  1
  Te  Te107  1  0.09034154  0.88365632  0.90231311  1
  Te  Te108  1  0.42221669  0.24434766  0.26030836  1
  Te  Te109  1  0.43539076  0.23240893  0.58597423  1
  Te  Te110  1  0.40900428  0.24673317  0.94227644  1
  Te  Te111  1  0.46369713  0.55501284  0.24537971  1
  Te  Te112  1  0.41790814  0.54726726  0.54842519  1
  Te  Te113  1  0.44147514  0.58039774  0.91868064  1
  Te  Te114  1  0.44084976  0.91135911  0.25279107  1
  Te  Te115  1  0.43973753  0.94017877  0.58570247  1
  Te  Te116  1  0.42028622  0.88534428  0.96848749  1
  Te  Te117  1  0.74716022  0.27000933  0.25085007  1
  Te  Te118  1  0.73486846  0.22711147  0.57094943  1
  Te  Te119  1  0.76275811  0.24236897  0.94572093  1
  Te  Te120  1  0.74491837  0.61243568  0.25581279  1
  Te  Te121  1  0.77083743  0.55970020  0.60870557  1
  Te  Te122  1  0.71608008  0.60843271  0.93585102  1
  Te  Te123  1  0.74130051  0.91278336  0.22767572  1
  Te  Te124  1  0.71265640  0.93887334  0.58797864  1
  Te  Te125  1  0.74717978  0.93232239  0.90023576  1
  Te  Te126  1  0.27033241  0.20528166  0.09441107  1
  Te  Te127  1  0.24278976  0.26647552  0.41631002  1
  Te  Te128  1  0.26442020  0.24719859  0.73647057  1
  Te  Te129  1  0.28495748  0.56616323  0.08968925  1
  Te  Te130  1  0.27686766  0.57884577  0.38429765  1
  Te  Te131  1  0.23767891  0.57447192  0.77309173  1
  Te  Te132  1  0.26209185  0.94028710  0.09689369  1
  Te  Te133  1  0.25834071  0.90751908  0.42152681  1
  Te  Te134  1  0.25727699  0.90279978  0.73972014  1
  Te  Te135  1  0.57458864  0.24327506  0.09575816  1
  Te  Te136  1  0.53887459  0.28013803  0.44839197  1
  Te  Te137  1  0.59343446  0.26114138  0.75248027  1
  Te  Te138  1  0.55036079  0.60494094  0.12645698  1
  Te  Te139  1  0.59120989  0.59873014  0.41746484  1
  Te  Te140  1  0.58341061  0.60182949  0.76055336  1
  Te  Te141  1  0.59644367  0.89644976  0.08483741  1
  Te  Te142  1  0.59852377  0.91534966  0.42549593  1
  Te  Te143  1  0.57607386  0.89774882  0.78550315  1
  Te  Te144  1  0.93702535  0.24422751  0.10096009  1
  Te  Te145  1  0.91372992  0.27274587  0.41049381  1
  Te  Te146  1  0.87747033  0.26326078  0.75654707  1
  Te  Te147  1  0.91457524  0.58663947  0.07786540  1
  Te  Te148  1  0.92849900  0.60114811  0.41140350  1
  Te  Te149  1  0.92442285  0.57171599  0.76724216  1
  Te  Te150  1  0.90047805  0.90829980  0.08416577  1
  Te  Te151  1  0.89683276  0.93766166  0.43475370  1
  Te  Te152  1  0.93265026  0.93436179  0.74860327  1
  Te  Te153  1  0.24898030  0.09798380  0.25808866  1
  Te  Te154  1  0.24705207  0.08510825  0.58704233  1
  Te  Te155  1  0.25651306  0.05737887  0.90363983  1
  Te  Te156  1  0.26983848  0.40838585  0.23519616  1
  Te  Te157  1  0.24086537  0.42587529  0.58335618  1
  Te  Te158  1  0.26503048  0.39108369  0.93585031  1
  Te  Te159  1  0.25971072  0.75349933  0.25332384  1
  Te  Te160  1  0.27605854  0.72732031  0.58135850  1
  Te  Te161  1  0.25142403  0.73691044  0.92076407  1
  Te  Te162  1  0.56445775  0.06937621  0.23594901  1
  Te  Te163  1  0.59375872  0.05993693  0.45487498  1
  Te  Te164  1  0.57727230  0.10477679  0.93518484  1
  Te  Te165  1  0.58446267  0.44665449  0.26667874  1
  Te  Te166  1  0.59371620  0.41085433  0.61831638  1
  Te  Te167  1  0.60398240  0.42401885  0.91015595  1
  Te  Te168  1  0.60540967  0.81740600  0.21974979  1
  Te  Te169  1  0.58274749  0.76216520  0.59230370  1
  Te  Te170  1  0.55606930  0.80684559  0.95989449  1
  Te  Te171  1  0.89963683  0.06599368  0.23743642  1
  Te  Te172  1  0.87059457  0.11882870  0.59727750  1
  Te  Te173  1  0.91790377  0.08661493  0.91728047  1
  Te  Te174  1  0.90199695  0.43962290  0.26046791  1
  Te  Te175  1  0.89602835  0.41088608  0.58007808  1
  Te  Te176  1  0.88625550  0.40813379  0.91782314  1
  Te  Te177  1  0.92870508  0.76081332  0.26611546  1
  Te  Te178  1  0.88345238  0.75624185  0.58539790  1
  Te  Te179  1  0.90710034  0.74270023  0.92547586  1
