# generated using pymatgen
data_In2Te3
_symmetry_space_group_name_H-M   'P 1'
_cell_length_a   19.01815162
_cell_length_b   19.02918726
_cell_length_c   19.03626350
_cell_angle_alpha   89.85909705
_cell_angle_beta   90.05328161
_cell_angle_gamma   90.07438721
_symmetry_Int_Tables_number   1
_chemical_formula_structural   In2Te3
_chemical_formula_sum   'In72 Te108'
_cell_volume   6889.19356436
_cell_formula_units_Z   36
loop_
 _symmetry_equiv_pos_site_id
 _symmetry_equiv_pos_as_xyz
  1  'x, y, z'
loop_
 _atom_site_type_symbol
 _atom_site_label
 _atom_site_symmetry_multiplicity
 _atom_site_fract_x
 _atom_site_fract_y
 _atom_site_fract_z
 _atom_site_occupancy
  In  In0  1  0.16950147  0.49244027  0.01653259  1
  In  In1  1  0.34951963  0.64971092  0.31968940  1
  In  In2  1  0.85323180  0.64551918  0.12507410  1
  In  In3  1  0.48476363  0.84694371  0.01547386  1
  In  In4  1  0.50241038  0.50940161  -0.00598389  1
  In  In5  1  0.50453297  0.15579505  0.65338278  1
  In  In6  1  0.14342144  0.17964296  0.32533717  1
  In  In7  1  0.82812785  0.18394437  0.01617425  1
  In  In8  1  0.32679016  0.17481468  0.84127927  1
  In  In9  1  -0.00404013  0.79326731  0.85864603  1
  In  In10  1  0.67567357  0.65610419  -0.01337977  1
  In  In11  1  0.34420735  0.33784772  0.32335679  1
  In  In12  1  0.51272021  0.64797810  0.47778358  1
  In  In13  1  0.18824711  0.82520357  0.33395548  1
  In  In14  1  0.01099363  0.81432268  0.49986917  1
  In  In15  1  0.49960258  0.31321670  0.50464939  1
  In  In16  1  0.83474669  0.00335784  0.81571414  1
  In  In17  1  0.49602698  0.18575309  0.32961165  1
  In  In18  1  0.35471352  0.83374658  0.82127698  1
  In  In19  1  0.85486806  0.63767822  0.48020715  1
  In  In20  1  0.35516025  0.50774568  0.16330502  1
  In  In21  1  0.13873975  0.81067921  0.02794766  1
  In  In22  1  0.81341638  -0.00115299  0.14249332  1
  In  In23  1  0.35722615  0.67126144  -0.02042666  1
  In  In24  1  0.33143859  0.85096717  0.50523670  1
  In  In25  1  0.83787898  0.50983116  0.68239447  1
  In  In26  1  0.65958239  0.00079889  0.33976476  1
  In  In27  1  0.85257740  0.83037858  0.00394658  1
  In  In28  1  0.02331675  0.48906469  0.84196490  1
  In  In29  1  0.18135975  0.68023629  0.48618215  1
  In  In30  1  0.66311501  0.85859166  0.49705325  1
  In  In31  1  0.83811656  0.19302747  0.33412830  1
  In  In32  1  0.14832679  0.50528511  0.66768255  1
  In  In33  1  0.50027104  0.00440908  0.50297612  1
  In  In34  1  0.84302154  0.79949807  0.31797805  1
  In  In35  1  0.14462738  0.33312429  0.51803603  1
  In  In36  1  0.63551919  0.33126985  0.00989166  1
  In  In37  1  -0.02019012  0.19843379  0.18003119  1
  In  In38  1  -0.00046475  0.65222058  0.64898144  1
  In  In39  1  -0.00725302  -0.00258146  0.68317409  1
  In  In40  1  0.17730061  0.65201715  0.83726025  1
  In  In41  1  0.53384674  0.51211093  0.68421328  1
  In  In42  1  0.32712603  0.01894861  0.67477077  1
  In  In43  1  0.33589934  0.17477107  0.50952052  1
  In  In44  1  0.01253878  0.18281431  0.84350620  1
  In  In45  1  0.01866992  0.01000302  0.00179405  1
  In  In46  1  0.67522863  0.81167331  0.84300932  1
  In  In47  1  0.31890760  0.82253785  0.16047581  1
  In  In48  1  0.31991434  0.34561492  -0.00457001  1
  In  In49  1  0.63779781  0.81879192  0.18118995  1
  In  In50  1  0.45974428  -0.00655700  0.17538680  1
  In  In51  1  0.66560827  0.65233721  0.33510286  1
  In  In52  1  0.85660628  0.34602222  0.82700755  1
  In  In53  1  0.31691247  0.16084303  0.14673019  1
  In  In54  1  0.52895482  0.80913098  0.68952974  1
  In  In55  1  0.49529384  0.33669852  0.83554208  1
  In  In56  1  -0.05563116  0.46162442  0.46883972  1
  In  In57  1  0.65770924  0.15913904  0.83519880  1
  In  In58  1  0.83522629  -0.00823441  0.50710641  1
  In  In59  1  0.83031143  0.34347265  0.16170577  1
  In  In60  1  0.72111449  0.45615915  0.49563716  1
  In  In61  1  0.33483791  0.49920126  0.52304567  1
  In  In62  1  0.68060469  0.03256124  0.00628957  1
  In  In63  1  0.13604248  0.50894622  0.30072177  1
  In  In64  1  0.16568449  0.84489688  0.65669867  1
  In  In65  1  0.16675297  0.17989278  0.67975826  1
  In  In66  1  0.17289157  0.00858902  0.17676296  1
  In  In67  1  0.66349610  0.48398300  0.17335582  1
  In  In68  1  0.01390881  0.00727184  0.33237582  1
  In  In69  1  0.70741524  0.31173681  0.63297133  1
  In  In70  1  0.16998113  0.19270765  -0.01466666  1
  In  In71  1  0.65330662  -0.00146104  0.65925272  1
  Te  Te72  1  0.08061026  0.10424049  0.10284460  1
  Te  Te73  1  0.05912437  0.11044668  0.42299236  1
  Te  Te74  1  0.08899774  0.07878087  0.76703758  1
  Te  Te75  1  0.07552168  0.44512592  0.12191609  1
  Te  Te76  1  0.07984624  0.41970641  0.41129333  1
  Te  Te77  1  0.04891936  0.40734981  0.72015840  1
  Te  Te78  1  0.05229113  0.71945931  0.10246788  1
  Te  Te79  1  0.07594957  0.73498664  0.39137046  1
  Te  Te80  1  0.08618951  0.74331444  0.73844903  1
  Te  Te81  1  0.39923150  0.07040536  0.06835191  1
  Te  Te82  1  0.41250112  0.08781587  0.41388357  1
  Te  Te83  1  0.42882830  0.08581658  0.76177345  1
  Te  Te84  1  0.43034216  0.40746956  0.07976879  1
  Te  Te85  1  0.41988802  0.41693107  0.42855576  1
  Te  Te86  1  0.42692043  0.44172889  0.75869387  1
  Te  Te87  1  0.42558104  0.73546006  0.09876514  1
  Te  Te88  1  0.40590370  0.74248763  0.42488057  1
  Te  Te89  1  0.43701619  0.72743245  0.76663001  1
  Te  Te90  1  0.73053802  0.13019449  0.12286697  1
  Te  Te91  1  0.75959520  0.08433540  0.41374219  1
  Te  Te92  1  0.74722727  0.09339149  0.73172709  1
  Te  Te93  1  0.74517210  0.42263875  0.06264035  1
  Te  Te94  1  0.78528178  0.41410442  0.36714476  1
  Te  Te95  1  0.74422802  0.40721414  0.74340789  1
  Te  Te96  1  0.74373816  0.76070006  0.08910294  1
  Te  Te97  1  0.75043672  0.75007828  0.42668082  1
  Te  Te98  1  0.73906650  0.71057907  0.75947662  1
  Te  Te99  1  0.06214749  0.28372137  0.26393411  1
  Te  Te100  1  0.06570032  0.23278825  0.58673357  1
  Te  Te101  1  0.09073425  0.28827970  0.90806308  1
  Te  Te102  1  0.07746666  0.59541927  0.19413493  1
  Te  Te103  1  0.08481016  0.58111341  0.54947990  1
  Te  Te104  1  0.08370781  0.59210412  0.93713079  1
  Te  Te105  1  0.08814167  0.90668347  0.24856671  1
  Te  Te106  1  0.07543422  0.92971016  0.57162239  1
  Te  Te107  1  0.08260669  0.90221461  0.91779862  1
  Te  Te108  1  0.41494468  0.25281736  0.22186196  1
  Te  Te109  1  0.40459095  0.26112376  0.61157398  1
  Te  Te110  1  0.42083403  0.25082562  0.93449689  1
  Te  Te111  1  0.45508953  0.55192837  0.26756461  1
  Te  Te112  1  0.43407053  0.58887866  0.59196299  1
  Te  Te113  1  0.41365696  0.56852030  0.89207948  1
  Te  Te114  1  0.38552740  0.90367330  0.26150957  1
  Te  Te115  1  0.42654990  0.91948794  0.60454641  1
  Te  Te116  1  0.41414048  0.92609235  0.91612073  1
  Te  Te117  1  0.74022794  0.27057479  0.25519856  1
  Te  Te118  1  0.80889453  0.26422263  0.54333160  1
  Te  Te119  1  0.74266689  0.25613269  0.91482165  1
  Te  Te120  1  0.75225246  0.59344863  0.22941732  1
  Te  Te121  1  0.75441108  0.57986413  0.57706796  1
  Te  Te122  1  0.72631920  0.58909215  0.86586094  1
  Te  Te123  1  0.74815165  0.90876256  0.25590391  1
  Te  Te124  1  0.75749101  0.90362884  0.60566169  1
  Te  Te125  1  0.75365469  0.92145499  0.92318751  1
  Te  Te126  1  0.23060298  0.27400534  0.09625511  1
  Te  Te127  1  0.25207315  0.26381936  0.42028372  1
  Te  Te128  1  0.24649467  0.26837023  0.76373977  1
  Te  Te129  1  0.26792504  0.59265179  0.07458576  1
  Te  Te130  1  0.25291841  0.56931409  0.40773603  1
  Te  Te131  1  0.25159066  0.58471048  0.73302833  1
  Te  Te132  1  0.23680923  0.91694606  0.07617217  1
  Te  Te133  1  0.23266182  0.92542288  0.42934411  1
  Te  Te134  1  0.24588724  0.92238066  0.75721377  1
  Te  Te135  1  0.60768052  0.22080349  0.09745070  1
  Te  Te136  1  0.59495142  0.25528897  0.41182328  1
  Te  Te137  1  0.58556295  0.25314994  0.73809699  1
  Te  Te138  1  0.58635407  0.59075228  0.08824621  1
  Te  Te139  1  0.61227858  0.54637409  0.42709456  1
  Te  Te140  1  0.61610202  0.61214979  0.75962625  1
  Te  Te141  1  0.59495438  0.92998545  0.08737295  1
  Te  Te142  1  0.55714502  0.90723970  0.40210615  1
  Te  Te143  1  0.58935979  0.92047901  0.77040094  1
  Te  Te144  1  0.93429391  0.27948156  0.06107991  1
  Te  Te145  1  0.89175637  0.30779879  0.41947343  1
  Te  Te146  1  0.90350371  0.22749767  0.75835898  1
  Te  Te147  1  0.94052118  0.52163563  0.12463067  1
  Te  Te148  1  0.91688967  0.56888451  0.36667533  1
  Te  Te149  1  0.93262796  0.59091898  0.76686330  1
  Te  Te150  1  0.93435917  0.92126213  0.09262833  1
  Te  Te151  1  0.91992682  0.90306709  0.40777738  1
  Te  Te152  1  0.91879540  0.88983408  0.76502517  1
  Te  Te153  1  0.25403340  0.09385996  0.26977228  1
  Te  Te154  1  0.23657338  0.08368617  0.57616914  1
  Te  Te155  1  0.24051763  0.08570667  0.91978631  1
  Te  Te156  1  0.25238193  0.42918115  0.24358348  1
  Te  Te157  1  0.24715014  0.40674921  0.60246219  1
  Te  Te158  1  0.22844344  0.41619039  0.90482453  1
  Te  Te159  1  0.24140381  0.71939147  0.23989887  1
  Te  Te160  1  0.26217506  0.74712367  0.59473348  1
  Te  Te161  1  0.24592042  0.75798192  0.92218505  1
  Te  Te162  1  0.56516432  0.07532776  0.25086557  1
  Te  Te163  1  0.60489354  0.09912325  0.55615863  1
  Te  Te164  1  0.57165408  0.09269907  0.93207838  1
  Te  Te165  1  0.54798210  0.43325804  0.24542600  1
  Te  Te166  1  0.59528533  0.41032805  0.58304384  1
  Te  Te167  1  0.59345220  0.43060500  0.90235057  1
  Te  Te168  1  0.56228871  0.73670360  0.27398536  1
  Te  Te169  1  0.59066488  0.74657118  0.56880798  1
  Te  Te170  1  0.57103247  0.75042952  0.93205038  1
  Te  Te171  1  0.90509465  0.08044583  0.24489778  1
  Te  Te172  1  0.91098929  0.08073440  0.59423894  1
  Te  Te173  1  0.90420661  0.07934436  0.92968842  1
  Te  Te174  1  0.89372554  0.44310064  0.25576489  1
  Te  Te175  1  0.93234105  0.41831328  0.61017258  1
  Te  Te176  1  0.91251526  0.43834263  0.92309319  1
  Te  Te177  1  0.92822165  0.74401077  0.21207694  1
  Te  Te178  1  0.90417514  0.74647310  0.58080832  1
  Te  Te179  1  0.90733819  0.71064872  0.94148517  1
