# generated using pymatgen
data_In2Te3
_symmetry_space_group_name_H-M   'P 1'
_cell_length_a   18.93733967
_cell_length_b   18.93236000
_cell_length_c   18.93004527
_cell_angle_alpha   89.95763266
_cell_angle_beta   89.98050577
_cell_angle_gamma   90.05849050
_symmetry_Int_Tables_number   1
_chemical_formula_structural   In2Te3
_chemical_formula_sum   'In72 Te108'
_cell_volume   6786.95555272
_cell_formula_units_Z   36
loop_
 _symmetry_equiv_pos_site_id
 _symmetry_equiv_pos_as_xyz
  1  'x, y, z'
loop_
 _atom_site_type_symbol
 _atom_site_label
 _atom_site_symmetry_multiplicity
 _atom_site_fract_x
 _atom_site_fract_y
 _atom_site_fract_z
 _atom_site_occupancy
  In  In0  1  0.58331577  0.71187983  0.12245992  1
  In  In1  1  0.14681842  0.64499230  0.15458328  1
  In  In2  1  0.50875573  0.46640375  0.65987497  1
  In  In3  1  0.65541480  0.00385316  -0.00140287  1
  In  In4  1  0.50763383  0.66804685  0.47066694  1
  In  In5  1  0.85266881  0.64194940  0.48998598  1
  In  In6  1  0.49039723  0.84616334  0.35431855  1
  In  In7  1  0.34144746  0.48183345  0.17702380  1
  In  In8  1  0.85394827  0.69841326  0.83933765  1
  In  In9  1  0.49543144  0.33521774  0.18167835  1
  In  In10  1  0.82720047  0.85333682  0.65318453  1
  In  In11  1  0.66288720  0.33963863  0.00453470  1
  In  In12  1  0.51015262  0.13208866  0.33404283  1
  In  In13  1  0.15062862  0.66461339  0.52140970  1
  In  In14  1  0.67194146  0.85493701  0.51342913  1
  In  In15  1  0.30872826  0.84965906  0.16725487  1
  In  In16  1  0.31792991  0.65865516  0.65018120  1
  In  In17  1  -0.03097136  0.84245009  0.49697537  1
  In  In18  1  0.79748647  0.32611028  0.81780862  1
  In  In19  1  0.30070939  0.33551666  0.33733221  1
  In  In20  1  -0.02308920  0.48055887  0.19947507  1
  In  In21  1  0.36846893  0.66901906  -0.01066978  1
  In  In22  1  0.80302109  0.69959582  0.16609203  1
  In  In23  1  -0.02771415  -0.00056916  0.35154703  1
  In  In24  1  0.67962504  0.51031954  0.83583837  1
  In  In25  1  0.65541075  0.15547283  0.18416019  1
  In  In26  1  0.31560180  0.50051751  0.49463623  1
  In  In27  1  0.82560547  0.51119782  0.00764703  1
  In  In28  1  0.35067960  0.15298177  0.81366358  1
  In  In29  1  0.34700679  0.31548053  -0.01080105  1
  In  In30  1  -0.01984285  0.82499891  0.16888445  1
  In  In31  1  0.50547378  0.01116637  0.81422778  1
  In  In32  1  0.81788315  0.00945389  0.83606736  1
  In  In33  1  0.16575751  -0.00671007  0.49854387  1
  In  In34  1  -0.01538308  0.15425092  0.20445073  1
  In  In35  1  0.14173292  0.82272164  0.35229766  1
  In  In36  1  0.35299050  0.01828587  0.34822626  1
  In  In37  1  0.35693350  0.68430608  0.32604534  1
  In  In38  1  0.01351980  0.13733396  0.82382594  1
  In  In39  1  0.53176798  0.30373595  0.80154690  1
  In  In40  1  -0.01270830  0.69792642  0.00519231  1
  In  In41  1  0.17669088  0.31578160  0.51855811  1
  In  In42  1  0.49922761  0.67428100  0.86155188  1
  In  In43  1  0.69126364  0.32249166  0.39093408  1
  In  In44  1  0.68253710  0.66385620  0.33503756  1
  In  In45  1  0.67778082  0.67328046  0.67157950  1
  In  In46  1  0.35459527  0.03221925  -0.00479648  1
  In  In47  1  0.17886210  0.18173132  -0.00490220  1
  In  In48  1  0.16916215  0.49014343  -0.01622534  1
  In  In49  1  0.86567201  0.48275221  0.64511549  1
  In  In50  1  0.15551210  0.00373127  0.14975261  1
  In  In51  1  0.33468950  0.15999650  0.13550487  1
  In  In52  1  0.17987707  0.68139976  0.81418245  1
  In  In53  1  0.00373181  0.48784248  0.84360893  1
  In  In54  1  0.54183623  0.26671699  0.55712272  1
  In  In55  1  0.49672966  0.85972688  0.67547375  1
  In  In56  1  -0.00127341  -0.07284103  -0.03733076  1
  In  In57  1  0.00028936  0.32270583  0.65568395  1
  In  In58  1  0.32960040  -0.00607713  0.67634805  1
  In  In59  1  0.82776137  0.18767477  0.38190789  1
  In  In60  1  0.51111690  0.50303205  0.33889612  1
  In  In61  1  0.17273384  0.31049986  0.80267490  1
  In  In62  1  -0.00973339  0.32985263  0.02388068  1
  In  In63  1  0.66189496  0.51925833  0.14608257  1
  In  In64  1  -0.00780475  0.01811100  0.64210257  1
  In  In65  1  0.83487195  0.18229556  0.00833668  1
  In  In66  1  0.31773762  0.82524780  0.82535159  1
  In  In67  1  0.50742862  0.85091045  0.00950030  1
  In  In68  1  0.03612257  0.66220830  0.66758857  1
  In  In69  1  0.16710199  0.17556223  0.34017856  1
  In  In70  1  0.82465122  0.15679041  0.65951510  1
  In  In71  1  0.12868386  0.49987698  0.37295174  1
  Te  Te72  1  0.07618042  0.11213437  0.08249089  1
  Te  Te73  1  0.07403152  0.08760996  0.42195543  1
  Te  Te74  1  0.09940863  0.09704542  0.71192065  1
  Te  Te75  1  0.07967955  0.43045789  0.09176060  1
  Te  Te76  1  0.07620990  0.36903645  0.41923129  1
  Te  Te77  1  0.08664970  0.41933194  0.73802801  1
  Te  Te78  1  0.09551014  0.76951527  0.08474409  1
  Te  Te79  1  0.04927289  0.73238430  0.42697190  1
  Te  Te80  1  0.06184880  0.76312663  0.77427257  1
  Te  Te81  1  0.44890006  0.07301866  0.10064171  1
  Te  Te82  1  0.43776627  0.07884098  0.45145234  1
  Te  Te83  1  0.44987438  0.10335647  0.70517921  1
  Te  Te84  1  0.42833910  0.41603265  0.07077200  1
  Te  Te85  1  0.40882107  0.41615649  0.40993412  1
  Te  Te86  1  0.41922635  0.38195131  0.74163787  1
  Te  Te87  1  0.41546923  0.75947024  0.10236489  1
  Te  Te88  1  0.39579238  0.76779445  0.44582417  1
  Te  Te89  1  0.41837077  0.74564344  0.74044908  1
  Te  Te90  1  0.75214205  0.08560078  0.08988842  1
  Te  Te91  1  0.74060710  0.09289314  0.46458443  1
  Te  Te92  1  0.72846984  0.09167702  0.75220747  1
  Te  Te93  1  0.76052205  0.40839230  0.09749998  1
  Te  Te94  1  0.79087931  0.42831056  0.42520018  1
  Te  Te95  1  0.74128676  0.42827776  0.72476543  1
  Te  Te96  1  0.71203974  0.77203241  0.06907502  1
  Te  Te97  1  0.75414822  0.74662652  0.43925065  1
  Te  Te98  1  0.74902735  0.77376605  0.75845243  1
  Te  Te99  1  0.09244630  0.24980857  0.23730316  1
  Te  Te100  1  0.08978506  0.22135442  0.59616647  1
  Te  Te101  1  0.07103568  0.26283113  0.91301556  1
  Te  Te102  1  0.06134940  0.58874659  0.26700427  1
  Te  Te103  1  0.06764411  0.55441680  0.57360600  1
  Te  Te104  1  0.07626504  0.59601768  0.92222729  1
  Te  Te105  1  0.08005820  0.92904109  0.26109693  1
  Te  Te106  1  0.07571111  0.90334306  0.58355076  1
  Te  Te107  1  0.09811323  0.90602193  0.85917735  1
  Te  Te108  1  0.39165963  0.24854321  0.24951493  1
  Te  Te109  1  0.41461056  0.24574310  0.63454063  1
  Te  Te110  1  0.44141206  0.23052641  0.90831530  1
  Te  Te111  1  0.43371381  0.58683520  0.23877944  1
  Te  Te112  1  0.42917767  0.57769581  0.57012682  1
  Te  Te113  1  0.39779806  0.57133704  0.88462313  1
  Te  Te114  1  0.41506589  0.92360529  0.24631754  1
  Te  Te115  1  0.41953150  0.93258543  0.57544371  1
  Te  Te116  1  0.41230207  0.91691629  0.90290066  1
  Te  Te117  1  0.74210361  0.24891399  0.26833821  1
  Te  Te118  1  0.72975071  0.25272075  0.58971321  1
  Te  Te119  1  0.72671457  0.23391960  0.91501266  1
  Te  Te120  1  0.76315917  0.57338650  0.24529266  1
  Te  Te121  1  0.75550655  0.57526205  0.58789548  1
  Te  Te122  1  0.75428995  0.61179978  0.92117242  1
  Te  Te123  1  0.79528130  0.85228948  0.17037103  1
  Te  Te124  1  0.75799527  0.95939090  0.57527484  1
  Te  Te125  1  0.75352084  0.91652998  0.93052655  1
  Te  Te126  1  0.24350985  0.27663289  0.09341265  1
  Te  Te127  1  0.27253666  0.22625414  0.43866963  1
  Te  Te128  1  0.27133823  0.23777673  0.71840472  1
  Te  Te129  1  0.26055561  0.57533045  0.07916435  1
  Te  Te130  1  0.24869037  0.60270255  0.40536614  1
  Te  Te131  1  0.24473909  0.57195652  0.74294151  1
  Te  Te132  1  0.24994221  0.93322488  0.05533796  1
  Te  Te133  1  0.25188752  0.91225348  0.40266841  1
  Te  Te134  1  0.22498369  0.91744673  0.75448624  1
  Te  Te135  1  0.57671152  0.24730288  0.08931675  1
  Te  Te136  1  0.55348751  0.26204303  0.39891221  1
  Te  Te137  1  0.62667064  0.23789122  0.70469020  1
  Te  Te138  1  0.57301005  0.58474573  0.05087516  1
  Te  Te139  1  0.61324192  0.56703572  0.43051377  1
  Te  Te140  1  0.57779877  0.58487608  0.74653373  1
  Te  Te141  1  0.57564811  0.93822658  0.10621055  1
  Te  Te142  1  0.59126060  0.93344781  0.41715477  1
  Te  Te143  1  0.60524356  0.93116769  0.74082444  1
  Te  Te144  1  0.90171814  0.25821125  0.12140623  1
  Te  Te145  1  0.95506045  0.26755205  0.37197120  1
  Te  Te146  1  0.91381346  0.24379461  0.76321088  1
  Te  Te147  1  0.93141762  0.58266437  0.08818956  1
  Te  Te148  1  0.90702342  0.53126743  0.40873976  1
  Te  Te149  1  0.90436584  0.57377176  0.76662216  1
  Te  Te150  1  0.93099239  0.94233365  0.09359769  1
  Te  Te151  1  0.87325882  0.90503128  0.40563156  1
  Te  Te152  1  0.91568284  0.93549308  0.74437602  1
  Te  Te153  1  0.25015556  0.07978896  0.24273009  1
  Te  Te154  1  0.25204448  0.07723828  0.58258121  1
  Te  Te155  1  0.24387705  0.08500837  0.90078071  1
  Te  Te156  1  0.22386859  0.44185744  0.26278023  1
  Te  Te157  1  0.24870626  0.41884613  0.59456941  1
  Te  Te158  1  0.25474539  0.39772189  0.89955331  1
  Te  Te159  1  0.23293572  0.74174993  0.24766282  1
  Te  Te160  1  0.23175995  0.76237335  0.59366935  1
  Te  Te161  1  0.24823730  0.74501902  0.93391179  1
  Te  Te162  1  0.61979201  0.04874117  0.28160787  1
  Te  Te163  1  0.62596881  0.13582074  0.54872277  1
  Te  Te164  1  0.56932522  0.09352811  0.91760948  1
  Te  Te165  1  0.60100890  0.42015141  0.24959030  1
  Te  Te166  1  0.59132591  0.40765089  0.55553952  1
  Te  Te167  1  0.58194820  0.41329573  0.89963367  1
  Te  Te168  1  0.58253642  0.75509106  0.26752664  1
  Te  Te169  1  0.57895716  0.74803715  0.58059942  1
  Te  Te170  1  0.59043972  0.77498178  0.91342267  1
  Te  Te171  1  0.87114211  0.08055504  0.27415747  1
  Te  Te172  1  0.90852191  0.10025082  0.55110200  1
  Te  Te173  1  0.92300169  0.08217741  0.93154980  1
  Te  Te174  1  0.90482934  0.39752881  0.30196876  1
  Te  Te175  1  0.89641108  0.36670464  0.55929684  1
  Te  Te176  1  0.89506448  0.40396015  0.91871974  1
  Te  Te177  1  0.90297515  0.74808687  0.26710929  1
  Te  Te178  1  0.91388129  0.73459046  0.60431849  1
  Te  Te179  1  0.90419290  0.80321525  0.93711942  1
