# generated using pymatgen
data_In2Te3
_symmetry_space_group_name_H-M   'P 1'
_cell_length_a   18.79200313
_cell_length_b   18.79826627
_cell_length_c   18.78568202
_cell_angle_alpha   89.99751909
_cell_angle_beta   89.96079324
_cell_angle_gamma   89.90839797
_symmetry_Int_Tables_number   1
_chemical_formula_structural   In2Te3
_chemical_formula_sum   'In72 Te108'
_cell_volume   6636.16510727
_cell_formula_units_Z   36
loop_
 _symmetry_equiv_pos_site_id
 _symmetry_equiv_pos_as_xyz
  1  'x, y, z'
loop_
 _atom_site_type_symbol
 _atom_site_label
 _atom_site_symmetry_multiplicity
 _atom_site_fract_x
 _atom_site_fract_y
 _atom_site_fract_z
 _atom_site_occupancy
  In  In0  1  0.49492825  0.64506030  0.19488545  1
  In  In1  1  0.67920278  0.67228820  -0.01592241  1
  In  In2  1  -0.01697401  0.00046774  0.33357588  1
  In  In3  1  0.82568082  0.35291653  0.84591731  1
  In  In4  1  0.67309021  0.64620854  0.33946361  1
  In  In5  1  -0.00424526  0.66730566  0.38095890  1
  In  In6  1  0.52505444  0.82770352  0.66072374  1
  In  In7  1  0.68810677  0.51428004  0.51957237  1
  In  In8  1  -0.02587291  0.52621667  0.79686456  1
  In  In9  1  0.51969626  -0.01141190  0.82211894  1
  In  In10  1  0.69487795  0.18675786  0.19364575  1
  In  In11  1  0.31806076  0.18797853  0.13909946  1
  In  In12  1  0.32415480  0.83452311  0.17810417  1
  In  In13  1  0.00006508  0.34348181  0.34640579  1
  In  In14  1  0.16393998  0.46731024  0.33875042  1
  In  In15  1  0.35714738  0.83636383  0.84256102  1
  In  In16  1  0.32426074  0.65653506  0.66232979  1
  In  In17  1  0.48799616  0.49123216  0.00531802  1
  In  In18  1  0.50659383  0.00927241  0.49505404  1
  In  In19  1  0.66910735  0.33457818  0.00414485  1
  In  In20  1  0.65722495  0.33645903  0.67790522  1
  In  In21  1  0.84419664  0.15525751  0.67380407  1
  In  In22  1  -0.00529071  0.32020158  0.00534126  1
  In  In23  1  0.82994926  0.18395980  0.00419917  1
  In  In24  1  0.02987508  0.15421554  0.82716093  1
  In  In25  1  0.50469578  0.35815856  0.17202529  1
  In  In26  1  0.33054148  0.64221675  0.33620755  1
  In  In27  1  0.84808135  0.81721026  0.35032421  1
  In  In28  1  0.14679779  0.35860820  0.82355253  1
  In  In29  1  0.67377401  0.16340019  0.49558603  1
  In  In30  1  0.83887931  0.80908571  0.64582494  1
  In  In31  1  -0.02104549  0.48559581  0.17541795  1
  In  In32  1  0.68259612  0.82249994  0.51082701  1
  In  In33  1  0.17056774  0.03118009  0.82370503  1
  In  In34  1  0.67868009  0.00890568  0.34036971  1
  In  In35  1  0.16206242  0.85143254  0.01325517  1
  In  In36  1  0.34485569  0.65053319  -0.00466862  1
  In  In37  1  -0.01777739  0.83693083  0.19527517  1
  In  In38  1  0.16895054  0.66047998  0.17889660  1
  In  In39  1  -0.02172251  0.66083144  -0.00240317  1
  In  In40  1  0.48564707  0.19332647  0.63340115  1
  In  In41  1  0.50908018  0.49372109  0.66872086  1
  In  In42  1  0.83447562  0.83240675  -0.00005934  1
  In  In43  1  0.67910545  0.48800024  0.17130441  1
  In  In44  1  0.33049875  0.48360510  0.50165544  1
  In  In45  1  0.81840757  -0.02086234  0.82736010  1
  In  In46  1  0.83917291  0.35158336  0.48506242  1
  In  In47  1  0.13850600  0.82440734  0.65650293  1
  In  In48  1  0.49503635  0.15951311  -0.01435235  1
  In  In49  1  0.32966191  0.17100509  0.85616375  1
  In  In50  1  -0.00641204  0.17254316  0.51069967  1
  In  In51  1  0.48489466  0.32809688  0.81550264  1
  In  In52  1  0.16050476  -0.01199813  0.51538814  1
  In  In53  1  0.33482136  0.34771657  0.33792105  1
  In  In54  1  0.68382399  0.50853384  0.81569183  1
  In  In55  1  0.16502847  0.49902234  -0.00183735  1
  In  In56  1  0.14605155  0.00620613  0.17939805  1
  In  In57  1  0.35227710  0.00296087  0.33291744  1
  In  In58  1  0.83067407  0.01299466  0.17581094  1
  In  In59  1  -0.02045936  0.34832582  0.65292296  1
  In  In60  1  0.46805741  0.82508711  0.33201559  1
  In  In61  1  0.00155220  0.81099291  0.82149516  1
  In  In62  1  0.02601732  0.03203111  0.00835859  1
  In  In63  1  0.50226761  0.84366357  -0.00876857  1
  In  In64  1  0.66205367  0.83579995  0.13928953  1
  In  In65  1  0.31626844  0.00716170  0.68323287  1
  In  In66  1  0.15432499  0.17699481  0.66788481  1
  In  In67  1  0.17313262  0.20489887  0.34364237  1
  In  In68  1  0.51798911  0.64596857  0.85243617  1
  In  In69  1  0.18165719  0.66848099  0.80780583  1
  In  In70  1  0.33667492  0.81862223  0.50523012  1
  In  In71  1  0.51637204  0.16996833  0.34094211  1
  Te  Te72  1  0.09050214  0.12481498  0.10548120  1
  Te  Te73  1  0.09140568  0.08711400  0.41725592  1
  Te  Te74  1  0.06889922  0.05801126  0.71432898  1
  Te  Te75  1  0.08360151  0.41080401  0.09226065  1
  Te  Te76  1  0.08384734  0.41064527  0.45069595  1
  Te  Te77  1  0.07793016  0.44918710  0.71715208  1
  Te  Te78  1  0.07817459  0.74801820  0.08951015  1
  Te  Te79  1  0.08657267  0.76178747  0.45427908  1
  Te  Te80  1  0.06028967  0.71043487  0.72298833  1
  Te  Te81  1  0.41795007  0.09003770  0.09116907  1
  Te  Te82  1  0.40878505  0.10567310  0.43111143  1
  Te  Te83  1  0.41898795  0.09766813  0.74929063  1
  Te  Te84  1  0.39573801  0.40954967  0.08564258  1
  Te  Te85  1  0.43260579  0.44427309  0.39806538  1
  Te  Te86  1  0.39795756  0.41262786  0.72870624  1
  Te  Te87  1  0.41872068  0.74861240  0.08836325  1
  Te  Te88  1  0.42557345  0.71914074  0.42981843  1
  Te  Te89  1  0.42384290  0.73615054  0.75106836  1
  Te  Te90  1  0.74005709  0.08619264  0.07984318  1
  Te  Te91  1  0.77447340  0.08506413  0.41991136  1
  Te  Te92  1  0.74492634  0.08748848  0.75805049  1
  Te  Te93  1  0.76710180  0.42172139  0.07037006  1
  Te  Te94  1  0.73765455  0.42671967  0.40716627  1
  Te  Te95  1  0.77306541  0.42501058  0.72249068  1
  Te  Te96  1  0.76609122  0.73410053  0.09522372  1
  Te  Te97  1  0.76861994  0.71959331  0.43575876  1
  Te  Te98  1  0.75598096  0.71708492  0.73167660  1
  Te  Te99  1  0.08433452  0.26958083  0.24709088  1
  Te  Te100  1  0.08833412  0.27601985  0.57144797  1
  Te  Te101  1  0.10792198  0.24255095  0.92764706  1
  Te  Te102  1  0.07429297  0.57433890  0.26025900  1
  Te  Te103  1  0.03501631  0.62535528  0.52617955  1
  Te  Te104  1  0.08278746  0.59311702  0.90709519  1
  Te  Te105  1  0.09189120  0.90099854  0.27570808  1
  Te  Te106  1  0.04964096  0.89414369  0.55689093  1
  Te  Te107  1  0.07566736  0.91838147  0.90591833  1
  Te  Te108  1  0.41796255  0.24515698  0.24911919  1
  Te  Te109  1  0.39442953  0.28377852  0.55940247  1
  Te  Te110  1  0.40754659  0.27591382  0.93584798  1
  Te  Te111  1  0.41271907  0.54160854  0.26076504  1
  Te  Te112  1  0.42353721  0.58156784  0.57619179  1
  Te  Te113  1  0.40151434  0.55632486  0.89064385  1
  Te  Te114  1  0.43479300  0.92973352  0.22701092  1
  Te  Te115  1  0.41333361  0.92255071  0.59092126  1
  Te  Te116  1  0.40838314  0.94788954  0.92626394  1
  Te  Te117  1  0.78056777  0.28806595  0.25361885  1
  Te  Te118  1  0.76452014  0.25979892  0.59111596  1
  Te  Te119  1  0.73503393  0.24378302  0.89926676  1
  Te  Te120  1  0.76870211  0.57358132  0.25360589  1
  Te  Te121  1  0.76453453  0.61472362  0.60685533  1
  Te  Te122  1  0.76063559  0.56076755  0.93077759  1
  Te  Te123  1  0.75851510  0.90081916  0.25213484  1
  Te  Te124  1  0.75644419  0.92056763  0.59024431  1
  Te  Te125  1  0.73426297  0.91527316  0.93081886  1
  Te  Te126  1  0.21037453  0.23455500  0.05014186  1
  Te  Te127  1  0.26306767  0.26874136  0.44426576  1
  Te  Te128  1  0.24598682  0.25539283  0.75960617  1
  Te  Te129  1  0.26256034  0.57285293  0.09765487  1
  Te  Te130  1  0.23101563  0.57334641  0.42787806  1
  Te  Te131  1  0.23993665  0.55663785  0.73143111  1
  Te  Te132  1  0.25544604  0.94024411  0.09114441  1
  Te  Te133  1  0.25839172  0.91707556  0.41888674  1
  Te  Te134  1  0.24012262  0.89419292  0.75386028  1
  Te  Te135  1  0.58384310  0.24788400  0.09512663  1
  Te  Te136  1  0.59553422  0.26375280  0.42146562  1
  Te  Te137  1  0.58143605  0.22990550  0.75270286  1
  Te  Te138  1  0.57887170  0.59125187  0.07749359  1
  Te  Te139  1  0.58253691  0.57369263  0.43054345  1
  Te  Te140  1  0.59846585  0.60228526  0.73031584  1
  Te  Te141  1  0.58180334  0.93818247  0.07273450  1
  Te  Te142  1  0.57961804  0.90765188  0.40811873  1
  Te  Te143  1  0.61607272  0.91205920  0.73874735  1
  Te  Te144  1  0.90656235  0.25687468  0.10670158  1
  Te  Te145  1  0.90452065  0.23707453  0.40643035  1
  Te  Te146  1  0.93247052  0.25956088  0.76935427  1
  Te  Te147  1  0.89957571  0.56934664  0.08117418  1
  Te  Te148  1  0.91643714  0.55186351  0.43925686  1
  Te  Te149  1  0.86751326  0.60239020  0.72646832  1
  Te  Te150  1  0.93243311  0.92367500  0.07884514  1
  Te  Te151  1  0.92087531  0.91315429  0.43560335  1
  Te  Te152  1  0.91917735  0.90855038  0.73859439  1
  Te  Te153  1  0.25254121  0.09192743  0.25847783  1
  Te  Te154  1  0.25118798  0.09589389  0.57910814  1
  Te  Te155  1  0.24823686  0.07852449  0.93891750  1
  Te  Te156  1  0.23934539  0.39496834  0.23454913  1
  Te  Te157  1  0.28523724  0.38419726  0.60435301  1
  Te  Te158  1  0.25113740  0.41931159  0.90881387  1
  Te  Te159  1  0.24168642  0.75277724  0.27651344  1
  Te  Te160  1  0.22784442  0.73310638  0.57040158  1
  Te  Te161  1  0.24730768  0.75207412  0.92920655  1
  Te  Te162  1  0.58944789  0.08020884  0.24193924  1
  Te  Te163  1  0.59176030  0.08155256  0.59505002  1
  Te  Te164  1  0.59445377  0.08213194  0.90889485  1
  Te  Te165  1  0.60263486  0.40867383  0.27007848  1
  Te  Te166  1  0.58136364  0.40574039  0.56776073  1
  Te  Te167  1  0.58359813  0.41906365  0.90012029  1
  Te  Te168  1  0.58614971  0.75474813  0.25225651  1
  Te  Te169  1  0.58162547  0.73014912  0.56703303  1
  Te  Te170  1  0.59723633  0.76827007  0.89735162  1
  Te  Te171  1  0.92976650  0.10016373  0.23901209  1
  Te  Te172  1  0.91470321  0.06841548  0.57814820  1
  Te  Te173  1  0.91780083  0.08537184  0.91439846  1
  Te  Te174  1  0.88550578  0.40487783  0.26467984  1
  Te  Te175  1  0.91849499  0.45526443  0.56341577  1
  Te  Te176  1  0.93958648  0.43032427  0.90968383  1
  Te  Te177  1  0.91423754  0.71776062  0.25480682  1
  Te  Te178  1  0.91598177  0.72223812  0.54752577  1
  Te  Te179  1  0.89187401  0.73580956  0.89585277  1
