# generated using pymatgen
data_In2Te3
_symmetry_space_group_name_H-M   'P 1'
_cell_length_a   18.99216299
_cell_length_b   18.98933686
_cell_length_c   18.98327668
_cell_angle_alpha   90.17235000
_cell_angle_beta   89.90276558
_cell_angle_gamma   90.08926076
_symmetry_Int_Tables_number   1
_chemical_formula_structural   In2Te3
_chemical_formula_sum   'In72 Te108'
_cell_volume   6846.24270104
_cell_formula_units_Z   36
loop_
 _symmetry_equiv_pos_site_id
 _symmetry_equiv_pos_as_xyz
  1  'x, y, z'
loop_
 _atom_site_type_symbol
 _atom_site_label
 _atom_site_symmetry_multiplicity
 _atom_site_fract_x
 _atom_site_fract_y
 _atom_site_fract_z
 _atom_site_occupancy
  In  In0  1  0.67365990  0.33696785  0.36776550  1
  In  In1  1  0.50026067  0.50284422  -0.02280465  1
  In  In2  1  0.83230085  0.84426794  0.68638041  1
  In  In3  1  0.65827850  0.16193306  0.83554602  1
  In  In4  1  0.66054520  0.02097207  0.66280445  1
  In  In5  1  -0.00523679  0.32424741  0.65357685  1
  In  In6  1  0.68783794  0.83928850  0.15077050  1
  In  In7  1  0.49574501  0.83800219  0.64880752  1
  In  In8  1  0.02316886  0.50009058  0.17798653  1
  In  In9  1  0.35200526  0.34098638  0.31318391  1
  In  In10  1  0.17866047  0.49391766  0.36020720  1
  In  In11  1  0.82664530  0.35977589  0.83921062  1
  In  In12  1  0.15735086  0.33212709  0.85388722  1
  In  In13  1  -0.01651234  0.54119627  0.49909002  1
  In  In14  1  0.16474918  0.81269615  -0.00726222  1
  In  In15  1  -0.01357878  0.15594843  0.50769779  1
  In  In16  1  -0.02210898  0.12740465  0.83007538  1
  In  In17  1  0.32341734  0.82258811  0.19081310  1
  In  In18  1  0.16950438  0.15417507  0.31329096  1
  In  In19  1  0.68202436  0.35793700  0.00619477  1
  In  In20  1  0.14920161  0.50692307  0.66269608  1
  In  In21  1  0.35207136  0.33316465  0.70690868  1
  In  In22  1  0.83181469  -0.00813006  0.49428789  1
  In  In23  1  0.12775076  -0.00770020  0.13735581  1
  In  In24  1  0.68952389  0.66256590  0.33160404  1
  In  In25  1  0.80899089  0.17599363  0.65517995  1
  In  In26  1  0.32544520  0.81611606  0.50998901  1
  In  In27  1  0.03493612  0.79916519  0.46528738  1
  In  In28  1  0.15922376  0.51079841  -0.00852460  1
  In  In29  1  0.66788196  0.51976157  0.80796812  1
  In  In30  1  0.51230569  0.48226413  0.34886168  1
  In  In31  1  0.66613278  0.49989242  0.51218233  1
  In  In32  1  -0.00383358  0.80773645  0.20088441  1
  In  In33  1  0.49370355  0.33488130  0.50224599  1
  In  In34  1  0.49358069  0.30756154  0.16211238  1
  In  In35  1  0.51848127  0.83618905  0.33051472  1
  In  In36  1  0.30373962  0.17888364  0.86834940  1
  In  In37  1  0.85605239  -0.00659464  0.15596182  1
  In  In38  1  0.67942618  0.86422821  0.88194297  1
  In  In39  1  -0.00050701  0.67784030  -0.01682488  1
  In  In40  1  -0.00492143  0.32438047  0.00662362  1
  In  In41  1  0.31985105  0.50642907  0.15423696  1
  In  In42  1  -0.02336278  0.55658003  0.78398172  1
  In  In43  1  0.35013485  -0.01076502  0.32964954  1
  In  In44  1  0.47997384  0.15319321  -0.01930950  1
  In  In45  1  0.17647404  0.34019216  0.50841553  1
  In  In46  1  0.50337935  0.65184421  0.14115858  1
  In  In47  1  0.17379458  -0.02031315  0.50400343  1
  In  In48  1  0.67303621  -0.00176792  0.32218784  1
  In  In49  1  0.65744786  0.69391890  0.67444398  1
  In  In50  1  0.83764309  0.35179882  0.49881165  1
  In  In51  1  0.48251577  -0.00637291  0.83538181  1
  In  In52  1  0.50513756  0.18149341  0.66714531  1
  In  In53  1  0.81475002  0.67917307  0.49555071  1
  In  In54  1  0.32407236  0.28581274  0.03488612  1
  In  In55  1  0.31799932  0.66665833  0.66814311  1
  In  In56  1  0.69565034  0.51021475  0.19773455  1
  In  In57  1  0.85591365  0.15772016  0.01424014  1
  In  In58  1  0.33701878  -0.01151541  0.67927153  1
  In  In59  1  0.35544727  0.49819961  0.84215204  1
  In  In60  1  0.02148620  0.79866219  0.79690652  1
  In  In61  1  0.67954916  0.68476901  -0.00111235  1
  In  In62  1  0.67077786  0.17838739  0.18246332  1
  In  In63  1  0.32990830  0.63979377  0.35915046  1
  In  In64  1  0.02176379  0.32839479  0.30992829  1
  In  In65  1  -0.01121565  -0.01628909  0.32621950  1
  In  In66  1  0.32511139  0.13856864  0.48257878  1
  In  In67  1  0.49876531  0.83488042  0.01884724  1
  In  In68  1  0.83162357  0.14334019  0.32655570  1
  In  In69  1  0.31888484  0.83080378  0.84003018  1
  In  In70  1  0.15207504  0.00943464  0.85176140  1
  In  In71  1  0.83437208  0.51184921  0.00512754  1
  Te  Te72  1  0.10545471  0.10034433  0.03840485  1
  Te  Te73  1  0.08124029  0.07680964  0.41707400  1
  Te  Te74  1  0.08436335  0.08079516  0.74251379  1
  Te  Te75  1  0.09707449  0.40748059  0.08317331  1
  Te  Te76  1  0.06712978  0.41872635  0.43913807  1
  Te  Te77  1  0.07107671  0.41167689  0.75475608  1
  Te  Te78  1  0.08366379  0.73576625  0.09607803  1
  Te  Te79  1  0.10904106  0.70781425  0.37729727  1
  Te  Te80  1  0.10413305  0.72212045  0.69978225  1
  Te  Te81  1  0.39443788  0.13242536  0.09640072  1
  Te  Te82  1  0.43096402  0.09479065  0.39299090  1
  Te  Te83  1  0.40421739  0.10095392  0.76393642  1
  Te  Te84  1  0.42331029  0.41684480  0.08286567  1
  Te  Te85  1  0.39607274  0.42698637  0.42853855  1
  Te  Te86  1  0.44399079  0.44314442  0.73748213  1
  Te  Te87  1  0.39737188  0.74081170  0.08364276  1
  Te  Te88  1  0.42060089  0.75016007  0.41136323  1
  Te  Te89  1  0.41360104  0.75693203  0.74614805  1
  Te  Te90  1  0.74972551  0.08339958  0.09454808  1
  Te  Te91  1  0.73937748  0.09295923  0.43162934  1
  Te  Te92  1  0.75992470  0.07805475  0.76214797  1
  Te  Te93  1  0.77723775  0.41650255  0.10814017  1
  Te  Te94  1  0.76510948  0.44956772  0.40701499  1
  Te  Te95  1  0.75598761  0.42807146  0.73329942  1
  Te  Te96  1  0.78104071  0.76695453  0.06341149  1
  Te  Te97  1  0.72293518  0.77109329  0.42520856  1
  Te  Te98  1  0.73981599  0.76939423  0.77979594  1
  Te  Te99  1  0.10444017  0.24675413  0.21726768  1
  Te  Te100  1  0.09304899  0.23494654  0.58170916  1
  Te  Te101  1  0.06439636  0.22762932  0.91162493  1
  Te  Te102  1  0.09725862  0.58819356  0.27730807  1
  Te  Te103  1  0.07994660  0.61614523  0.58686470  1
  Te  Te104  1  0.08298490  0.59166303  0.89006683  1
  Te  Te105  1  0.09800037  0.90597547  0.25967656  1
  Te  Te106  1  0.06869518  0.90015243  0.56621061  1
  Te  Te107  1  0.07176422  0.89751806  0.91180721  1
  Te  Te108  1  0.38532531  0.22390811  0.22474205  1
  Te  Te109  1  0.39021338  0.24558812  0.57992529  1
  Te  Te110  1  0.41535511  0.27092369  0.91368617  1
  Te  Te111  1  0.42935520  0.57285874  0.24949693  1
  Te  Te112  1  0.37534588  0.59916647  0.55145647  1
  Te  Te113  1  0.41163827  0.60522060  0.92602863  1
  Te  Te114  1  0.43822373  0.91452607  0.22934533  1
  Te  Te115  1  0.41409413  0.93180027  0.56270501  1
  Te  Te116  1  0.40034957  0.91861505  0.93535050  1
  Te  Te117  1  0.76163048  0.26432451  0.26675107  1
  Te  Te118  1  0.73857070  0.26431278  0.56293153  1
  Te  Te119  1  0.76182204  0.25112579  0.92385080  1
  Te  Te120  1  0.78496590  0.62765110  0.22109989  1
  Te  Te121  1  0.75289311  0.58793872  0.60171576  1
  Te  Te122  1  0.75946387  0.59421347  0.90530209  1
  Te  Te123  1  0.77538551  0.91034791  0.25354267  1
  Te  Te124  1  0.74086555  0.91572952  0.58839769  1
  Te  Te125  1  0.78699075  0.93913155  0.94116250  1
  Te  Te126  1  0.20077380  0.21666074  0.07628115  1
  Te  Te127  1  0.24646434  0.25327240  0.40430800  1
  Te  Te128  1  0.23396545  0.24799632  0.75341294  1
  Te  Te129  1  0.22965923  0.59774362  0.08704872  1
  Te  Te130  1  0.24907743  0.57620590  0.46944119  1
  Te  Te131  1  0.24780961  0.56869833  0.76015916  1
  Te  Te132  1  0.24093165  0.90224682  0.08890227  1
  Te  Te133  1  0.25343894  0.89888631  0.40546947  1
  Te  Te134  1  0.22945487  0.91629899  0.75375873  1
  Te  Te135  1  0.59122975  0.24766361  0.06120130  1
  Te  Te136  1  0.55780373  0.25471739  0.39700114  1
  Te  Te137  1  0.59213394  0.26064259  0.75271919  1
  Te  Te138  1  0.61028205  0.56452439  0.07455891  1
  Te  Te139  1  0.58529868  0.59062112  0.42097524  1
  Te  Te140  1  0.56556948  0.59970202  0.74084529  1
  Te  Te141  1  0.59233390  0.92644389  0.08316062  1
  Te  Te142  1  0.60563604  0.91116665  0.42108972  1
  Te  Te143  1  0.58281341  0.91948239  0.75117057  1
  Te  Te144  1  0.91819261  0.25157866  0.10729906  1
  Te  Te145  1  0.91840288  0.24897063  0.41104206  1
  Te  Te146  1  0.90842302  0.25128435  0.75487216  1
  Te  Te147  1  0.93567314  0.58722347  0.08736447  1
  Te  Te148  1  0.91087450  0.61923791  0.39505835  1
  Te  Te149  1  0.88850087  0.63068369  0.69396749  1
  Te  Te150  1  0.96060424  0.90786515  0.09703691  1
  Te  Te151  1  0.91828013  0.89101711  0.42056245  1
  Te  Te152  1  0.94184042  0.91492442  0.75363382  1
  Te  Te153  1  0.24007208  0.04578510  0.24027849  1
  Te  Te154  1  0.24499639  0.07710856  0.59534015  1
  Te  Te155  1  0.24865149  0.06900025  0.94929331  1
  Te  Te156  1  0.23969331  0.41388480  0.24409346  1
  Te  Te157  1  0.25612820  0.41155976  0.61324296  1
  Te  Te158  1  0.25987886  0.40893730  0.93341430  1
  Te  Te159  1  0.24438877  0.72838347  0.27558308  1
  Te  Te160  1  0.22574327  0.77266990  0.61182854  1
  Te  Te161  1  0.24198714  0.72458349  0.90404877  1
  Te  Te162  1  0.58093583  0.08838219  0.25258164  1
  Te  Te163  1  0.56805183  0.08933701  0.57437077  1
  Te  Te164  1  0.58667356  0.06263365  0.92392664  1
  Te  Te165  1  0.58663543  0.40912807  0.23796754  1
  Te  Te166  1  0.57001036  0.42282204  0.59134093  1
  Te  Te167  1  0.59517732  0.41569792  0.89894333  1
  Te  Te168  1  0.59057414  0.73703537  0.23035086  1
  Te  Te169  1  0.57037581  0.74311295  0.56742865  1
  Te  Te170  1  0.57586345  0.75608144  0.91548482  1
  Te  Te171  1  0.94251908  0.09434031  0.23619922  1
  Te  Te172  1  0.90639421  0.07107933  0.60139360  1
  Te  Te173  1  0.90402972  0.04236155  0.92997435  1
  Te  Te174  1  0.92885856  0.43089091  0.26692457  1
  Te  Te175  1  0.91733874  0.43863638  0.59331905  1
  Te  Te176  1  0.93264174  0.43324992  0.91883257  1
  Te  Te177  1  0.90140721  0.72285500  0.27627405  1
  Te  Te178  1  0.90816393  0.74848573  0.59410418  1
  Te  Te179  1  0.91572238  0.74421470  0.88427467  1
