# generated using pymatgen
data_In2Te3
_symmetry_space_group_name_H-M   'P 1'
_cell_length_a   19.06805894
_cell_length_b   19.06343015
_cell_length_c   19.05085765
_cell_angle_alpha   90.24693126
_cell_angle_beta   89.88324552
_cell_angle_gamma   89.95318973
_symmetry_Int_Tables_number   1
_chemical_formula_structural   In2Te3
_chemical_formula_sum   'In72 Te108'
_cell_volume   6924.95542140
_cell_formula_units_Z   36
loop_
 _symmetry_equiv_pos_site_id
 _symmetry_equiv_pos_as_xyz
  1  'x, y, z'
loop_
 _atom_site_type_symbol
 _atom_site_label
 _atom_site_symmetry_multiplicity
 _atom_site_fract_x
 _atom_site_fract_y
 _atom_site_fract_z
 _atom_site_occupancy
  In  In0  1  0.16990492  0.33332458  0.48458519  1
  In  In1  1  0.03777040  0.86989926  0.82954870  1
  In  In2  1  0.84102002  0.33608551  0.84059050  1
  In  In3  1  0.01005251  0.32884476  0.65634813  1
  In  In4  1  -0.00062020  0.19099816  0.18787956  1
  In  In5  1  0.66678500  0.65546059  0.33755088  1
  In  In6  1  0.46728826  0.01454612  0.16134555  1
  In  In7  1  0.50885726  0.35879275  0.17428073  1
  In  In8  1  0.65941503  0.82113857  0.16957231  1
  In  In9  1  0.49844453  0.67481172  0.80466917  1
  In  In10  1  0.51447267  0.83200356  0.33779657  1
  In  In11  1  0.33007873  0.51188249  0.49611694  1
  In  In12  1  0.15933071  0.50691970  0.64785180  1
  In  In13  1  0.83300503  0.18423984  0.34009856  1
  In  In14  1  0.83486789  0.66441768  0.15711414  1
  In  In15  1  0.67816599  0.00948198  0.31892771  1
  In  In16  1  0.30603353  0.47639672  0.15657701  1
  In  In17  1  0.84327111  0.66186339  0.83233465  1
  In  In18  1  0.84538552  0.02579259  0.17676459  1
  In  In19  1  0.18116088  0.29431436  0.83753454  1
  In  In20  1  0.30462747  0.82120055  0.17509715  1
  In  In21  1  0.49849551  0.34920716  0.84573841  1
  In  In22  1  0.00181269  0.84172528  0.18791957  1
  In  In23  1  0.32511211  0.30548358  -0.01197679  1
  In  In24  1  0.83300350  0.50013970  0.32804916  1
  In  In25  1  0.67719981  0.50840439  0.48052683  1
  In  In26  1  0.68201555  -0.00554383  0.02113909  1
  In  In27  1  0.85095671  0.14619072  0.66317427  1
  In  In28  1  0.49534670  0.14720946  0.68656401  1
  In  In29  1  0.16443049  0.82784971  0.65127299  1
  In  In30  1  0.48199673  0.83517909  -0.02303245  1
  In  In31  1  0.52245254  0.48491354  -0.01922065  1
  In  In32  1  0.17186346  0.15806843  0.01720792  1
  In  In33  1  0.64665123  0.83282487  0.82810636  1
  In  In34  1  0.83094192  0.67538867  0.48442536  1
  In  In35  1  0.65979882  0.65591215  0.66632656  1
  In  In36  1  0.15744441  0.13804370  0.35691356  1
  In  In37  1  0.00730830  0.35591569  0.34176800  1
  In  In38  1  0.50052671  0.18008273  0.01850087  1
  In  In39  1  0.15096716  0.49709270  0.02536920  1
  In  In40  1  0.29998920  0.83046327  0.48437299  1
  In  In41  1  0.70018786  0.35797914  0.67370153  1
  In  In42  1  0.00300097  0.69667286  0.00815616  1
  In  In43  1  0.82649466  0.33268555  0.16618857  1
  In  In44  1  0.84418811  0.49872068  -0.00128661  1
  In  In45  1  0.50027260  0.18773471  0.31401226  1
  In  In46  1  0.83941711  0.84416459  0.01327191  1
  In  In47  1  0.94369494  0.03350913  0.87857554  1
  In  In48  1  0.08648550  0.01577783  0.68153514  1
  In  In49  1  0.49040711  0.81767766  0.64724050  1
  In  In50  1  0.49827459  -0.00049772  0.84390415  1
  In  In51  1  0.31611962  -0.00365226  0.35759439  1
  In  In52  1  0.69014284  0.00376650  0.64856466  1
  In  In53  1  0.85084066  0.34376485  0.52133419  1
  In  In54  1  0.16296033  -0.01555545  0.19122487  1
  In  In55  1  0.30571427  0.65305971  0.32963616  1
  In  In56  1  0.31440109  0.68226570  -0.02757739  1
  In  In57  1  0.15893529  0.67458772  0.82196579  1
  In  In58  1  0.30997934  0.12822773  0.52391110  1
  In  In59  1  -0.00464821  0.80196083  0.48239463  1
  In  In60  1  0.51301507  0.64851483  0.48373544  1
  In  In61  1  0.66098020  0.18287662  0.82102344  1
  In  In62  1  0.50723006  -0.00149114  0.50727138  1
  In  In63  1  0.85182281  -0.01699631  0.49420893  1
  In  In64  1  0.30729259  0.12381085  0.84281858  1
  In  In65  1  0.01254941  0.63840841  0.30696828  1
  In  In66  1  0.49591081  0.30422261  0.49779198  1
  In  In67  1  0.32673248  0.33908374  0.32029381  1
  In  In68  1  0.49074528  0.48302253  0.66099565  1
  In  In69  1  0.47459371  0.61958919  0.14273404  1
  In  In70  1  0.32234828  0.50342624  0.82532902  1
  In  In71  1  -0.00206023  0.49270713  0.82372350  1
  Te  Te72  1  0.08087588  0.08677098  0.11491465  1
  Te  Te73  1  0.08293536  0.11032951  0.47981099  1
  Te  Te74  1  0.09381041  0.15849181  0.72744950  1
  Te  Te75  1  0.08946866  0.42927777  0.13804019  1
  Te  Te76  1  0.07554241  0.43663185  0.44358118  1
  Te  Te77  1  0.10567752  0.40518417  0.75516993  1
  Te  Te78  1  0.09095422  0.76016838  0.10394748  1
  Te  Te79  1  0.09030463  0.71964575  0.40290946  1
  Te  Te80  1  0.06336612  0.75419311  0.73850846  1
  Te  Te81  1  0.39514828  0.08902863  0.06073960  1
  Te  Te82  1  0.43118153  0.08344936  0.40879668  1
  Te  Te83  1  0.39742707  0.04959391  0.74088636  1
  Te  Te84  1  0.40793509  0.41555450  0.05491506  1
  Te  Te85  1  0.41271974  0.40700835  0.42328018  1
  Te  Te86  1  0.39550382  0.39984332  0.74376078  1
  Te  Te87  1  0.41280165  0.74941165  0.08195972  1
  Te  Te88  1  0.41732270  0.74057931  0.41043579  1
  Te  Te89  1  0.40448629  0.77353454  0.75611271  1
  Te  Te90  1  0.76070642  0.09806543  0.08397957  1
  Te  Te91  1  0.75711675  0.08199635  0.42303121  1
  Te  Te92  1  0.75464050  0.07944396  0.76195541  1
  Te  Te93  1  0.75076173  0.42919308  0.08695546  1
  Te  Te94  1  0.75958220  0.40111891  0.41387275  1
  Te  Te95  1  0.78289059  0.44181263  0.75709285  1
  Te  Te96  1  0.74164151  0.74363358  0.06866859  1
  Te  Te97  1  0.74456488  0.75861268  0.40052989  1
  Te  Te98  1  0.74449188  0.74793230  0.75085343  1
  Te  Te99  1  0.10282571  0.25428290  0.27801122  1
  Te  Te100  1  0.09911062  0.23432638  0.57670837  1
  Te  Te101  1  0.08389633  0.25426000  0.94048412  1
  Te  Te102  1  0.10726404  0.54274784  0.23892356  1
  Te  Te103  1  0.03785449  0.57929798  0.61668502  1
  Te  Te104  1  0.07936558  0.58766787  0.91850156  1
  Te  Te105  1  0.06987893  0.92563449  0.29119385  1
  Te  Te106  1  0.06136620  0.90400695  0.57422069  1
  Te  Te107  1  0.06108333  0.96409313  0.94102693  1
  Te  Te108  1  0.40400604  0.25669014  0.22125468  1
  Te  Te109  1  0.40641551  0.22493191  0.59169469  1
  Te  Te110  1  0.41488201  0.22906753  0.88746810  1
  Te  Te111  1  0.39418657  0.55642761  0.25191668  1
  Te  Te112  1  0.42043150  0.59484161  0.58982561  1
  Te  Te113  1  0.41636805  0.58666868  0.90915616  1
  Te  Te114  1  0.41131516  0.91109505  0.26065563  1
  Te  Te115  1  0.40213084  0.91069536  0.56792178  1
  Te  Te116  1  0.39148103  0.92675077  0.91123813  1
  Te  Te117  1  0.74099317  0.24826130  0.24926366  1
  Te  Te118  1  0.75913415  0.24668194  0.59200051  1
  Te  Te119  1  0.74405938  0.25514579  0.91578864  1
  Te  Te120  1  0.74164708  0.57435397  0.23467337  1
  Te  Te121  1  0.75935558  0.57797294  0.58318390  1
  Te  Te122  1  0.75732919  0.58132256  0.91440051  1
  Te  Te123  1  0.75845698  0.91134884  0.23619943  1
  Te  Te124  1  0.77447218  0.90010317  0.58959990  1
  Te  Te125  1  0.74689221  0.91143795  0.91297634  1
  Te  Te126  1  0.23568919  0.26625996  0.09413632  1
  Te  Te127  1  0.27332496  0.23293408  0.41988659  1
  Te  Te128  1  0.24149597  0.20593109  0.73506683  1
  Te  Te129  1  0.25052899  0.59710607  0.08019862  1
  Te  Te130  1  0.22438846  0.59570847  0.43859362  1
  Te  Te131  1  0.25122652  0.59543788  0.73140162  1
  Te  Te132  1  0.24217545  0.91689154  0.08765578  1
  Te  Te133  1  0.20748727  0.91484145  0.40887061  1
  Te  Te134  1  0.21121536  0.94699407  0.72758139  1
  Te  Te135  1  0.58820617  0.27093860  0.08735229  1
  Te  Te136  1  0.59431122  0.24920379  0.40626001  1
  Te  Te137  1  0.57905575  0.27201242  0.73017883  1
  Te  Te138  1  0.59285410  0.56693852  0.07885205  1
  Te  Te139  1  0.56260093  0.54457560  0.38043114  1
  Te  Te140  1  0.58265440  0.55868928  0.75384027  1
  Te  Te141  1  0.56821079  0.91423693  0.08502086  1
  Te  Te142  1  0.60307097  0.92032934  0.42014888  1
  Te  Te143  1  0.57884767  0.92373284  0.72883665  1
  Te  Te144  1  0.91428271  0.24583573  0.07936679  1
  Te  Te145  1  0.93194353  0.25784914  0.42797840  1
  Te  Te146  1  0.92502074  0.24548939  0.74976029  1
  Te  Te147  1  0.93886442  0.58466502  0.08465946  1
  Te  Te148  1  0.92413247  0.57758202  0.41717765  1
  Te  Te149  1  0.93720869  0.59572254  0.73512289  1
  Te  Te150  1  0.93020176  0.93383867  0.09023360  1
  Te  Te151  1  0.93634542  0.90964709  0.39732680  1
  Te  Te152  1  0.95021271  0.96043374  0.74801444  1
  Te  Te153  1  0.25791051  0.08705576  0.25384424  1
  Te  Te154  1  0.21595213  0.03997058  0.59480253  1
  Te  Te155  1  0.18940225  0.06106696  0.90410973  1
  Te  Te156  1  0.22262537  0.43620736  0.27518903  1
  Te  Te157  1  0.25733607  0.40995856  0.58236744  1
  Te  Te158  1  0.23996987  0.42179645  0.92087856  1
  Te  Te159  1  0.21636491  0.74955892  0.26569494  1
  Te  Te160  1  0.24556014  0.73163921  0.57500902  1
  Te  Te161  1  0.22094496  0.77437498  0.91039393  1
  Te  Te162  1  0.58068888  0.08457644  0.23152319  1
  Te  Te163  1  0.59341807  0.09768030  0.58163212  1
  Te  Te164  1  0.59213973  0.08446548  0.92514158  1
  Te  Te165  1  0.57791515  0.42628054  0.27920177  1
  Te  Te166  1  0.59020008  0.41631900  0.56801406  1
  Te  Te167  1  0.61787988  0.39411505  0.91553580  1
  Te  Te168  1  0.56260885  0.72646726  0.23863431  1
  Te  Te169  1  0.59521175  0.74708808  0.56415013  1
  Te  Te170  1  0.57854285  0.73457746  0.91917837  1
  Te  Te171  1  0.93453785  0.08961831  0.28003075  1
  Te  Te172  1  0.93477853  0.09331065  0.55288452  1
  Te  Te173  1  0.95576064  0.15823603  0.95488342  1
  Te  Te174  1  0.92576451  0.42510698  0.23597619  1
  Te  Te175  1  0.94425452  0.44046437  0.58468981  1
  Te  Te176  1  0.94361233  0.40476000  0.93149233  1
  Te  Te177  1  0.91187322  0.74238196  0.25843270  1
  Te  Te178  1  0.89101144  0.76732558  0.58242036  1
  Te  Te179  1  0.92579255  0.77749503  0.90583429  1
