# generated using pymatgen
data_In2Te3
_symmetry_space_group_name_H-M   'P 1'
_cell_length_a   18.75327328
_cell_length_b   18.76558346
_cell_length_c   18.76153646
_cell_angle_alpha   89.98578197
_cell_angle_beta   90.06183783
_cell_angle_gamma   89.96226651
_symmetry_Int_Tables_number   1
_chemical_formula_structural   In2Te3
_chemical_formula_sum   'In72 Te108'
_cell_volume   6602.48153725
_cell_formula_units_Z   36
loop_
 _symmetry_equiv_pos_site_id
 _symmetry_equiv_pos_as_xyz
  1  'x, y, z'
loop_
 _atom_site_type_symbol
 _atom_site_label
 _atom_site_symmetry_multiplicity
 _atom_site_fract_x
 _atom_site_fract_y
 _atom_site_fract_z
 _atom_site_occupancy
  In  In0  1  0.65551185  -0.01537792  0.32878688  1
  In  In1  1  0.50157579  -0.00284808  0.48874415  1
  In  In2  1  0.85216797  -0.03664635  0.80727350  1
  In  In3  1  -0.01798047  0.65534783  0.34131404  1
  In  In4  1  0.31699684  0.14772563  0.82091568  1
  In  In5  1  0.33163513  0.33372481  0.01016976  1
  In  In6  1  0.33805572  0.65680492  -0.00160234  1
  In  In7  1  0.83367835  0.49513616  0.65837162  1
  In  In8  1  0.16017025  0.66766617  0.82103517  1
  In  In9  1  0.32418325  0.67343889  0.34374166  1
  In  In10  1  0.49945313  0.51364106  0.32890060  1
  In  In11  1  0.51806382  0.67168936  0.51472383  1
  In  In12  1  0.51683941  0.33628727  0.82363953  1
  In  In13  1  -0.00998340  0.33809245  0.67278265  1
  In  In14  1  0.35052767  0.00338610  0.33787022  1
  In  In15  1  0.84272960  0.17271992  0.34103096  1
  In  In16  1  0.18812009  0.18584399  -0.00014895  1
  In  In17  1  -0.00604664  -0.01701127  0.00035762  1
  In  In18  1  0.84015001  0.01195207  0.54012886  1
  In  In19  1  0.68757930  0.35071689  0.38625653  1
  In  In20  1  0.34738652  0.50304914  0.51373381  1
  In  In21  1  0.85782352  0.34400167  0.79962929  1
  In  In22  1  0.51979536  0.50887368  0.65725043  1
  In  In23  1  0.00521934  0.51134198  0.83858892  1
  In  In24  1  0.00610807  0.66703620  0.65800911  1
  In  In25  1  0.48068985  0.14911684  0.00709439  1
  In  In26  1  0.51000454  0.82880361  -0.01882678  1
  In  In27  1  0.49082640  0.49662859  -0.02935449  1
  In  In28  1  0.82579911  0.82916113  -0.00603550  1
  In  In29  1  0.18049663  0.65048880  0.52426960  1
  In  In30  1  -0.01839410  0.18344906  0.80389991  1
  In  In31  1  0.17690931  0.82685144  -0.00876786  1
  In  In32  1  0.82356045  0.66973797  0.16242913  1
  In  In33  1  0.01200555  0.50262024  0.16722804  1
  In  In34  1  0.68274772  0.68921448  0.68643035  1
  In  In35  1  0.82282154  0.82479832  0.33160113  1
  In  In36  1  0.33741559  0.81819655  0.51105369  1
  In  In37  1  0.84594579  0.66729530  0.50748135  1
  In  In38  1  0.67713684  0.18078738  0.51359394  1
  In  In39  1  0.66575861  0.17875999  0.80208984  1
  In  In40  1  0.66145304  0.13668987  0.17036042  1
  In  In41  1  -0.00286004  0.83507282  0.52409820  1
  In  In42  1  0.01113881  0.37028084  -0.00281852  1
  In  In43  1  0.82511204  0.17231199  -0.00357582  1
  In  In44  1  0.49118252  0.32679195  0.17704824  1
  In  In45  1  0.65996600  0.52587846  0.17234043  1
  In  In46  1  0.49765529  0.66867693  0.18051038  1
  In  In47  1  0.01569802  0.00191134  0.33581020  1
  In  In48  1  0.14156872  0.00742144  0.50637420  1
  In  In49  1  -0.01054468  0.32859117  0.36443619  1
  In  In50  1  0.17464724  -0.01284514  0.15654246  1
  In  In51  1  0.65058569  -0.02185083  0.67195521  1
  In  In52  1  0.17884170  0.32957859  0.81702837  1
  In  In53  1  0.15860774  0.00343584  0.82865692  1
  In  In54  1  0.82587566  0.33174662  0.16345494  1
  In  In55  1  0.32524583  0.51091985  0.82616669  1
  In  In56  1  0.33640701  0.00115354  0.66235583  1
  In  In57  1  -0.00810747  0.67739837  -0.02330098  1
  In  In58  1  0.49006359  -0.01895900  0.81876857  1
  In  In59  1  0.16617038  0.66730475  0.15639736  1
  In  In60  1  0.48709476  -0.00303274  0.16842291  1
  In  In61  1  0.31691503  0.34803963  0.31047086  1
  In  In62  1  0.17241974  0.15939609  0.68104886  1
  In  In63  1  0.16477983  0.82543982  0.32986042  1
  In  In64  1  0.65954908  0.66564655  0.33802497  1
  In  In65  1  0.17015091  0.34945710  0.50538254  1
  In  In66  1  0.68869033  0.66073888  -0.04567778  1
  In  In67  1  0.48950709  0.31267405  0.53196058  1
  In  In68  1  0.16661891  0.17550399  0.35611421  1
  In  In69  1  0.65496876  0.35721963  -0.00569429  1
  In  In70  1  0.67001941  -0.00533787  -0.00929338  1
  In  In71  1  0.00515051  0.16215596  0.19217571  1
  Te  Te72  1  0.07943195  0.09047190  0.07620065  1
  Te  Te73  1  0.05292587  0.11073737  0.43540611  1
  Te  Te74  1  0.05687738  0.06340553  0.73013080  1
  Te  Te75  1  0.11399915  0.40930664  0.10016534  1
  Te  Te76  1  0.08310044  0.43063319  0.41582936  1
  Te  Te77  1  0.09159887  0.43038835  0.74185042  1
  Te  Te78  1  0.07088064  0.75930598  0.07902919  1
  Te  Te79  1  0.08325705  0.74053902  0.42763344  1
  Te  Te80  1  0.07134111  0.76572962  0.74923815  1
  Te  Te81  1  0.38763624  0.08494688  0.09945904  1
  Te  Te82  1  0.40821261  0.09848793  0.43394615  1
  Te  Te83  1  0.43694604  0.09882435  0.73695932  1
  Te  Te84  1  0.41987754  0.43054796  0.08975321  1
  Te  Te85  1  0.42480786  0.41200253  0.41549979  1
  Te  Te86  1  0.42191237  0.42520868  0.74311600  1
  Te  Te87  1  0.41850678  0.75497900  0.08226544  1
  Te  Te88  1  0.43440779  0.75183589  0.41158248  1
  Te  Te89  1  0.35204128  0.78984541  0.72540556  1
  Te  Te90  1  0.76788271  0.06448342  0.08725599  1
  Te  Te91  1  0.75226264  0.07609636  0.42161118  1
  Te  Te92  1  0.75241328  0.06701678  0.74600523  1
  Te  Te93  1  0.75029690  0.43775996  0.08294033  1
  Te  Te94  1  0.79914258  0.42970081  0.44010026  1
  Te  Te95  1  0.74077001  0.40691559  0.73437283  1
  Te  Te96  1  0.72460634  0.74694487  0.07648612  1
  Te  Te97  1  0.73903871  0.75304332  0.43599179  1
  Te  Te98  1  0.77364258  0.75571601  0.78477057  1
  Te  Te99  1  0.08923036  0.26637770  0.25994620  1
  Te  Te100  1  0.08731675  0.25122992  0.59243966  1
  Te  Te101  1  0.07560508  0.25137120  0.90801670  1
  Te  Te102  1  0.09526412  0.58514851  0.26607755  1
  Te  Te103  1  0.06668419  0.56758320  0.56760458  1
  Te  Te104  1  0.10154803  0.57971170  0.93476780  1
  Te  Te105  1  0.07343420  0.90312771  0.23465385  1
  Te  Te106  1  0.10647193  0.89941752  0.60141132  1
  Te  Te107  1  0.07312969  0.89894640  0.90189938  1
  Te  Te108  1  0.40610759  0.24039993  0.25890207  1
  Te  Te109  1  0.40390677  0.23654320  0.62333822  1
  Te  Te110  1  0.41372827  0.25061980  0.90788945  1
  Te  Te111  1  0.39182512  0.57668780  0.24299457  1
  Te  Te112  1  0.41182711  0.60806431  0.60341756  1
  Te  Te113  1  0.42889926  0.60723279  0.88425757  1
  Te  Te114  1  0.41857986  0.90056538  0.25862003  1
  Te  Te115  1  0.43287066  0.90353115  0.59411198  1
  Te  Te116  1  0.41064590  0.92759856  0.92970099  1
  Te  Te117  1  0.73730303  0.24799154  0.25668014  1
  Te  Te118  1  0.77725501  0.26587580  0.58065753  1
  Te  Te119  1  0.75035782  0.26622489  0.90319418  1
  Te  Te120  1  0.76565016  0.57758415  0.26985113  1
  Te  Te121  1  0.73921853  0.58892907  0.58316460  1
  Te  Te122  1  0.78274569  0.55376672  0.92232059  1
  Te  Te123  1  0.74472400  0.90835498  0.23839972  1
  Te  Te124  1  0.74245646  0.90917061  0.57735622  1
  Te  Te125  1  0.73622034  0.90159870  0.88985680  1
  Te  Te126  1  0.26012710  0.25020755  0.11190930  1
  Te  Te127  1  0.26872032  0.25893918  0.42982563  1
  Te  Te128  1  0.28261453  0.26784237  0.72120770  1
  Te  Te129  1  0.24875572  0.57184049  0.07925974  1
  Te  Te130  1  0.24589107  0.56493318  0.41485726  1
  Te  Te131  1  0.23455994  0.57724029  0.72908769  1
  Te  Te132  1  0.26790167  0.90557382  0.07787899  1
  Te  Te133  1  0.24324760  0.91407705  0.42659737  1
  Te  Te134  1  0.26601485  0.91481898  0.76459015  1
  Te  Te135  1  0.59150652  0.24442727  0.07804838  1
  Te  Te136  1  0.57886839  0.24915437  0.41763361  1
  Te  Te137  1  0.58858590  0.26734169  0.71214520  1
  Te  Te138  1  0.57281440  0.59071373  0.06500763  1
  Te  Te139  1  0.59565505  0.56536666  0.43470535  1
  Te  Te140  1  0.58559585  0.59891990  0.75705378  1
  Te  Te141  1  0.58673417  0.91263801  0.08649734  1
  Te  Te142  1  0.58619243  0.89514009  0.42301160  1
  Te  Te143  1  0.57424333  0.87688826  0.75349769  1
  Te  Te144  1  0.92808335  0.25196569  0.07869156  1
  Te  Te145  1  0.89592580  0.25177432  0.45703929  1
  Te  Te146  1  0.87386275  0.22202055  0.69607993  1
  Te  Te147  1  0.91929609  0.58611276  0.07768171  1
  Te  Te148  1  0.90757442  0.55671133  0.42600454  1
  Te  Te149  1  0.91003091  0.59087863  0.75068929  1
  Te  Te150  1  0.90708806  0.90683778  0.09053793  1
  Te  Te151  1  0.91799721  0.91816481  0.42111536  1
  Te  Te152  1  0.93577448  0.88059709  0.71758814  1
  Te  Te153  1  0.23800757  0.07844306  0.26178960  1
  Te  Te154  1  0.25349798  0.09082202  0.56970530  1
  Te  Te155  1  0.25403945  0.06547800  0.93333299  1
  Te  Te156  1  0.22673597  0.40912576  0.21151622  1
  Te  Te157  1  0.25410130  0.42783202  0.60081426  1
  Te  Te158  1  0.24307720  0.42102910  0.92074012  1
  Te  Te159  1  0.26278512  0.76059575  0.23378938  1
  Te  Te160  1  0.24869285  0.75249102  0.61630681  1
  Te  Te161  1  0.26799073  0.74878668  0.89671945  1
  Te  Te162  1  0.55920065  0.09027040  0.26979619  1
  Te  Te163  1  0.58243918  0.08585398  0.58633089  1
  Te  Te164  1  0.58732340  0.09446092  0.90938046  1
  Te  Te165  1  0.59563178  0.41296559  0.25588577  1
  Te  Te166  1  0.59213342  0.41210041  0.57012837  1
  Te  Te167  1  0.60725816  0.44845608  0.88230716  1
  Te  Te168  1  0.58922823  0.76075521  0.25024421  1
  Te  Te169  1  0.58270609  0.76892141  0.60659218  1
  Te  Te170  1  0.58320193  0.74104519  0.88417438  1
  Te  Te171  1  0.90370596  0.06515257  0.24961814  1
  Te  Te172  1  0.94756727  0.07568848  0.61362931  1
  Te  Te173  1  0.90963698  0.08152120  0.90431365  1
  Te  Te174  1  0.91935097  0.41281644  0.25091569  1
  Te  Te175  1  0.91038872  0.40695696  0.56162565  1
  Te  Te176  1  0.89087974  0.43768993  0.92200360  1
  Te  Te177  1  0.92499940  0.75427230  0.24079213  1
  Te  Te178  1  0.88468788  0.77625636  0.61262052  1
  Te  Te179  1  0.89485848  0.74864803  0.88438844  1
