# generated using pymatgen
data_In2Te3
_symmetry_space_group_name_H-M   'P 1'
_cell_length_a   19.03122985
_cell_length_b   19.04556780
_cell_length_c   19.03991935
_cell_angle_alpha   89.82242776
_cell_angle_beta   89.73847482
_cell_angle_gamma   90.14216467
_symmetry_Int_Tables_number   1
_chemical_formula_structural   In2Te3
_chemical_formula_sum   'In72 Te108'
_cell_volume   6901.09365774
_cell_formula_units_Z   36
loop_
 _symmetry_equiv_pos_site_id
 _symmetry_equiv_pos_as_xyz
  1  'x, y, z'
loop_
 _atom_site_type_symbol
 _atom_site_label
 _atom_site_symmetry_multiplicity
 _atom_site_fract_x
 _atom_site_fract_y
 _atom_site_fract_z
 _atom_site_occupancy
  In  In0  1  0.17134931  0.15989140  0.34255859  1
  In  In1  1  0.44904622  0.85701275  0.34164222  1
  In  In2  1  0.01471184  0.33526351  0.34098752  1
  In  In3  1  0.16766333  0.31273933  0.49606913  1
  In  In4  1  0.85295078  0.64252046  0.17733754  1
  In  In5  1  0.16458438  0.32746090  0.17739728  1
  In  In6  1  0.34225398  0.35567064  0.67700378  1
  In  In7  1  0.17186176  0.52932071  0.67025079  1
  In  In8  1  0.64571674  0.83015253  0.83466472  1
  In  In9  1  0.02536980  0.83482293  0.83989143  1
  In  In10  1  0.84596057  0.81589320  -0.00188715  1
  In  In11  1  0.62682165  0.23735989  -0.01017889  1
  In  In12  1  0.54145775  0.68496780  0.64740775  1
  In  In13  1  0.82396144  0.67909667  0.49804804  1
  In  In14  1  0.14271612  0.01770757  0.13573741  1
  In  In15  1  0.00090813  0.83505430  0.49385098  1
  In  In16  1  0.19449137  0.85075849  0.64528319  1
  In  In17  1  0.33372857  0.17398326  0.16831457  1
  In  In18  1  0.53282510  0.49924504  0.33497444  1
  In  In19  1  0.01184788  0.81910141  0.15677125  1
  In  In20  1  0.46811173  0.07100194  0.29262856  1
  In  In21  1  0.01412676  0.49957363  0.83493761  1
  In  In22  1  0.34293670  0.52459850  0.49845616  1
  In  In23  1  -0.00873464  0.18510320  0.83109385  1
  In  In24  1  0.50561651  0.33003785  0.83718600  1
  In  In25  1  0.68508072  0.33449618  0.66301895  1
  In  In26  1  0.19164994  0.48744609  0.32771785  1
  In  In27  1  0.32615406  0.32824340  0.00366988  1
  In  In28  1  0.18782281  0.50808982  -0.00915208  1
  In  In29  1  0.79741691  0.01727564  0.85223684  1
  In  In30  1  0.50362675  0.33861845  0.50324521  1
  In  In31  1  0.67671871  0.67998590  0.33833544  1
  In  In32  1  0.28236694  0.01170322  0.45653720  1
  In  In33  1  0.35409679  0.66975506  0.32468163  1
  In  In34  1  0.32135575  0.67593169  0.00726743  1
  In  In35  1  0.49168075  0.68095795  0.84605564  1
  In  In36  1  0.67274425  0.16968357  0.51268872  1
  In  In37  1  0.83756366  0.51031654  -0.01916878  1
  In  In38  1  0.15850915  0.34551868  0.81823224  1
  In  In39  1  0.00129354  0.14566362  0.49256698  1
  In  In40  1  0.81949165  -0.00056893  0.49568048  1
  In  In41  1  -0.00037133  -0.00512910  0.31241723  1
  In  In42  1  0.18365962  0.65155959  0.17137297  1
  In  In43  1  0.49165368  -0.01279394  0.49034658  1
  In  In44  1  0.81664926  0.86472564  0.65893368  1
  In  In45  1  0.65074986  0.00033937  0.68910974  1
  In  In46  1  0.01996281  0.67692881  0.68361600  1
  In  In47  1  0.33801905  0.00929191  0.65444778  1
  In  In48  1  0.66792096  0.49472520  0.16997027  1
  In  In49  1  -0.01338191  0.00119582  0.69408741  1
  In  In50  1  0.49029469  0.66127347  0.14148881  1
  In  In51  1  0.85734898  0.31791344  0.15262396  1
  In  In52  1  0.66556424  0.49977967  0.52228088  1
  In  In53  1  0.67288194  0.82949241  0.14776093  1
  In  In54  1  0.48794995  0.19379148  0.67125015  1
  In  In55  1  0.31140934  0.16872440  0.82591440  1
  In  In56  1  0.66871479  0.31973786  0.31847037  1
  In  In57  1  0.48800172  0.85131390  0.01149245  1
  In  In58  1  0.86702131  0.47950207  0.43416212  1
  In  In59  1  0.82565765  0.68821557  0.82916255  1
  In  In60  1  0.84151858  0.33820811  0.83078971  1
  In  In61  1  0.85592874  0.15314535  0.00953999  1
  In  In62  1  0.32464113  0.00528637  0.01760255  1
  In  In63  1  0.16018328  -0.00082051  0.83673355  1
  In  In64  1  0.49277971  0.47612294  0.00064468  1
  In  In65  1  0.83884792  0.48094258  0.65793240  1
  In  In66  1  0.33769359  0.68287745  0.67068770  1
  In  In67  1  0.03079317  0.69349889  0.32583228  1
  In  In68  1  0.62889517  0.01255068  0.01143737  1
  In  In69  1  0.81819772  0.17041083  0.33001477  1
  In  In70  1  -0.00584502  0.47028514  0.16248147  1
  In  In71  1  0.83120928  -0.02177608  0.16927810  1
  Te  Te72  1  0.03523654  0.10422337  0.09055619  1
  Te  Te73  1  0.09254980  0.05164412  0.41713495  1
  Te  Te74  1  0.08914767  0.09520119  0.74633534  1
  Te  Te75  1  0.09832160  0.41335509  0.07037960  1
  Te  Te76  1  0.09241398  0.42951471  0.42665561  1
  Te  Te77  1  0.07386032  0.42300766  0.72054597  1
  Te  Te78  1  0.09378160  0.72373735  0.07615705  1
  Te  Te79  1  0.10772513  0.78168037  0.41095611  1
  Te  Te80  1  0.12257561  0.76273431  0.75086139  1
  Te  Te81  1  0.42567867  0.10211897  0.07407465  1
  Te  Te82  1  0.40343725  0.09531384  0.43334383  1
  Te  Te83  1  0.41857265  0.08880581  0.75541643  1
  Te  Te84  1  0.42216890  0.38897058  0.09413964  1
  Te  Te85  1  0.42290350  0.42783870  0.41274889  1
  Te  Te86  1  0.42971562  0.43012050  0.76492036  1
  Te  Te87  1  0.39403079  0.76991333  0.09975754  1
  Te  Te88  1  0.44565714  0.73146215  0.42434759  1
  Te  Te89  1  0.40826587  0.77010253  0.76604887  1
  Te  Te90  1  0.75088347  0.07131206  0.08179840  1
  Te  Te91  1  0.72728330  0.07614799  0.40449066  1
  Te  Te92  1  0.75370719  0.09189210  0.73676503  1
  Te  Te93  1  0.76848621  0.42067067  0.08453932  1
  Te  Te94  1  0.73561821  0.40650300  0.42716772  1
  Te  Te95  1  0.74273815  0.43111878  0.76394674  1
  Te  Te96  1  0.76402480  0.72363352  0.08545864  1
  Te  Te97  1  0.73681202  0.77405304  0.43191183  1
  Te  Te98  1  0.73344858  0.76106474  0.73305729  1
  Te  Te99  1  0.07351075  0.23128706  0.25151309  1
  Te  Te100  1  0.07046135  0.24172805  0.57736086  1
  Te  Te101  1  0.09012583  0.25587052  0.91047234  1
  Te  Te102  1  0.07540151  0.56335486  0.25043175  1
  Te  Te103  1  0.09448582  0.61237073  0.57766412  1
  Te  Te104  1  0.11464822  0.59380632  0.89206716  1
  Te  Te105  1  0.09819845  0.90820791  0.24089558  1
  Te  Te106  1  0.07067884  0.92309864  0.59565729  1
  Te  Te107  1  0.09593485  0.91504100  0.94108640  1
  Te  Te108  1  0.41524537  0.21110994  0.28476027  1
  Te  Te109  1  0.39537689  0.25803416  0.57187731  1
  Te  Te110  1  0.41109301  0.24002590  0.91367591  1
  Te  Te111  1  0.43150453  0.56778242  0.24484856  1
  Te  Te112  1  0.43507029  0.58401444  0.59818644  1
  Te  Te113  1  0.41051712  0.58312076  0.92953987  1
  Te  Te114  1  0.38424211  0.95473068  0.24875324  1
  Te  Te115  1  0.41344649  0.89934627  0.58374579  1
  Te  Te116  1  0.41950824  0.94399283  0.92381703  1
  Te  Te117  1  0.74393514  0.23803224  0.21527772  1
  Te  Te118  1  0.77057428  0.25639304  0.57541620  1
  Te  Te119  1  0.76979832  0.24835444  0.93060230  1
  Te  Te120  1  0.75432002  0.57052097  0.26818044  1
  Te  Te121  1  0.75235145  0.59304179  0.60063331  1
  Te  Te122  1  0.74522635  0.59777154  0.91074190  1
  Te  Te123  1  0.74368719  0.89826474  0.25412776  1
  Te  Te124  1  0.71051946  0.92355690  0.57131083  1
  Te  Te125  1  0.73718640  0.90581775  0.93650538  1
  Te  Te126  1  0.23017648  0.23657693  0.07587402  1
  Te  Te127  1  0.25933381  0.26634237  0.39186751  1
  Te  Te128  1  0.23985742  0.25547519  0.72682688  1
  Te  Te129  1  0.27793216  0.55977292  0.09886551  1
  Te  Te130  1  0.24715947  0.59986487  0.41023278  1
  Te  Te131  1  0.26755934  0.58847630  0.76018144  1
  Te  Te132  1  0.21770327  0.91284227  0.06187415  1
  Te  Te133  1  0.30346110  0.89032230  0.37756904  1
  Te  Te134  1  0.26373739  0.92368942  0.75849545  1
  Te  Te135  1  0.54794062  0.19218742  0.11492473  1
  Te  Te136  1  0.58123816  0.24367641  0.41643124  1
  Te  Te137  1  0.60148031  0.24558514  0.75392581  1
  Te  Te138  1  0.58921259  0.57355908  0.06948202  1
  Te  Te139  1  0.59065311  0.59565188  0.43401636  1
  Te  Te140  1  0.58226582  0.60373744  0.75975705  1
  Te  Te141  1  0.56210180  0.92912740  0.11825541  1
  Te  Te142  1  0.56912256  0.93455542  0.37793828  1
  Te  Te143  1  0.55587314  0.92181350  0.76692071  1
  Te  Te144  1  0.95927843  0.23951290  0.07656719  1
  Te  Te145  1  0.91586975  0.24513179  0.41602529  1
  Te  Te146  1  0.91701863  0.26303070  0.73286389  1
  Te  Te147  1  0.93946019  0.57811253  0.07192344  1
  Te  Te148  1  0.93236111  0.61337248  0.41739483  1
  Te  Te149  1  0.91683277  0.58249925  0.75166368  1
  Te  Te150  1  0.93013351  0.91499110  0.07350389  1
  Te  Te151  1  0.90847817  0.91635386  0.40639501  1
  Te  Te152  1  0.90090203  0.90564801  0.77804497  1
  Te  Te153  1  0.23889021  0.07571638  0.23751508  1
  Te  Te154  1  0.23805654  0.08010645  0.57602019  1
  Te  Te155  1  0.23272145  0.09343803  0.92943731  1
  Te  Te156  1  0.27173341  0.39476570  0.25020249  1
  Te  Te157  1  0.25387511  0.42778956  0.57495817  1
  Te  Te158  1  0.26536579  0.41755244  0.89817679  1
  Te  Te159  1  0.25914036  0.75007160  0.24631150  1
  Te  Te160  1  0.25589973  0.74551052  0.56651636  1
  Te  Te161  1  0.19220833  0.71779407  0.95174239  1
  Te  Te162  1  0.59573665  0.12136048  0.23631054  1
  Te  Te163  1  0.56447078  0.09162595  0.58715218  1
  Te  Te164  1  0.60220759  0.11530637  0.91332878  1
  Te  Te165  1  0.57250343  0.39334207  0.22975244  1
  Te  Te166  1  0.57169735  0.41965559  0.60949421  1
  Te  Te167  1  0.59825577  0.38169186  0.94503066  1
  Te  Te168  1  0.58513102  0.73657576  0.23224319  1
  Te  Te169  1  0.52428009  0.79499789  0.55260207  1
  Te  Te170  1  0.58055948  0.75220903  0.94651363  1
  Te  Te171  1  0.90880417  0.08966616  0.23967919  1
  Te  Te172  1  0.90542463  0.07710350  0.59081483  1
  Te  Te173  1  0.92689911  0.06645035  0.90898151  1
  Te  Te174  1  0.90224002  0.41013682  0.26746003  1
  Te  Te175  1  0.92581146  0.42706211  0.55453934  1
  Te  Te176  1  0.93595220  0.40890631  0.92602047  1
  Te  Te177  1  0.91325869  0.75704161  0.25444747  1
  Te  Te178  1  0.91301655  0.76173475  0.60237538  1
  Te  Te179  1  0.94155139  0.73288935  0.91596552  1
