# generated using pymatgen
data_In2Te3
_symmetry_space_group_name_H-M   'P 1'
_cell_length_a   18.92091181
_cell_length_b   18.92666780
_cell_length_c   18.92926722
_cell_angle_alpha   90.19490300
_cell_angle_beta   90.13490431
_cell_angle_gamma   90.11351487
_symmetry_Int_Tables_number   1
_chemical_formula_structural   In2Te3
_chemical_formula_sum   'In72 Te108'
_cell_volume   6778.68490874
_cell_formula_units_Z   36
loop_
 _symmetry_equiv_pos_site_id
 _symmetry_equiv_pos_as_xyz
  1  'x, y, z'
loop_
 _atom_site_type_symbol
 _atom_site_label
 _atom_site_symmetry_multiplicity
 _atom_site_fract_x
 _atom_site_fract_y
 _atom_site_fract_z
 _atom_site_occupancy
  In  In0  1  0.31021665  0.65012127  0.69019819  1
  In  In1  1  0.66547241  0.82840575  0.85123410  1
  In  In2  1  0.50653549  0.18117442  -0.01430688  1
  In  In3  1  0.30413858  0.85453730  0.47992411  1
  In  In4  1  0.15599238  0.52044987  0.32118143  1
  In  In5  1  0.17372363  0.33743223  0.17242337  1
  In  In6  1  0.31353592  -0.01246038  0.01358896  1
  In  In7  1  0.30476012  0.82103509  0.85377679  1
  In  In8  1  0.16060134  -0.00287887  0.83249782  1
  In  In9  1  -0.00022782  0.66108323  0.67837190  1
  In  In10  1  0.85303465  0.49835321  0.00212471  1
  In  In11  1  0.51539501  0.16018358  0.67794080  1
  In  In12  1  -0.01408750  0.51924001  0.52653075  1
  In  In13  1  0.05092237  0.85360371  0.43708914  1
  In  In14  1  0.17313409  0.32238266  0.48935914  1
  In  In15  1  0.34046596  0.01583936  0.66871210  1
  In  In16  1  0.52370190  0.31848171  0.51613870  1
  In  In17  1  0.00120357  0.53956688  0.19748439  1
  In  In18  1  0.48205100  0.82345029  -0.00418464  1
  In  In19  1  0.03105017  0.33713191  -0.00202760  1
  In  In20  1  0.15363616  0.16595865  0.00245972  1
  In  In21  1  0.14904075  0.15281868  0.68110972  1
  In  In22  1  0.82027420  0.33614168  0.82874845  1
  In  In23  1  -0.00780050  0.33835242  0.31386833  1
  In  In24  1  0.49749275  0.83815094  0.33100615  1
  In  In25  1  0.67555267  0.85079621  0.18019002  1
  In  In26  1  0.85050039  0.68170342  0.47926438  1
  In  In27  1  0.47595801  0.33847118  0.19349835  1
  In  In28  1  0.66410817  0.17045824  0.15406897  1
  In  In29  1  0.00496577  0.36480128  0.69219943  1
  In  In30  1  0.19650351  0.12485535  0.29973073  1
  In  In31  1  0.16811996  0.34261748  0.83228840  1
  In  In32  1  0.48618689  0.68375723  0.15347761  1
  In  In33  1  0.85753793  0.13456534  0.32995692  1
  In  In34  1  -0.02232487  0.13659825  0.19277696  1
  In  In35  1  0.17325451  0.65961664  0.15515478  1
  In  In36  1  0.32636566  0.33272957  -0.01012207  1
  In  In37  1  0.84252526  0.84465890  0.68034811  1
  In  In38  1  0.68972066  0.69530553  0.64508503  1
  In  In39  1  0.47470273  0.15318981  0.33256035  1
  In  In40  1  0.66303032  -0.00507894  0.66405315  1
  In  In41  1  0.65720609  0.64327972  0.00897283  1
  In  In42  1  0.82810006  0.34015414  0.15834328  1
  In  In43  1  0.67983489  0.32366826  0.66857340  1
  In  In44  1  0.00778582  0.82583149  0.82302234  1
  In  In45  1  0.35524896  0.50149498  0.48612458  1
  In  In46  1  0.17959732  0.57876700  -0.07004242  1
  In  In47  1  0.67847635  0.49215546  0.51883346  1
  In  In48  1  0.31507060  0.13465330  0.48874407  1
  In  In49  1  0.32164159  0.68010554  0.32943378  1
  In  In50  1  0.67672166  0.82850095  0.48905682  1
  In  In51  1  0.01921942  0.15811060  0.47976969  1
  In  In52  1  0.82281403  0.66813863  0.19299391  1
  In  In53  1  0.85063926  0.82850629  -0.00676468  1
  In  In54  1  0.68985495  0.01818468  0.00139721  1
  In  In55  1  0.84552452  0.16071939  0.63829412  1
  In  In56  1  0.33552520  0.33703342  0.65880937  1
  In  In57  1  0.65130111  0.50784235  0.83623207  1
  In  In58  1  0.52650354  0.64233953  0.48881434  1
  In  In59  1  0.51994841  0.50533537  0.35937270  1
  In  In60  1  0.66252040  0.34367070  0.34524948  1
  In  In61  1  0.47862588  -0.02765267  0.16567048  1
  In  In62  1  0.68344065  0.00891836  0.33737582  1
  In  In63  1  0.47663464  0.51237478  0.72686288  1
  In  In64  1  0.46339859  0.83245358  0.68260330  1
  In  In65  1  0.66907142  0.18521206  0.82012270  1
  In  In66  1  0.02210859  0.83328563  0.17024826  1
  In  In67  1  0.30860981  0.51517132  0.17010480  1
  In  In68  1  0.66908929  0.37007074  -0.01586674  1
  In  In69  1  -0.00352118  -0.00609184  -0.01016497  1
  In  In70  1  0.15130537  0.83396750  0.63132681  1
  In  In71  1  0.84491409  0.14348185  0.01793419  1
  Te  Te72  1  0.07666801  0.07383633  0.09469982  1
  Te  Te73  1  0.10747644  0.06458533  0.40294512  1
  Te  Te74  1  0.05589521  0.05982776  0.74874984  1
  Te  Te75  1  0.07257381  0.43240098  0.11144885  1
  Te  Te76  1  0.08189636  0.41657304  0.40957108  1
  Te  Te77  1  0.11716135  0.44889783  0.74138557  1
  Te  Te78  1  0.07704602  0.73472007  0.07423539  1
  Te  Te79  1  0.10792460  0.71881519  0.42245697  1
  Te  Te80  1  0.10979561  0.74525806  0.74609156  1
  Te  Te81  1  0.42819131  0.07494600  0.06695934  1
  Te  Te82  1  0.40171634  0.04772278  0.40627420  1
  Te  Te83  1  0.42110809  0.09071067  0.76508124  1
  Te  Te84  1  0.40072499  0.42202235  0.09158600  1
  Te  Te85  1  0.43319139  0.39250396  0.41546715  1
  Te  Te86  1  0.35422126  0.43283289  0.77740827  1
  Te  Te87  1  0.39242545  0.78627443  0.10592373  1
  Te  Te88  1  0.42358801  0.74388681  0.42642276  1
  Te  Te89  1  0.40416348  0.73140680  0.77861421  1
  Te  Te90  1  0.77032543  0.06434630  0.12249627  1
  Te  Te91  1  0.76648413  0.08436473  0.43259967  1
  Te  Te92  1  0.75435972  0.08839915  0.74389363  1
  Te  Te93  1  0.74083977  0.44620908  0.09312902  1
  Te  Te94  1  0.76039981  0.40640482  0.43347157  1
  Te  Te95  1  0.75057624  0.43574324  0.74114700  1
  Te  Te96  1  0.74042122  0.75735045  0.07562202  1
  Te  Te97  1  0.76292908  0.76334708  0.38996814  1
  Te  Te98  1  0.76403018  0.74813311  0.76699434  1
  Te  Te99  1  0.08772467  0.23417009  0.25436731  1
  Te  Te100  1  0.08103832  0.25830747  0.59160523  1
  Te  Te101  1  0.07596249  0.23645795  0.89276485  1
  Te  Te102  1  0.07080625  0.64489827  0.29305664  1
  Te  Te103  1  0.09413557  0.60069235  0.58100788  1
  Te  Te104  1  0.02904620  0.59663041  0.89497763  1
  Te  Te105  1  0.13754143  0.88622456  0.25336729  1
  Te  Te106  1  0.05020962  0.92123222  0.57035706  1
  Te  Te107  1  0.09603305  0.89921391  0.92757774  1
  Te  Te108  1  0.39414981  0.22470220  0.23383952  1
  Te  Te109  1  0.40503341  0.23390886  0.56896407  1
  Te  Te110  1  0.41108686  0.25319600  0.90152106  1
  Te  Te111  1  0.41750736  0.57790553  0.26592749  1
  Te  Te112  1  0.41929407  0.58872318  0.59410137  1
  Te  Te113  1  0.42915190  0.53335917  0.86697397  1
  Te  Te114  1  0.38907398  0.92604522  0.27547343  1
  Te  Te115  1  0.40936640  0.92096822  0.57156860  1
  Te  Te116  1  0.40624965  0.92104230  0.90871752  1
  Te  Te117  1  0.75415829  0.24570751  0.25157044  1
  Te  Te118  1  0.73938652  0.23676895  0.56861518  1
  Te  Te119  1  0.75298160  0.24941968  0.94243456  1
  Te  Te120  1  0.72014841  0.59205575  0.26127040  1
  Te  Te121  1  0.77592810  0.59048102  0.58341362  1
  Te  Te122  1  0.75970320  0.58199521  0.91485713  1
  Te  Te123  1  0.77323716  0.90320191  0.28044444  1
  Te  Te124  1  0.76254369  0.92002333  0.57541137  1
  Te  Te125  1  0.76753160  0.92622273  0.90900268  1
  Te  Te126  1  0.25456422  0.23950971  0.08917362  1
  Te  Te127  1  0.25348055  0.23625125  0.39529402  1
  Te  Te128  1  0.24986589  0.24481077  0.74671905  1
  Te  Te129  1  0.27945719  0.60761565  0.05430554  1
  Te  Te130  1  0.24661315  0.58950419  0.42530041  1
  Te  Te131  1  0.23096443  0.56549697  0.78399054  1
  Te  Te132  1  0.21397702  0.93613979  0.11042990  1
  Te  Te133  1  0.19422804  0.91601482  0.39983825  1
  Te  Te134  1  0.24910908  0.90941710  0.73822689  1
  Te  Te135  1  0.58030224  0.27592363  0.08472387  1
  Te  Te136  1  0.58401773  0.22952327  0.40856288  1
  Te  Te137  1  0.56723312  0.27962516  0.75895252  1
  Te  Te138  1  0.54543777  0.57613335  0.07470675  1
  Te  Te139  1  0.64363806  0.59402750  0.39809240  1
  Te  Te140  1  0.59969988  0.60577094  0.73318633  1
  Te  Te141  1  0.58948970  0.91693848  0.06566214  1
  Te  Te142  1  0.58415814  0.92655593  0.41941210  1
  Te  Te143  1  0.57655074  0.90639727  0.75544414  1
  Te  Te144  1  0.93448464  0.25378101  0.09069366  1
  Te  Te145  1  0.91869231  0.24991673  0.41166981  1
  Te  Te146  1  0.91198919  0.25284924  0.74380086  1
  Te  Te147  1  0.91798298  0.60507659  0.08870253  1
  Te  Te148  1  0.91499815  0.57035137  0.40820769  1
  Te  Te149  1  0.94297981  0.56908900  0.77777321  1
  Te  Te150  1  0.91530404  0.91973129  0.09448880  1
  Te  Te151  1  0.92223632  0.90184745  0.37983311  1
  Te  Te152  1  0.93118509  0.93457310  0.75780330  1
  Te  Te153  1  0.27530282  0.03887442  0.20703433  1
  Te  Te154  1  0.22275602  0.06192638  0.58343218  1
  Te  Te155  1  0.25048348  0.08689698  0.91617394  1
  Te  Te156  1  0.25641783  0.41593135  0.27298020  1
  Te  Te157  1  0.25114058  0.42621408  0.56956636  1
  Te  Te158  1  0.20878244  0.42321228  0.95500178  1
  Te  Te159  1  0.24950091  0.76447103  0.23127303  1
  Te  Te160  1  0.26451431  0.74727241  0.57823375  1
  Te  Te161  1  0.22581035  0.72703273  0.93252051  1
  Te  Te162  1  0.57878684  0.07394664  0.23461355  1
  Te  Te163  1  0.57974550  0.07789852  0.57702483  1
  Te  Te164  1  0.59303082  0.08385301  0.90456387  1
  Te  Te165  1  0.58792629  0.42765246  0.24467346  1
  Te  Te166  1  0.56674428  0.43363830  0.60297105  1
  Te  Te167  1  0.55134508  0.42759256  0.91381632  1
  Te  Te168  1  0.58678708  0.74779442  0.24856914  1
  Te  Te169  1  0.56755194  0.76483582  0.58647641  1
  Te  Te170  1  0.56982231  0.72976777  0.91587333  1
  Te  Te171  1  0.95788851  0.02489903  0.29472815  1
  Te  Te172  1  0.93659469  0.07003723  0.56451379  1
  Te  Te173  1  0.92014704  0.08886253  0.90693339  1
  Te  Te174  1  0.89745042  0.43878878  0.25207292  1
  Te  Te175  1  0.91181851  0.41015662  0.59014765  1
  Te  Te176  1  0.93137189  0.40825745  0.90776089  1
  Te  Te177  1  0.92169339  0.75992444  0.25512929  1
  Te  Te178  1  0.92566712  0.75908222  0.58679768  1
  Te  Te179  1  0.92826827  0.73261813  0.90973075  1
