# generated using pymatgen
data_In2Te3
_symmetry_space_group_name_H-M   'P 1'
_cell_length_a   18.99103948
_cell_length_b   18.97693158
_cell_length_c   19.01441006
_cell_angle_alpha   90.26510394
_cell_angle_beta   89.90869543
_cell_angle_gamma   90.05661672
_symmetry_Int_Tables_number   1
_chemical_formula_structural   In2Te3
_chemical_formula_sum   'In72 Te108'
_cell_volume   6852.54939653
_cell_formula_units_Z   36
loop_
 _symmetry_equiv_pos_site_id
 _symmetry_equiv_pos_as_xyz
  1  'x, y, z'
loop_
 _atom_site_type_symbol
 _atom_site_label
 _atom_site_symmetry_multiplicity
 _atom_site_fract_x
 _atom_site_fract_y
 _atom_site_fract_z
 _atom_site_occupancy
  In  In0  1  0.49588423  0.15650881  0.67266539  1
  In  In1  1  0.17585303  0.16087563  -0.01685011  1
  In  In2  1  0.51340292  0.82720212  -0.00178065  1
  In  In3  1  0.79415375  0.52832349  0.35745224  1
  In  In4  1  0.17247619  0.81723791  -0.00492660  1
  In  In5  1  0.33827573  0.13881033  0.82375007  1
  In  In6  1  0.51740558  0.33509306  0.17945496  1
  In  In7  1  -0.02588168  0.68006734  -0.02568497  1
  In  In8  1  0.35447436  0.18943337  0.49557165  1
  In  In9  1  0.36938033  0.52775569  0.49404945  1
  In  In10  1  0.30766288  0.35483780  0.35451532  1
  In  In11  1  0.02475252  0.53391848  0.14679220  1
  In  In12  1  0.00438408  -0.01832265  0.66552583  1
  In  In13  1  0.65452105  0.49965026  0.83757449  1
  In  In14  1  0.32389785  0.67123048  0.30435951  1
  In  In15  1  0.82812163  0.68659508  0.51486204  1
  In  In16  1  0.68305052  0.82279512  0.18489820  1
  In  In17  1  0.82653367  0.10433525  -0.03127074  1
  In  In18  1  0.15990448  0.16740647  0.67587687  1
  In  In19  1  0.15025091  0.02573405  0.51927608  1
  In  In20  1  0.33098974  0.83026342  0.49614511  1
  In  In21  1  0.81297881  0.68699133  0.79490789  1
  In  In22  1  0.67385184  0.67892499  0.01256586  1
  In  In23  1  -0.01831527  0.83230575  0.17632418  1
  In  In24  1  0.52327713  0.78436018  0.30843910  1
  In  In25  1  0.47374956  0.33587652  0.82517609  1
  In  In26  1  0.17763663  0.32373122  0.52815164  1
  In  In27  1  0.32719944  0.00204725  0.29786685  1
  In  In28  1  0.84673035  0.82636790  0.34550413  1
  In  In29  1  0.31746433  -0.03240964  0.66605872  1
  In  In30  1  0.67540779  0.28265629  0.00158558  1
  In  In31  1  0.00435586  0.19228223  0.15876686  1
  In  In32  1  0.51326779  0.68784672  0.84026351  1
  In  In33  1  0.50834017  0.51708825  -0.02518744  1
  In  In34  1  -0.02304115  0.50692796  0.51052022  1
  In  In35  1  0.82560128  0.52377152  0.66504486  1
  In  In36  1  0.65404852  0.16235987  0.19402313  1
  In  In37  1  0.34790854  0.68341411  0.70316009  1
  In  In38  1  0.68566401  0.08022225  0.84708383  1
  In  In39  1  0.01689833  -0.00125881  -0.01971310  1
  In  In40  1  0.02873829  0.15039655  0.81414005  1
  In  In41  1  0.16235397  0.81809557  0.69457772  1
  In  In42  1  0.82858827  0.47590644  -0.01310901  1
  In  In43  1  0.12941361  0.50990826  0.33386362  1
  In  In44  1  0.84025869  -0.00162287  0.16284292  1
  In  In45  1  -0.01522791  -0.01895485  0.36244415  1
  In  In46  1  0.49985880  -0.00878952  0.15026070  1
  In  In47  1  0.82904653  0.15053252  0.35417193  1
  In  In48  1  0.64916839  -0.02031055  0.67169021  1
  In  In49  1  0.15902380  0.33151670  0.18666097  1
  In  In50  1  0.67026690  0.35027836  0.36414880  1
  In  In51  1  0.14991711  0.68055976  0.48338225  1
  In  In52  1  0.82495654  0.37180694  0.18293310  1
  In  In53  1  0.15249335  0.84468770  0.34788757  1
  In  In54  1  0.51666987  -0.04315988  0.48033945  1
  In  In55  1  0.32721498  0.33216734  -0.02524083  1
  In  In56  1  -0.02443555  0.35912032  0.01461726  1
  In  In57  1  0.51691702  0.53289982  0.34952062  1
  In  In58  1  0.52352958  0.49704643  0.67056789  1
  In  In59  1  0.34042938  0.14767974  0.16505275  1
  In  In60  1  0.14538519  0.36219854  0.85371859  1
  In  In61  1  -0.02429148  0.82950736  0.80625351  1
  In  In62  1  0.48755385  0.15966763  0.32090861  1
  In  In63  1  0.17476989  0.51078720  0.67648991  1
  In  In64  1  0.65869586  0.33342054  0.66545709  1
  In  In65  1  0.33192145  0.34933947  0.69723485  1
  In  In66  1  0.34412248  0.83372763  0.12995031  1
  In  In67  1  0.18156086  0.58648510  -0.03722341  1
  In  In68  1  0.33515902  0.51469986  0.12644702  1
  In  In69  1  0.67645701  0.17079328  0.49644503  1
  In  In70  1  -0.06887158  0.34733791  0.35652136  1
  In  In71  1  0.54195854  0.70465644  0.51573082  1
  Te  Te72  1  0.08598712  0.08900978  0.08273425  1
  Te  Te73  1  0.06472650  0.08855512  0.42085949  1
  Te  Te74  1  0.11834500  0.04629681  0.75232385  1
  Te  Te75  1  0.09811197  0.41905741  0.07946578  1
  Te  Te76  1  0.08892021  0.41751581  0.44253880  1
  Te  Te77  1  0.08538449  0.40674870  0.72929235  1
  Te  Te78  1  0.06247067  0.75048468  0.07647246  1
  Te  Te79  1  0.04779819  0.75763547  0.40844352  1
  Te  Te80  1  0.06034988  0.72398708  0.74385520  1
  Te  Te81  1  0.39933423  0.05778068  0.06304793  1
  Te  Te82  1  0.41246483  0.06881746  0.41839845  1
  Te  Te83  1  0.42594319  0.04385437  0.74525223  1
  Te  Te84  1  0.42590636  0.40311149  0.07356469  1
  Te  Te85  1  0.43210673  0.41725164  0.41203509  1
  Te  Te86  1  0.41116182  0.45919018  0.76617070  1
  Te  Te87  1  0.44500918  0.73668660  0.09185796  1
  Te  Te88  1  0.41716385  0.73578431  0.41415010  1
  Te  Te89  1  0.42352790  0.78747403  0.77580333  1
  Te  Te90  1  0.73737304  0.08525525  0.09454629  1
  Te  Te91  1  0.74567465  0.05974560  0.43105661  1
  Te  Te92  1  0.74059895  0.09030792  0.70921254  1
  Te  Te93  1  0.72485638  0.40668224  0.07493390  1
  Te  Te94  1  0.79615781  0.39735391  0.42902875  1
  Te  Te95  1  0.74807707  0.41867338  0.75317760  1
  Te  Te96  1  0.77515266  0.75487129  0.09045268  1
  Te  Te97  1  0.73738280  0.75975607  0.42110126  1
  Te  Te98  1  0.75839409  0.78016336  0.69157330  1
  Te  Te99  1  0.05324591  0.27535316  0.27465873  1
  Te  Te100  1  0.06799580  0.24369100  0.58836064  1
  Te  Te101  1  0.06363926  0.24887462  0.93066827  1
  Te  Te102  1  0.08856421  0.61917737  0.24884747  1
  Te  Te103  1  0.08288436  0.58948472  0.58257886  1
  Te  Te104  1  0.04736569  0.57095297  0.90966744  1
  Te  Te105  1  0.07345407  0.92873576  0.25014700  1
  Te  Te106  1  0.10078714  0.89841261  0.58025456  1
  Te  Te107  1  0.08298417  0.89177071  0.89752444  1
  Te  Te108  1  0.39887265  0.26629894  0.25626559  1
  Te  Te109  1  0.42402176  0.27194723  0.60172010  1
  Te  Te110  1  0.41967284  0.22622249  0.91766744  1
  Te  Te111  1  0.42260506  0.57722243  0.23918372  1
  Te  Te112  1  0.43995109  0.61326350  0.59690520  1
  Te  Te113  1  0.41448905  0.61667540  0.92526630  1
  Te  Te114  1  0.43128674  0.90017481  0.25870520  1
  Te  Te115  1  0.43133860  0.89503803  0.58863747  1
  Te  Te116  1  0.43290914  0.93963517  0.94805181  1
  Te  Te117  1  0.74732826  0.25926995  0.26145640  1
  Te  Te118  1  0.75116632  0.23374768  0.60611627  1
  Te  Te119  1  0.75905291  0.21847266  0.89640031  1
  Te  Te120  1  0.72798203  0.57647806  0.23991090  1
  Te  Te121  1  0.73264933  0.58467846  0.56734688  1
  Te  Te122  1  0.75787897  0.58674849  0.90644620  1
  Te  Te123  1  0.76072140  0.92637929  0.26591600  1
  Te  Te124  1  0.71252686  0.88041953  0.57921270  1
  Te  Te125  1  0.77054588  0.97875745  0.91325336  1
  Te  Te126  1  0.25020214  0.25852001  0.08477355  1
  Te  Te127  1  0.23557766  0.23691642  0.41443219  1
  Te  Te128  1  0.24149740  0.25776603  0.77640213  1
  Te  Te129  1  0.23453629  0.61498817  0.09860319  1
  Te  Te130  1  0.25255623  0.58242328  0.41333278  1
  Te  Te131  1  0.24174575  0.60482692  0.76753987  1
  Te  Te132  1  0.24042553  0.91943415  0.07681417  1
  Te  Te133  1  0.24967493  0.93543161  0.42443707  1
  Te  Te134  1  0.27358385  0.87610307  0.77327120  1
  Te  Te135  1  0.56380596  0.22253547  0.08763656  1
  Te  Te136  1  0.57125602  0.24595295  0.41353048  1
  Te  Te137  1  0.57821752  0.24596147  0.76188974  1
  Te  Te138  1  0.59088281  0.57733413  0.07787822  1
  Te  Te139  1  0.60877248  0.58669148  0.45341571  1
  Te  Te140  1  0.60052809  0.60412756  0.74481185  1
  Te  Te141  1  0.60918592  0.91131001  0.08595509  1
  Te  Te142  1  0.60604710  0.86387368  0.40621540  1
  Te  Te143  1  0.60166623  0.91995184  0.79883111  1
  Te  Te144  1  0.88894770  0.26318226  0.09300676  1
  Te  Te145  1  0.91071769  0.23334163  0.44391004  1
  Te  Te146  1  0.94239773  0.20704066  0.70951169  1
  Te  Te147  1  0.90414184  0.57939461  0.06940878  1
  Te  Te148  1  0.91322620  0.59994553  0.41169856  1
  Te  Te149  1  0.92370632  0.61676013  0.72760271  1
  Te  Te150  1  0.92048461  0.91674582  0.06504953  1
  Te  Te151  1  0.90632645  0.90492483  0.46389783  1
  Te  Te152  1  0.88956455  0.89599230  0.70595660  1
  Te  Te153  1  0.23093700  0.09808870  0.24729533  1
  Te  Te154  1  0.27448990  0.09925743  0.59144753  1
  Te  Te155  1  0.24157926  0.06028393  0.90053277  1
  Te  Te156  1  0.24975207  0.44102116  0.24429183  1
  Te  Te157  1  0.27677251  0.43263135  0.57660837  1
  Te  Te158  1  0.25177213  0.44607019  0.91715117  1
  Te  Te159  1  0.24678677  0.78376854  0.24531110  1
  Te  Te160  1  0.25258895  0.73573823  0.58418942  1
  Te  Te161  1  0.25574508  0.71204540  0.93173791  1
  Te  Te162  1  0.58062921  0.05404463  0.26784380  1
  Te  Te163  1  0.56678376  0.07572114  0.56527043  1
  Te  Te164  1  0.55741776  0.02274659  0.90205970  1
  Te  Te165  1  0.59809853  0.43318455  0.26021579  1
  Te  Te166  1  0.58606661  0.41485508  0.56790719  1
  Te  Te167  1  0.58718685  0.38800277  0.91942289  1
  Te  Te168  1  0.62815335  0.69529246  0.24833594  1
  Te  Te169  1  0.61166247  0.77132697  0.62779421  1
  Te  Te170  1  0.62569652  0.77067850  0.90303201  1
  Te  Te171  1  0.92663365  0.09136280  0.24550711  1
  Te  Te172  1  0.94819634  0.10212246  0.60341407  1
  Te  Te173  1  0.92700123  0.04901424  0.86835619  1
  Te  Te174  1  0.93691844  0.44933723  0.24487808  1
  Te  Te175  1  0.90938110  0.41882494  0.60425274  1
  Te  Te176  1  0.91030976  0.40032791  0.89094175  1
  Te  Te177  1  0.88163153  0.73824611  0.23029030  1
  Te  Te178  1  0.94593225  0.77395337  0.53765016  1
  Te  Te179  1  0.87511580  0.77166764  0.90378022  1
