# generated using pymatgen
data_In2Te3
_symmetry_space_group_name_H-M   'P 1'
_cell_length_a   19.06538946
_cell_length_b   19.03605406
_cell_length_c   19.07807481
_cell_angle_alpha   90.17492854
_cell_angle_beta   89.83824493
_cell_angle_gamma   89.84870499
_symmetry_Int_Tables_number   1
_chemical_formula_structural   In2Te3
_chemical_formula_sum   'In72 Te108'
_cell_volume   6923.91741617
_cell_formula_units_Z   36
loop_
 _symmetry_equiv_pos_site_id
 _symmetry_equiv_pos_as_xyz
  1  'x, y, z'
loop_
 _atom_site_type_symbol
 _atom_site_label
 _atom_site_symmetry_multiplicity
 _atom_site_fract_x
 _atom_site_fract_y
 _atom_site_fract_z
 _atom_site_occupancy
  In  In0  1  0.54016308  0.00465076  0.82047678  1
  In  In1  1  0.17315877  0.65960281  0.86625879  1
  In  In2  1  0.81389320  0.82929194  0.62221472  1
  In  In3  1  0.69740894  0.50839762  0.19394038  1
  In  In4  1  -0.02088825  0.85660046  0.82985436  1
  In  In5  1  -0.01673409  0.82267865  0.18860794  1
  In  In6  1  0.32230305  0.31949170  0.64815541  1
  In  In7  1  0.00535301  0.00467883  0.00296131  1
  In  In8  1  0.67518681  -0.00493464  0.01959107  1
  In  In9  1  0.33987320  0.48368334  0.82796074  1
  In  In10  1  0.84569284  0.34557631  0.47904696  1
  In  In11  1  0.51174776  0.68363676  0.18447788  1
  In  In12  1  0.15222548  0.31695231  0.48856349  1
  In  In13  1  0.16513019  0.68255835  0.49237372  1
  In  In14  1  0.32951899  0.48107180  0.50477145  1
  In  In15  1  -0.03065793  0.17283516  0.81608081  1
  In  In16  1  0.13422087  0.50755619  0.70072116  1
  In  In17  1  0.51880705  0.53404564  0.65771765  1
  In  In18  1  0.52958930  0.68230284  0.82061861  1
  In  In19  1  -0.01766470  0.70408463  0.67108310  1
  In  In20  1  -0.01289172  0.51956188  0.49132898  1
  In  In21  1  0.18179839  0.16503255  0.33744824  1
  In  In22  1  -0.03839516  0.50323446  0.17609212  1
  In  In23  1  0.80904384  0.67699562  0.80760284  1
  In  In24  1  0.49540178  0.33447671  0.47550678  1
  In  In25  1  0.14591922  0.32965533  0.85388400  1
  In  In26  1  0.54335378  0.33660578  0.17638328  1
  In  In27  1  0.35997805  0.16467863  0.83273103  1
  In  In28  1  0.66280208  0.83835697  0.18037919  1
  In  In29  1  -0.01128904  0.00172927  0.33361131  1
  In  In30  1  0.31845602  0.50150632  0.16865116  1
  In  In31  1  0.47738615  0.00618654  0.16547130  1
  In  In32  1  0.67048277  0.65618431  -0.01312456  1
  In  In33  1  0.51782533  0.82918285  0.65760060  1
  In  In34  1  -0.00884150  0.65552953  0.02571541  1
  In  In35  1  0.84742661  0.15700728  -0.00304662  1
  In  In36  1  0.16128365  -0.00151077  0.51482425  1
  In  In37  1  0.16766519  0.85311900  0.67941798  1
  In  In38  1  0.50022383  0.66595340  0.48839909  1
  In  In39  1  0.52991608  0.34134906  0.81425218  1
  In  In40  1  0.33080981  0.67130423  0.34668791  1
  In  In41  1  0.34151931  -0.00642671  0.34946294  1
  In  In42  1  0.79492498  0.82237295  0.36116901  1
  In  In43  1  0.67192968  0.33122674  0.65622674  1
  In  In44  1  0.16232069  0.34806446  0.16180434  1
  In  In45  1  0.66965898  0.51086778  0.47308055  1
  In  In46  1  0.35608341  0.64676347  0.01224234  1
  In  In47  1  0.74644181  0.05134944  0.85295867  1
  In  In48  1  0.65924883  -0.01345515  0.33599621  1
  In  In49  1  0.18044228  -0.00690342  0.85536152  1
  In  In50  1  0.00647464  0.00636440  0.65596665  1
  In  In51  1  0.70329614  0.19850902  0.19090442  1
  In  In52  1  0.33916893  0.83695827  0.17568368  1
  In  In53  1  -0.01385706  0.33922594  0.00179921  1
  In  In54  1  0.33572740  0.83777905  0.52922442  1
  In  In55  1  0.53176651  0.47779965  -0.00459183  1
  In  In56  1  0.35060365  -0.00327427  0.00160126  1
  In  In57  1  0.82030062  0.50394806  0.62223484  1
  In  In58  1  0.48523689  0.15139633  0.32110745  1
  In  In59  1  0.15047980  0.82294458  0.31793508  1
  In  In60  1  0.17339547  0.15913296  0.65747444  1
  In  In61  1  -0.04157439  0.65305851  0.33255888  1
  In  In62  1  0.83437784  0.00999439  0.50185529  1
  In  In63  1  -0.04752152  0.48989256  0.84701773  1
  In  In64  1  -0.00478638  0.14965553  0.16136589  1
  In  In65  1  0.33211090  0.17438240  0.15223791  1
  In  In66  1  0.52873821  0.16531575  0.65293484  1
  In  In67  1  0.34412726  0.83344419  0.83507140  1
  In  In68  1  0.33305425  0.34145114  -0.00963120  1
  In  In69  1  0.84186724  0.82226018  0.01537447  1
  In  In70  1  0.65794016  0.15997316  0.49062645  1
  In  In71  1  -0.01088404  0.33648749  0.33794723  1
  Te  Te72  1  0.09784510  0.07914569  0.08614125  1
  Te  Te73  1  0.08415857  0.08555894  0.42057633  1
  Te  Te74  1  0.09178249  0.07462017  0.76316977  1
  Te  Te75  1  0.06786089  0.43422570  0.08437160  1
  Te  Te76  1  0.08129734  0.42879769  0.41402024  1
  Te  Te77  1  0.04810638  0.40171956  0.76558189  1
  Te  Te78  1  0.07141783  0.75434612  0.09376726  1
  Te  Te79  1  0.05914046  0.74487276  0.40749584  1
  Te  Te80  1  0.09186470  0.75463535  0.76756207  1
  Te  Te81  1  0.43563536  0.10886782  0.06340178  1
  Te  Te82  1  0.44402216  0.06047656  0.42769335  1
  Te  Te83  1  0.43663063  0.07863162  0.73740775  1
  Te  Te84  1  0.42640944  0.41357671  0.08394356  1
  Te  Te85  1  0.40719763  0.42017571  0.39865190  1
  Te  Te86  1  0.42170382  0.40775313  0.72448922  1
  Te  Te87  1  0.43031730  0.75798234  0.08208734  1
  Te  Te88  1  0.41648558  0.77131740  0.41903779  1
  Te  Te89  1  0.41787505  0.74251877  0.74117415  1
  Te  Te90  1  0.76234080  0.08723651  0.09985928  1
  Te  Te91  1  0.75244649  0.08749495  0.39741089  1
  Te  Te92  1  0.72459092  0.10329079  0.71985825  1
  Te  Te93  1  0.78132599  0.45657201  0.08450698  1
  Te  Te94  1  0.72875500  0.39459732  0.39930476  1
  Te  Te95  1  0.76208375  0.42136356  0.72849667  1
  Te  Te96  1  0.74040400  0.74261071  0.09190054  1
  Te  Te97  1  0.77029171  0.71165061  0.46115364  1
  Te  Te98  1  0.73504341  0.78365467  0.74071371  1
  Te  Te99  1  0.08789611  0.24809297  0.25018691  1
  Te  Te100  1  0.08003016  0.24938939  0.59526051  1
  Te  Te101  1  0.05989914  0.22991145  0.92527143  1
  Te  Te102  1  0.05713076  0.57931296  0.25485468  1
  Te  Te103  1  0.07769031  0.60101078  0.59236967  1
  Te  Te104  1  0.05950411  0.57438453  0.91639232  1
  Te  Te105  1  0.08343970  0.93105827  0.23949128  1
  Te  Te106  1  0.06868726  0.89400036  0.57453712  1
  Te  Te107  1  0.08747629  0.89879435  0.92612717  1
  Te  Te108  1  0.42269975  0.25881875  0.23611724  1
  Te  Te109  1  0.42503362  0.23983147  0.57124814  1
  Te  Te110  1  0.43811764  0.26570801  0.91120109  1
  Te  Te111  1  0.41278063  0.59066385  0.24906447  1
  Te  Te112  1  0.40312123  0.58865367  0.58094628  1
  Te  Te113  1  0.43537777  0.56815022  0.90821235  1
  Te  Te114  1  0.43628688  0.90585854  0.26909712  1
  Te  Te115  1  0.44110935  0.92444835  0.57721802  1
  Te  Te116  1  0.44125665  0.92280121  0.90641828  1
  Te  Te117  1  0.76142078  0.30401724  0.27480067  1
  Te  Te118  1  0.75515045  0.25102990  0.56025890  1
  Te  Te119  1  0.78449299  0.23643618  0.89120690  1
  Te  Te120  1  0.78260325  0.59166697  0.28076869  1
  Te  Te121  1  0.72163764  0.60830684  0.57607900  1
  Te  Te122  1  0.74210086  0.57456403  0.88736820  1
  Te  Te123  1  0.76519207  0.92469723  0.24658808  1
  Te  Te124  1  0.72384802  0.92716797  0.55746100  1
  Te  Te125  1  0.76166681  0.91372646  0.92622112  1
  Te  Te126  1  0.23689562  0.25501428  0.06735898  1
  Te  Te127  1  0.26266482  0.24389227  0.42900879  1
  Te  Te128  1  0.25151439  0.25756223  0.76956309  1
  Te  Te129  1  0.24252018  0.58159610  0.07441018  1
  Te  Te130  1  0.24043131  0.57583940  0.41912331  1
  Te  Te131  1  0.25053062  0.58513306  0.75922956  1
  Te  Te132  1  0.26092030  0.92193235  0.08762880  1
  Te  Te133  1  0.23547388  0.89910329  0.41875586  1
  Te  Te134  1  0.27213849  0.93548731  0.74923129  1
  Te  Te135  1  0.63237357  0.26772862  0.08436327  1
  Te  Te136  1  0.58207666  0.24462495  0.39170481  1
  Te  Te137  1  0.62318311  0.22463337  0.75520275  1
  Te  Te138  1  0.58343770  0.58267066  0.09226601  1
  Te  Te139  1  0.57081647  0.57961910  0.39143096  1
  Te  Te140  1  0.60775501  0.56960489  0.76657371  1
  Te  Te141  1  0.56970543  0.91302720  0.08788611  1
  Te  Te142  1  0.64935113  0.85447953  0.40580411  1
  Te  Te143  1  0.61284305  0.89710234  0.75013556  1
  Te  Te144  1  0.90586421  0.25376732  0.09708145  1
  Te  Te145  1  0.92144826  0.23486616  0.41778974  1
  Te  Te146  1  0.86631590  0.26678875  0.77256108  1
  Te  Te147  1  0.87541301  0.58006931  0.07900249  1
  Te  Te148  1  0.87384683  0.54695165  0.39722234  1
  Te  Te149  1  0.90861783  0.58553397  0.73098062  1
  Te  Te150  1  0.91611736  0.92512922  0.09558239  1
  Te  Te151  1  0.91010826  0.90732798  0.41905797  1
  Te  Te152  1  0.90176708  0.91499899  0.71827515  1
  Te  Te153  1  0.26618187  0.07630521  0.24818858  1
  Te  Te154  1  0.26395186  0.07422797  0.58336586  1
  Te  Te155  1  0.26273531  0.09751186  0.92578396  1
  Te  Te156  1  0.24846796  0.41200823  0.25889704  1
  Te  Te157  1  0.22130604  0.42398407  0.60461781  1
  Te  Te158  1  0.23313552  0.43191770  0.92189549  1
  Te  Te159  1  0.24544943  0.73582568  0.24015374  1
  Te  Te160  1  0.24489295  0.74461286  0.60451913  1
  Te  Te161  1  0.26679551  0.75309457  0.93549064  1
  Te  Te162  1  0.59008814  0.08439031  0.23287651  1
  Te  Te163  1  0.62228364  0.06037498  0.59766855  1
  Te  Te164  1  0.61335746  0.09133110  0.92012382  1
  Te  Te165  1  0.58405135  0.44628410  0.26353050  1
  Te  Te166  1  0.57899958  0.42294236  0.57252156  1
  Te  Te167  1  0.61996433  0.39086317  0.91786540  1
  Te  Te168  1  0.59683264  0.75345846  0.28235891  1
  Te  Te169  1  0.59284862  0.72009489  0.58951265  1
  Te  Te170  1  0.58541353  0.75905072  0.92882587  1
  Te  Te171  1  0.91120439  0.11172286  0.27498904  1
  Te  Te172  1  0.91551913  0.09627583  0.58849963  1
  Te  Te173  1  0.91059954  0.05685895  0.89348499  1
  Te  Te174  1  0.88649325  0.39158494  0.24423297  1
  Te  Te175  1  0.93568181  0.41235622  0.58302324  1
  Te  Te176  1  0.87230929  0.41850163  0.94769294  1
  Te  Te177  1  0.87264769  0.73736966  0.24369812  1
  Te  Te178  1  0.89461215  0.72217027  0.55242396  1
  Te  Te179  1  0.91473493  0.74207600  0.90435736  1
