# generated using pymatgen
data_In2Te3
_symmetry_space_group_name_H-M   'P 1'
_cell_length_a   18.93059576
_cell_length_b   18.95666251
_cell_length_c   18.93966423
_cell_angle_alpha   90.10119030
_cell_angle_beta   89.89830042
_cell_angle_gamma   89.88272811
_symmetry_Int_Tables_number   1
_chemical_formula_structural   In2Te3
_chemical_formula_sum   'In72 Te108'
_cell_volume   6796.66964721
_cell_formula_units_Z   36
loop_
 _symmetry_equiv_pos_site_id
 _symmetry_equiv_pos_as_xyz
  1  'x, y, z'
loop_
 _atom_site_type_symbol
 _atom_site_label
 _atom_site_symmetry_multiplicity
 _atom_site_fract_x
 _atom_site_fract_y
 _atom_site_fract_z
 _atom_site_occupancy
  In  In0  1  0.01619016  0.84548911  0.18473874  1
  In  In1  1  0.01295783  0.67083380  0.34104170  1
  In  In2  1  0.31221457  0.67573375  0.66931488  1
  In  In3  1  0.30950811  0.15950399  0.18556139  1
  In  In4  1  0.22319003  0.51086108  0.37251278  1
  In  In5  1  0.49066842  0.65018678  0.50002655  1
  In  In6  1  0.66084241  0.34061314  0.31428002  1
  In  In7  1  0.64962732  -0.03984938  0.03168879  1
  In  In8  1  0.34246487  0.82209106  0.49463595  1
  In  In9  1  -0.00986361  0.48694754  0.16981447  1
  In  In10  1  0.66529086  -0.01622623  0.33600913  1
  In  In11  1  0.16664870  -0.00172636  0.47570910  1
  In  In12  1  0.86648507  0.14047738  0.34090011  1
  In  In13  1  0.66514106  0.02796922  0.65891239  1
  In  In14  1  0.51786132  0.18129914  0.00141531  1
  In  In15  1  0.32188923  -0.02167383  0.00149780  1
  In  In16  1  0.00678840  0.15093528  0.50996621  1
  In  In17  1  0.78962844  0.66019441  0.17315015  1
  In  In18  1  0.82436286  0.33015769  0.16048501  1
  In  In19  1  0.85043446  0.49465901  -0.00128279  1
  In  In20  1  0.15119754  0.33958254  0.82853724  1
  In  In21  1  0.67446712  0.50122367  0.85049977  1
  In  In22  1  0.46185705  -0.00128002  0.17089761  1
  In  In23  1  0.34283662  0.35330923  0.00290640  1
  In  In24  1  0.50798570  0.17035909  0.32794138  1
  In  In25  1  0.50130396  -0.01922310  0.48126180  1
  In  In26  1  0.19039958  0.35207545  0.49210731  1
  In  In27  1  0.50500984  0.49383874  0.65945083  1
  In  In28  1  0.82174066  0.83521900  0.68376891  1
  In  In29  1  0.84450260  0.34480916  0.84891350  1
  In  In30  1  0.34488128  0.34111059  0.32243953  1
  In  In31  1  0.82600460  0.33711860  0.52144930  1
  In  In32  1  0.67808536  0.18545851  0.82680286  1
  In  In33  1  0.85638520  0.52083916  0.66957364  1
  In  In34  1  0.49025206  0.81906790  0.02084778  1
  In  In35  1  0.68030216  0.17037702  0.14581664  1
  In  In36  1  0.67856113  0.82953945  0.46616458  1
  In  In37  1  0.15135256  0.14581187  0.02366357  1
  In  In38  1  0.15858443  0.16681763  0.66803151  1
  In  In39  1  0.03376107  0.65855592  0.65322504  1
  In  In40  1  0.83463049  0.49713113  0.31532833  1
  In  In41  1  0.83309018  0.82545344  0.35594400  1
  In  In42  1  0.01232370  0.16194282  0.82516418  1
  In  In43  1  0.34196013  0.18559439  0.48802219  1
  In  In44  1  0.85413461  0.82131910  0.00591058  1
  In  In45  1  0.02210378  0.82417226  0.49272602  1
  In  In46  1  0.69243825  0.66832987  0.66764643  1
  In  In47  1  0.33019262  0.51061989  0.81192815  1
  In  In48  1  0.21817008  0.84430487  0.80597111  1
  In  In49  1  0.65126185  0.81501719  0.82193012  1
  In  In50  1  0.66606315  0.18021611  0.48068952  1
  In  In51  1  0.48886038  0.50119848  0.34577616  1
  In  In52  1  0.14008021  0.30855846  0.18510916  1
  In  In53  1  0.32884283  0.15794757  0.85697917  1
  In  In54  1  0.48421961  0.66955440  0.84170703  1
  In  In55  1  0.49367743  0.83720328  0.64599081  1
  In  In56  1  0.12339859  0.52594984  -0.01211458  1
  In  In57  1  0.32386856  0.35263312  0.64899237  1
  In  In58  1  0.52806649  0.51860359  0.01510887  1
  In  In59  1  -0.00149232  0.34736845  0.68520263  1
  In  In60  1  0.83619880  0.17560610  -0.00759600  1
  In  In61  1  0.33380881  0.52743710  0.17700823  1
  In  In62  1  0.87380753  -0.01506094  0.51283003  1
  In  In63  1  0.17325212  0.66671236  0.17263019  1
  In  In64  1  0.86419233  0.00235230  0.18955364  1
  In  In65  1  0.82861348  0.66535001  0.49788375  1
  In  In66  1  0.15381077  0.80816578  -0.00451797  1
  In  In67  1  0.01017143  0.83208440  0.83516596  1
  In  In68  1  0.49522580  0.03300528  0.84033358  1
  In  In69  1  0.64937057  0.33181443  0.66986869  1
  In  In70  1  0.85383038  -0.01475527  0.85273699  1
  In  In71  1  0.34290201  0.80702472  0.18928775  1
  Te  Te72  1  0.11738767  0.04456262  0.12434331  1
  Te  Te73  1  0.08516527  0.09692723  0.39614180  1
  Te  Te74  1  0.09667093  0.06049995  0.75298808  1
  Te  Te75  1  0.08625622  0.41138480  0.08032163  1
  Te  Te76  1  0.10654450  0.42525633  0.39685967  1
  Te  Te77  1  0.10084522  0.44292647  0.73454341  1
  Te  Te78  1  0.06416948  0.73428758  0.09291837  1
  Te  Te79  1  0.11018668  0.77585560  0.38251991  1
  Te  Te80  1  0.10323864  0.76243910  0.73716716  1
  Te  Te81  1  0.40702429  0.09314263  0.06633001  1
  Te  Te82  1  0.41428119  0.08085344  0.40301058  1
  Te  Te83  1  0.39587969  0.08432323  0.74772639  1
  Te  Te84  1  0.42533220  0.43442497  0.09872114  1
  Te  Te85  1  0.36092965  0.45487609  0.41949879  1
  Te  Te86  1  0.42339105  0.40718521  0.75247678  1
  Te  Te87  1  0.41743975  0.71348853  0.09698691  1
  Te  Te88  1  0.41080538  0.72645470  0.40181546  1
  Te  Te89  1  0.41003554  0.76485412  0.74889017  1
  Te  Te90  1  0.76543286  0.06244005  0.08087784  1
  Te  Te91  1  0.75799406  0.06340078  0.42701319  1
  Te  Te92  1  0.76169140  0.07496834  0.76552381  1
  Te  Te93  1  0.74589831  0.43125377  0.08703292  1
  Te  Te94  1  0.75136881  0.41300477  0.41319652  1
  Te  Te95  1  0.76065146  0.42125862  0.74314069  1
  Te  Te96  1  0.73702278  0.75741537  0.07086398  1
  Te  Te97  1  0.73405209  0.71143353  0.38834817  1
  Te  Te98  1  0.77304999  0.72940936  0.78020654  1
  Te  Te99  1  0.07375687  0.20866777  0.26749865  1
  Te  Te100  1  0.08605928  0.26836148  0.58062206  1
  Te  Te101  1  0.08345219  0.24753384  0.92715665  1
  Te  Te102  1  0.08761770  0.56944895  0.25411000  1
  Te  Te103  1  0.08463289  0.58980434  0.53474912  1
  Te  Te104  1  0.04331262  0.61388861  0.90327590  1
  Te  Te105  1  0.10428990  0.94532456  0.24756340  1
  Te  Te106  1  0.09016702  0.92328797  0.58097968  1
  Te  Te107  1  0.09198901  0.92007963  0.92092533  1
  Te  Te108  1  0.42421009  0.24847636  0.22930284  1
  Te  Te109  1  0.42078325  0.27600668  0.57081276  1
  Te  Te110  1  0.42470902  0.26197222  0.91231607  1
  Te  Te111  1  0.40406151  0.60718350  0.28027142  1
  Te  Te112  1  0.39664385  0.57482131  0.59065915  1
  Te  Te113  1  0.41076065  0.57131412  0.92587501  1
  Te  Te114  1  0.38153112  0.92628927  0.27160044  1
  Te  Te115  1  0.39979060  0.93642081  0.58631761  1
  Te  Te116  1  0.43329421  0.91734866  0.91617858  1
  Te  Te117  1  0.75400816  0.22323272  0.26776529  1
  Te  Te118  1  0.74638696  0.23353549  0.59729980  1
  Te  Te119  1  0.73787079  0.27485809  0.93212316  1
  Te  Te120  1  0.72649099  0.53072738  0.21851871  1
  Te  Te121  1  0.74478656  0.56354202  0.57316863  1
  Te  Te122  1  0.76565217  0.58795851  0.92043089  1
  Te  Te123  1  0.76036636  0.90654312  0.24684694  1
  Te  Te124  1  0.74123406  0.91439606  0.57961724  1
  Te  Te125  1  0.74388684  0.90130402  0.91467287  1
  Te  Te126  1  0.25197740  0.25156068  0.07609695  1
  Te  Te127  1  0.24636387  0.24875090  0.39020851  1
  Te  Te128  1  0.25360369  0.25316423  0.75487777  1
  Te  Te129  1  0.24016322  0.58336896  0.06570616  1
  Te  Te130  1  0.21359470  0.62581297  0.46821436  1
  Te  Te131  1  0.22741825  0.60430037  0.76641780  1
  Te  Te132  1  0.25246805  0.88052453  0.08965314  1
  Te  Te133  1  0.27446220  0.92153168  0.40630180  1
  Te  Te134  1  0.19961846  0.94734884  0.70505819  1
  Te  Te135  1  0.58910868  0.27068591  0.09223094  1
  Te  Te136  1  0.56658136  0.27592102  0.41816951  1
  Te  Te137  1  0.56892477  0.23431510  0.74493333  1
  Te  Te138  1  0.55260052  0.62659605  0.11850047  1
  Te  Te139  1  0.59037349  0.58153985  0.41772840  1
  Te  Te140  1  0.58189682  0.59692186  0.74545708  1
  Te  Te141  1  0.56271918  0.89029275  0.13441430  1
  Te  Te142  1  0.56322878  0.88121351  0.38168524  1
  Te  Te143  1  0.58307753  0.92589391  0.74082513  1
  Te  Te144  1  0.92240532  0.25591183  0.07950510  1
  Te  Te145  1  0.91586093  0.24940275  0.43239101  1
  Te  Te146  1  0.90846984  0.24515530  0.75236746  1
  Te  Te147  1  0.90988238  0.59127075  0.10009722  1
  Te  Te148  1  0.91917680  0.57639021  0.41492330  1
  Te  Te149  1  0.95144144  0.59155629  0.75843026  1
  Te  Te150  1  0.93681967  0.92336863  0.07985208  1
  Te  Te151  1  0.94366972  0.92177917  0.39726557  1
  Te  Te152  1  0.93112589  0.92233392  0.73805037  1
  Te  Te153  1  0.22774457  0.04931621  0.23509218  1
  Te  Te154  1  0.24588067  0.09823703  0.56558726  1
  Te  Te155  1  0.22757572  0.06379513  0.91806743  1
  Te  Te156  1  0.24350907  0.41285303  0.23077580  1
  Te  Te157  1  0.21451258  0.44323158  0.60800851  1
  Te  Te158  1  0.24152640  0.42692127  0.91658318  1
  Te  Te159  1  0.23614862  0.74978799  0.27731943  1
  Te  Te160  1  0.23231164  0.75257784  0.56876686  1
  Te  Te161  1  0.26178880  0.75329955  0.91061144  1
  Te  Te162  1  0.58892312  0.07489332  0.23916982  1
  Te  Te163  1  0.56933842  0.09249254  0.56175273  1
  Te  Te164  1  0.60775321  0.07635390  0.93334916  1
  Te  Te165  1  0.56256796  0.42236850  0.24360484  1
  Te  Te166  1  0.58738275  0.41600762  0.56729372  1
  Te  Te167  1  0.57234270  0.42134352  0.91515333  1
  Te  Te168  1  0.64743906  0.70966009  0.20302980  1
  Te  Te169  1  0.59905475  0.75182279  0.57793748  1
  Te  Te170  1  0.58539401  0.73589503  0.93246811  1
  Te  Te171  1  0.94824977  0.12539283  0.21459490  1
  Te  Te172  1  0.91935081  0.08512147  0.60728107  1
  Te  Te173  1  0.93966347  0.08045110  0.93222446  1
  Te  Te174  1  0.92426262  0.38610877  0.26170771  1
  Te  Te175  1  0.93376982  0.43010792  0.57471538  1
  Te  Te176  1  0.94817900  0.42574450  0.91115148  1
  Te  Te177  1  0.91160299  0.74540807  0.25085814  1
  Te  Te178  1  0.91283355  0.75647377  0.58364947  1
  Te  Te179  1  0.93982881  0.73082648  0.92255607  1
