# generated using pymatgen
data_In2Te3
_symmetry_space_group_name_H-M   'P 1'
_cell_length_a   18.76763724
_cell_length_b   18.77511056
_cell_length_c   18.76174473
_cell_angle_alpha   90.06279544
_cell_angle_beta   89.91847770
_cell_angle_gamma   90.06780440
_symmetry_Int_Tables_number   1
_chemical_formula_structural   In2Te3
_chemical_formula_sum   'In72 Te108'
_cell_volume   6610.95684959
_cell_formula_units_Z   36
loop_
 _symmetry_equiv_pos_site_id
 _symmetry_equiv_pos_as_xyz
  1  'x, y, z'
loop_
 _atom_site_type_symbol
 _atom_site_label
 _atom_site_symmetry_multiplicity
 _atom_site_fract_x
 _atom_site_fract_y
 _atom_site_fract_z
 _atom_site_occupancy
  In  In0  1  0.48955007  0.36817161  0.80398343  1
  In  In1  1  0.01984052  0.02682728  -0.01911015  1
  In  In2  1  -0.02111753  0.34639551  -0.00572231  1
  In  In3  1  0.84825848  0.00828305  0.83406671  1
  In  In4  1  0.81057921  0.63310366  0.19138380  1
  In  In5  1  0.30788198  0.83625580  0.81780243  1
  In  In6  1  0.14423597  0.49784274  0.34433379  1
  In  In7  1  0.35943908  0.64209154  0.00747628  1
  In  In8  1  0.67212120  0.17244396  0.83904544  1
  In  In9  1  0.34224734  0.68072823  0.32135402  1
  In  In10  1  0.65903443  0.81949751  0.16809406  1
  In  In11  1  0.34289266  -0.01744492  0.00494794  1
  In  In12  1  0.15677729  0.34096082  0.81833474  1
  In  In13  1  0.34056426  0.66397283  0.63965591  1
  In  In14  1  0.31224693  0.14522115  0.22343841  1
  In  In15  1  0.49483345  0.81810620  -0.02759441  1
  In  In16  1  0.66538287  0.34173265  0.01024018  1
  In  In17  1  0.34910370  0.48442908  0.51745924  1
  In  In18  1  0.15389248  0.67258833  0.82526708  1
  In  In19  1  0.51649770  0.49965233  -0.01071051  1
  In  In20  1  0.33206640  0.32318600  0.34661690  1
  In  In21  1  -0.02152551  0.47308680  0.51517294  1
  In  In22  1  0.51378829  0.16953909  -0.00352935  1
  In  In23  1  0.17606660  0.51528668  -0.00479852  1
  In  In24  1  -0.00614043  0.66684469  0.67900737  1
  In  In25  1  0.84578787  0.81776814  0.33828416  1
  In  In26  1  0.64641529  -0.00126674  0.33272373  1
  In  In27  1  0.63850587  0.02401143  0.64824868  1
  In  In28  1  -0.01199021  0.49059251  0.18149082  1
  In  In29  1  0.83210738  0.19481515  0.34849683  1
  In  In30  1  0.17831053  0.67467154  0.48843592  1
  In  In31  1  -0.00695160  0.84731228  0.18272648  1
  In  In32  1  0.31671431  0.32902503  -0.00957798  1
  In  In33  1  0.66975602  0.01891420  0.00245449  1
  In  In34  1  0.17045956  0.49217242  0.65744679  1
  In  In35  1  0.82266438  0.01603078  0.14982823  1
  In  In36  1  0.84480095  0.81408763  -0.01355980  1
  In  In37  1  0.32847399  0.15824656  0.81315465  1
  In  In38  1  0.50985672  0.63729603  0.50085686  1
  In  In39  1  0.47840616  0.16736706  0.65582082  1
  In  In40  1  0.17715892  0.84580069  0.01407901  1
  In  In41  1  0.50003313  0.84153794  0.32025800  1
  In  In42  1  0.49717600  0.00022359  0.18044573  1
  In  In43  1  0.31049626  0.85885128  0.47926726  1
  In  In44  1  0.83177443  0.01108565  0.49230745  1
  In  In45  1  -0.00705849  0.18694891  0.49198557  1
  In  In46  1  0.02332564  0.02147453  0.34205502  1
  In  In47  1  0.65734927  0.81650637  0.48802626  1
  In  In48  1  0.82305014  0.62219217  0.84817521  1
  In  In49  1  0.14604675  0.32583320  0.19810591  1
  In  In50  1  0.83036875  0.34685458  0.82564378  1
  In  In51  1  0.02031813  0.00304201  0.65625650  1
  In  In52  1  0.48183915  0.83636824  0.64334311  1
  In  In53  1  0.82221060  0.61226139  0.51353098  1
  In  In54  1  0.82777825  0.34444599  0.18404151  1
  In  In55  1  0.52201051  0.65142757  0.15080890  1
  In  In56  1  0.33715020  0.85063972  0.20369943  1
  In  In57  1  0.15215084  0.17634043  0.02372957  1
  In  In58  1  0.81976933  0.22258244  0.65679895  1
  In  In59  1  -0.00649223  0.65912643  -0.00341019  1
  In  In60  1  0.66823137  0.34844920  0.64709525  1
  In  In61  1  0.83237432  0.82868256  0.67060073  1
  In  In62  1  0.53065994  0.63567183  0.80342949  1
  In  In63  1  0.03377318  0.82751126  0.51610091  1
  In  In64  1  0.51320408  0.34151902  0.21735987  1
  In  In65  1  0.16437285  0.17221621  0.65004296  1
  In  In66  1  0.52453313  0.47755528  0.34275764  1
  In  In67  1  0.34063683  0.15466801  0.48754618  1
  In  In68  1  0.01814143  0.18899782  0.18373287  1
  In  In69  1  0.66393393  0.80906821  0.82357375  1
  In  In70  1  0.16689301  0.00187276  0.82640273  1
  In  In71  1  0.33722699  0.49960684  0.13829435  1
  Te  Te72  1  0.08567997  0.07072012  0.11258559  1
  Te  Te73  1  0.10057571  0.09119173  0.44940817  1
  Te  Te74  1  0.07468492  0.10179615  0.75965032  1
  Te  Te75  1  0.09802952  0.41000042  0.07695379  1
  Te  Te76  1  0.09063134  0.40347955  0.44199980  1
  Te  Te77  1  0.06651814  0.43105647  0.74421617  1
  Te  Te78  1  0.07269697  0.75701085  0.08332303  1
  Te  Te79  1  0.07981021  0.74434418  0.40346487  1
  Te  Te80  1  0.09087049  0.76621666  0.73117388  1
  Te  Te81  1  0.41180879  0.09358971  0.08641550  1
  Te  Te82  1  0.43642009  0.07364599  0.40712612  1
  Te  Te83  1  0.41763428  0.06421815  0.74388971  1
  Te  Te84  1  0.43327896  0.39902627  0.07574525  1
  Te  Te85  1  0.43935369  0.38909172  0.43590484  1
  Te  Te86  1  0.40353042  0.42463699  0.70092063  1
  Te  Te87  1  0.41813098  0.76071353  0.09752857  1
  Te  Te88  1  0.42305791  0.75205435  0.43004189  1
  Te  Te89  1  0.42062040  0.74277216  0.75605297  1
  Te  Te90  1  0.73611306  0.11775697  0.08854641  1
  Te  Te91  1  0.73252156  0.09406980  0.41618615  1
  Te  Te92  1  0.75057761  0.08318313  0.73970643  1
  Te  Te93  1  0.76727731  0.42627324  0.07603456  1
  Te  Te94  1  0.71149878  0.40257337  0.45030402  1
  Te  Te95  1  0.75142960  0.44235489  0.73568003  1
  Te  Te96  1  0.75822143  0.73875003  0.08619281  1
  Te  Te97  1  0.75908817  0.72592751  0.42227530  1
  Te  Te98  1  0.75476752  0.72016947  0.74187290  1
  Te  Te99  1  0.07494785  0.25188369  0.30480443  1
  Te  Te100  1  0.06788527  0.26969711  0.59205121  1
  Te  Te101  1  0.07637340  0.25323423  0.91833244  1
  Te  Te102  1  0.08853260  0.58252837  0.23931605  1
  Te  Te103  1  0.07854703  0.59084326  0.56936685  1
  Te  Te104  1  0.07001683  0.56808622  0.89920436  1
  Te  Te105  1  0.09463154  0.90685118  0.27546901  1
  Te  Te106  1  0.11702066  0.94180886  0.56171501  1
  Te  Te107  1  0.08147736  0.90582896  0.91084356  1
  Te  Te108  1  0.43106403  0.22435793  0.27941048  1
  Te  Te109  1  0.41322421  0.26332874  0.56372596  1
  Te  Te110  1  0.42323665  0.25457537  0.90409313  1
  Te  Te111  1  0.42635750  0.57226987  0.24781155  1
  Te  Te112  1  0.44874390  0.55298088  0.62098553  1
  Te  Te113  1  0.42041895  0.56761814  0.89052832  1
  Te  Te114  1  0.40330285  0.96511390  0.29901853  1
  Te  Te115  1  0.40180486  0.93560778  0.56912014  1
  Te  Te116  1  0.41998453  0.91976652  0.88945940  1
  Te  Te117  1  0.72701977  0.26181939  0.26467593  1
  Te  Te118  1  0.71661927  0.24124112  0.55165688  1
  Te  Te119  1  0.76272119  0.25240496  0.92788325  1
  Te  Te120  1  0.72700457  0.55309079  0.28250104  1
  Te  Te121  1  0.71287250  0.54934185  0.59691231  1
  Te  Te122  1  0.71076492  0.58768271  0.93759711  1
  Te  Te123  1  0.75376921  0.90751704  0.25211774  1
  Te  Te124  1  0.74360878  0.91638013  0.57882069  1
  Te  Te125  1  0.74589820  0.91020973  0.91428869  1
  Te  Te126  1  0.25986047  0.24830709  0.11112650  1
  Te  Te127  1  0.23506816  0.23320339  0.41267221  1
  Te  Te128  1  0.26010073  0.26601526  0.73349585  1
  Te  Te129  1  0.23896422  0.60905882  0.09852942  1
  Te  Te130  1  0.27411104  0.57430329  0.41604226  1
  Te  Te131  1  0.25308787  0.59048219  0.74253026  1
  Te  Te132  1  0.24617018  0.93810725  0.11518593  1
  Te  Te133  1  0.22897485  0.93495169  0.37995116  1
  Te  Te134  1  0.25615345  0.93957014  0.72625045  1
  Te  Te135  1  0.57952492  0.25570922  0.10269400  1
  Te  Te136  1  0.63049351  0.29705014  0.38898571  1
  Te  Te137  1  0.58440904  0.25422772  0.74497562  1
  Te  Te138  1  0.62249800  0.57114479  0.07218220  1
  Te  Te139  1  0.61175089  0.58727048  0.40184615  1
  Te  Te140  1  0.63022919  0.55013389  0.73231466  1
  Te  Te141  1  0.57582123  0.90969852  0.07575076  1
  Te  Te142  1  0.56312294  0.92259299  0.43587942  1
  Te  Te143  1  0.58670423  0.90685569  0.73598801  1
  Te  Te144  1  0.91414278  0.24873047  0.09347571  1
  Te  Te145  1  0.89215264  0.29266418  0.44868290  1
  Te  Te146  1  0.92912785  0.26930108  0.74351429  1
  Te  Te147  1  0.90307202  0.57046532  0.08233397  1
  Te  Te148  1  0.91215536  0.55631640  0.41007718  1
  Te  Te149  1  0.90255954  0.56458304  0.73539227  1
  Te  Te150  1  0.91574923  0.92332896  0.06978862  1
  Te  Te151  1  0.92905964  0.91634522  0.42215973  1
  Te  Te152  1  0.93216052  0.91412761  0.74795893  1
  Te  Te153  1  0.21617014  0.07764299  0.31417057  1
  Te  Te154  1  0.26312021  0.07763462  0.59161718  1
  Te  Te155  1  0.24837513  0.08871530  0.93259322  1
  Te  Te156  1  0.26243368  0.42216859  0.24815870  1
  Te  Te157  1  0.24089571  0.39747396  0.56763311  1
  Te  Te158  1  0.25834105  0.43165362  0.89621971  1
  Te  Te159  1  0.23577431  0.75376838  0.25152181  1
  Te  Te160  1  0.24470986  0.76901492  0.58888915  1
  Te  Te161  1  0.25966080  0.74277908  0.93185756  1
  Te  Te162  1  0.59654534  0.09579398  0.23334948  1
  Te  Te163  1  0.56747650  0.10740056  0.55004608  1
  Te  Te164  1  0.57263899  0.06969523  0.89615817  1
  Te  Te165  1  0.62245921  0.44848081  0.22722510  1
  Te  Te166  1  0.59768411  0.43782632  0.54789253  1
  Te  Te167  1  0.60376740  0.41960153  0.89130665  1
  Te  Te168  1  0.58927676  0.72923322  0.26817283  1
  Te  Te169  1  0.58606278  0.73358188  0.59390304  1
  Te  Te170  1  0.59643586  0.71460288  0.92575383  1
  Te  Te171  1  0.90446396  0.08176102  0.26122354  1
  Te  Te172  1  0.90897218  0.09384558  0.59384271  1
  Te  Te173  1  0.90839917  0.10535225  0.92677919  1
  Te  Te174  1  0.91826592  0.40979236  0.28335526  1
  Te  Te175  1  0.89948079  0.36755826  0.58884398  1
  Te  Te176  1  0.90302621  0.44363335  0.91385195  1
  Te  Te177  1  0.92379578  0.72521013  0.24649464  1
  Te  Te178  1  0.90773222  0.74409755  0.56706610  1
  Te  Te179  1  0.92519723  0.73856923  0.88491638  1
