# generated using pymatgen
data_In2Te3
_symmetry_space_group_name_H-M   'P 1'
_cell_length_a   18.77564812
_cell_length_b   18.77740465
_cell_length_c   18.77869813
_cell_angle_alpha   89.98721149
_cell_angle_beta   89.87549295
_cell_angle_gamma   90.00092176
_symmetry_Int_Tables_number   1
_chemical_formula_structural   In2Te3
_chemical_formula_sum   'In72 Te108'
_cell_volume   6620.56337663
_cell_formula_units_Z   36
loop_
 _symmetry_equiv_pos_site_id
 _symmetry_equiv_pos_as_xyz
  1  'x, y, z'
loop_
 _atom_site_type_symbol
 _atom_site_label
 _atom_site_symmetry_multiplicity
 _atom_site_fract_x
 _atom_site_fract_y
 _atom_site_fract_z
 _atom_site_occupancy
  In  In0  1  0.65571589  0.17818577  0.81408267  1
  In  In1  1  0.32787343  0.65339885  0.33608886  1
  In  In2  1  0.16980347  0.00992544  0.85346017  1
  In  In3  1  0.02529377  0.51618835  0.19204622  1
  In  In4  1  0.19276599  0.66629514  0.81163918  1
  In  In5  1  0.65146101  0.32972945  0.66108836  1
  In  In6  1  -0.00404651  0.18777168  0.82878162  1
  In  In7  1  0.01796342  0.16786393  0.48830923  1
  In  In8  1  0.32407408  0.50206228  0.16034684  1
  In  In9  1  -0.00498711  0.83047930  0.49062628  1
  In  In10  1  0.48840984  0.67716814  0.18463338  1
  In  In11  1  0.50343295  0.19173560  0.34009942  1
  In  In12  1  0.16810521  0.17254779  0.00597521  1
  In  In13  1  0.84178895  0.49406487  0.34087316  1
  In  In14  1  0.32584724  0.33921403  -0.01966963  1
  In  In15  1  0.16360512  0.33835402  0.18026838  1
  In  In16  1  0.49435857  0.02639194  0.83181155  1
  In  In17  1  0.49598825  0.83607519  0.34519274  1
  In  In18  1  0.18027912  0.84098505  0.33265318  1
  In  In19  1  0.82456558  -0.00085850  0.49461949  1
  In  In20  1  0.62002014  0.02199889  0.63719115  1
  In  In21  1  0.13796313  0.35838631  0.48980139  1
  In  In22  1  0.84202056  0.50156494  -0.00184905  1
  In  In23  1  0.64671436  0.66395983  0.65382950  1
  In  In24  1  0.84126556  0.46989479  0.66525771  1
  In  In25  1  0.36242491  0.33757912  0.33451100  1
  In  In26  1  0.03858399  0.67126282  -0.02362578  1
  In  In27  1  0.47659526  0.49284317  0.66943586  1
  In  In28  1  0.82675350  0.63908605  0.84227774  1
  In  In29  1  0.67044385  0.01746554  -0.03105254  1
  In  In30  1  0.82546285  0.17536499  0.68366415  1
  In  In31  1  0.00865218  -0.01786131  0.66316618  1
  In  In32  1  0.17077314  0.15777288  0.32581418  1
  In  In33  1  0.48700658  0.65067019  0.50387492  1
  In  In34  1  0.85383808  0.82933956  0.02343513  1
  In  In35  1  0.66275848  0.49740702  0.50094894  1
  In  In36  1  0.33982259  0.16426076  0.49429844  1
  In  In37  1  0.80819673  0.32372139  0.17618345  1
  In  In38  1  0.34392085  0.82950709  0.82171139  1
  In  In39  1  0.65474552  0.18665908  0.17222314  1
  In  In40  1  0.01323916  0.32663645  0.00132443  1
  In  In41  1  0.64824884  0.32590037  -0.00565962  1
  In  In42  1  0.65814672  0.85576777  0.81107250  1
  In  In43  1  0.84293089  0.66700174  0.47196903  1
  In  In44  1  0.01853455  0.16013222  0.16642002  1
  In  In45  1  0.29838648  0.86103896  0.15122174  1
  In  In46  1  0.50247596  0.49082714  -0.01095156  1
  In  In47  1  0.32073266  0.65417628  0.00622318  1
  In  In48  1  0.33761774  0.33757784  0.66215849  1
  In  In49  1  0.65471233  -0.00457902  0.35225624  1
  In  In50  1  0.17296743  0.49610243  0.66087957  1
  In  In51  1  0.83620991  0.15151583  -0.02171994  1
  In  In52  1  0.85358217  0.01474154  0.18921606  1
  In  In53  1  0.84409019  0.33128674  0.50549884  1
  In  In54  1  0.17916195  0.65760102  0.51162935  1
  In  In55  1  0.85308797  0.04108139  0.84650692  1
  In  In56  1  0.36078316  0.00872936  0.64631103  1
  In  In57  1  0.48048172  0.65641509  0.81770378  1
  In  In58  1  0.83258547  0.83225394  0.64865285  1
  In  In59  1  0.50010246  0.84168932  -0.02599512  1
  In  In60  1  0.03485598  0.85158858  0.83204048  1
  In  In61  1  0.17019205  0.81907112  0.66642635  1
  In  In62  1  0.62798156  0.84531602  0.18244623  1
  In  In63  1  0.62914756  0.46371775  0.20386005  1
  In  In64  1  0.19180151  0.18211733  0.65784904  1
  In  In65  1  0.01954231  0.48793918  0.82507884  1
  In  In66  1  0.68255377  0.65273714  0.00220340  1
  In  In67  1  0.83702632  0.64696110  0.18906246  1
  In  In68  1  0.45797513  0.03798945  0.14384250  1
  In  In69  1  0.01947271  0.83869725  0.17605835  1
  In  In70  1  0.31845765  -0.00448635  0.33296050  1
  In  In71  1  0.83548783  0.81827961  0.34548874  1
  Te  Te72  1  0.12322774  0.06678662  0.10850493  1
  Te  Te73  1  0.09603662  0.06561950  0.41576769  1
  Te  Te74  1  0.08440423  0.08740573  0.74392187  1
  Te  Te75  1  0.09189947  0.43032055  0.08131420  1
  Te  Te76  1  0.06815561  0.45348014  0.39509777  1
  Te  Te77  1  0.10514492  0.39571569  0.74777791  1
  Te  Te78  1  0.09659594  0.73954083  0.09404755  1
  Te  Te79  1  0.09321454  0.74437199  0.41344333  1
  Te  Te80  1  0.07069518  0.73288158  0.74560405  1
  Te  Te81  1  0.38414100  0.10634992  0.03404792  1
  Te  Te82  1  0.42553088  0.07264563  0.40767814  1
  Te  Te83  1  0.40965584  0.10956888  0.74299556  1
  Te  Te84  1  0.42109774  0.40957827  0.08893934  1
  Te  Te85  1  0.45859496  0.41347426  0.41701752  1
  Te  Te86  1  0.41700330  0.40255724  0.77217578  1
  Te  Te87  1  0.41870568  0.75927198  0.07500982  1
  Te  Te88  1  0.39439504  0.75706172  0.42532984  1
  Te  Te89  1  0.41259129  0.74553764  0.72100193  1
  Te  Te90  1  0.74817381  0.08164810  0.08744880  1
  Te  Te91  1  0.74756156  0.09436118  0.41052482  1
  Te  Te92  1  0.73388048  0.05928816  0.74838196  1
  Te  Te93  1  0.73898253  0.42895121  0.08759966  1
  Te  Te94  1  0.74241253  0.40229608  0.41223497  1
  Te  Te95  1  0.74494902  0.40047106  0.75175094  1
  Te  Te96  1  0.74547873  0.75154229  0.10087923  1
  Te  Te97  1  0.73493294  0.75902635  0.43580640  1
  Te  Te98  1  0.75133120  0.73996170  0.75273012  1
  Te  Te99  1  0.06976753  0.26178089  0.27067360  1
  Te  Te100  1  0.07814562  0.26129580  0.59331380  1
  Te  Te101  1  0.10777174  0.26634456  0.89899331  1
  Te  Te102  1  0.11133334  0.56842471  0.30009514  1
  Te  Te103  1  0.07695612  0.58192228  0.58824797  1
  Te  Te104  1  0.12647408  0.55854489  0.91391414  1
  Te  Te105  1  0.08708489  0.93541490  0.26499088  1
  Te  Te106  1  0.10029132  0.91245594  0.56582225  1
  Te  Te107  1  0.10522741  0.91058779  0.94743162  1
  Te  Te108  1  0.39857229  0.22716351  0.24228921  1
  Te  Te109  1  0.43007757  0.24393651  0.58336035  1
  Te  Te110  1  0.41767880  0.22921608  0.94312367  1
  Te  Te111  1  0.42576481  0.56252640  0.26105722  1
  Te  Te112  1  0.38543894  0.57800617  0.58746847  1
  Te  Te113  1  0.39603122  0.56578326  0.90780060  1
  Te  Te114  1  0.41986419  0.90991255  0.23197724  1
  Te  Te115  1  0.45880104  0.92511985  0.57439003  1
  Te  Te116  1  0.39938815  0.93717877  0.91662381  1
  Te  Te117  1  0.73914459  0.24443089  0.27906640  1
  Te  Te118  1  0.74161842  0.23792938  0.57432829  1
  Te  Te119  1  0.75353090  0.25528629  0.90445116  1
  Te  Te120  1  0.73152375  0.56897611  0.26305403  1
  Te  Te121  1  0.76019027  0.58489821  0.58439076  1
  Te  Te122  1  0.72562918  0.54303680  0.90498598  1
  Te  Te123  1  0.75339640  0.91162363  0.24760009  1
  Te  Te124  1  0.72802768  0.91962015  0.58317722  1
  Te  Te125  1  0.76168818  0.90423116  0.92177036  1
  Te  Te126  1  0.25784973  0.25606575  0.09723069  1
  Te  Te127  1  0.24198966  0.25743874  0.42162625  1
  Te  Te128  1  0.26636269  0.25237828  0.76301786  1
  Te  Te129  1  0.22552508  0.60065015  0.10713883  1
  Te  Te130  1  0.24547094  0.55894542  0.41688507  1
  Te  Te131  1  0.27930246  0.57873212  0.72897472  1
  Te  Te132  1  0.22332200  0.95209015  0.06410002  1
  Te  Te133  1  0.27207816  0.89911507  0.43453388  1
  Te  Te134  1  0.24693204  0.92734314  0.74631946  1
  Te  Te135  1  0.55833550  0.26972371  0.09807428  1
  Te  Te136  1  0.59925425  0.22019648  0.44826342  1
  Te  Te137  1  0.55128618  0.25011593  0.73971063  1
  Te  Te138  1  0.57791453  0.58593616  0.09256647  1
  Te  Te139  1  0.57408684  0.57459714  0.41071846  1
  Te  Te140  1  0.58538064  0.56562252  0.75154121  1
  Te  Te141  1  0.57942977  0.93451512  0.06679147  1
  Te  Te142  1  0.56310096  0.92330673  0.44816418  1
  Te  Te143  1  0.54518859  0.91825627  0.73301030  1
  Te  Te144  1  0.90840665  0.24670176  0.08372586  1
  Te  Te145  1  0.92195155  0.24746518  0.40909815  1
  Te  Te146  1  0.91591312  0.27597917  0.74138183  1
  Te  Te147  1  0.93225055  0.59446146  0.07859129  1
  Te  Te148  1  0.94398091  0.57067005  0.42019080  1
  Te  Te149  1  0.92336808  0.57518346  0.74475524  1
  Te  Te150  1  0.93650934  0.93918197  0.08531635  1
  Te  Te151  1  0.92372419  0.93050847  0.40034490  1
  Te  Te152  1  0.90766845  0.91360838  0.75849030  1
  Te  Te153  1  0.26347816  0.08823210  0.23116938  1
  Te  Te154  1  0.24250811  0.07036666  0.56827058  1
  Te  Te155  1  0.26687825  0.10936992  0.90970659  1
  Te  Te156  1  0.25168416  0.42281255  0.27080788  1
  Te  Te157  1  0.26165424  0.41586124  0.55565544  1
  Te  Te158  1  0.22959006  0.44104492  0.93895563  1
  Te  Te159  1  0.25129360  0.74415631  0.23581223  1
  Te  Te160  1  0.27312346  0.74336050  0.59293943  1
  Te  Te161  1  0.24889316  0.75886118  0.91935574  1
  Te  Te162  1  0.57622281  0.07007625  0.24398946  1
  Te  Te163  1  0.54923354  0.12929731  0.55879881  1
  Te  Te164  1  0.56840128  0.12126866  0.93144423  1
  Te  Te165  1  0.54364394  0.37601457  0.29495205  1
  Te  Te166  1  0.55696720  0.40850792  0.56708823  1
  Te  Te167  1  0.55815907  0.39026034  0.89472471  1
  Te  Te168  1  0.59343528  0.73444332  0.28086595  1
  Te  Te169  1  0.56411359  0.75683028  0.57687995  1
  Te  Te170  1  0.58860414  0.73732359  0.90629598  1
  Te  Te171  1  0.92127170  0.11582453  0.27116672  1
  Te  Te172  1  0.91453046  0.08189342  0.59425867  1
  Te  Te173  1  0.96796991  0.08285838  0.93831146  1
  Te  Te174  1  0.91921417  0.41347813  0.23670910  1
  Te  Te175  1  0.94157143  0.42579078  0.56629540  1
  Te  Te176  1  0.91838346  0.40541340  0.90968726  1
  Te  Te177  1  0.93438679  0.73658189  0.26188146  1
  Te  Te178  1  0.92874768  0.73395599  0.58736363  1
  Te  Te179  1  0.91841365  0.74434597  0.91189794  1
