# generated using pymatgen
data_In2Te3
_symmetry_space_group_name_H-M   'P 1'
_cell_length_a   18.77883023
_cell_length_b   18.78215116
_cell_length_c   18.78257316
_cell_angle_alpha   90.04551615
_cell_angle_beta   90.05526038
_cell_angle_gamma   90.00864184
_symmetry_Int_Tables_number   1
_chemical_formula_structural   In2Te3
_chemical_formula_sum   'In72 Te108'
_cell_volume   6624.73655124
_cell_formula_units_Z   36
loop_
 _symmetry_equiv_pos_site_id
 _symmetry_equiv_pos_as_xyz
  1  'x, y, z'
loop_
 _atom_site_type_symbol
 _atom_site_label
 _atom_site_symmetry_multiplicity
 _atom_site_fract_x
 _atom_site_fract_y
 _atom_site_fract_z
 _atom_site_occupancy
  In  In0  1  0.18318059  0.66151252  0.14275315  1
  In  In1  1  -0.01005489  0.69404641  0.65654328  1
  In  In2  1  0.00946545  0.16075636  0.46810397  1
  In  In3  1  0.01457118  0.50013991  0.47074700  1
  In  In4  1  0.65541891  0.16781402  0.52470159  1
  In  In5  1  0.82438465  0.17894091  0.33711778  1
  In  In6  1  0.34533085  0.84349371  0.15196884  1
  In  In7  1  0.83383732  0.15575607  0.69096047  1
  In  In8  1  0.64598652  0.65214234  0.66544660  1
  In  In9  1  0.65204560  -0.00957038  0.31903861  1
  In  In10  1  0.83248518  0.34239435  0.47504109  1
  In  In11  1  0.84482062  0.82987926  0.02208864  1
  In  In12  1  -0.00990668  0.84833720  0.51862778  1
  In  In13  1  0.17952526  0.16946170  0.68064170  1
  In  In14  1  0.66170982  0.82530205  0.83575648  1
  In  In15  1  0.01624288  0.16390570  0.14946731  1
  In  In16  1  0.67877945  0.33580347  0.33216951  1
  In  In17  1  0.64051710  0.33486097  0.66451814  1
  In  In18  1  0.20610468  0.50646914  0.67751512  1
  In  In19  1  0.01934060  0.50223848  0.83558652  1
  In  In20  1  0.01301049  0.01267186  0.35003426  1
  In  In21  1  0.67390934  0.67001250  -0.00336254  1
  In  In22  1  0.50932017  0.82132981  0.35687911  1
  In  In23  1  0.02373665  0.65265758  -0.00350842  1
  In  In24  1  0.81861997  0.50153078  0.65257772  1
  In  In25  1  0.16556072  0.48033022  0.31220712  1
  In  In26  1  -0.00442642  0.86860143  0.18241075  1
  In  In27  1  -0.02040015  0.65494374  0.32964831  1
  In  In28  1  0.31191704  0.33065415  0.00882572  1
  In  In29  1  0.49601634  0.82458364  0.67701679  1
  In  In30  1  0.32048705  0.82167352  0.48913863  1
  In  In31  1  0.01569668  0.32899456  0.00148905  1
  In  In32  1  0.50173143  0.34338098  0.82339733  1
  In  In33  1  0.83298399  -0.00559839  0.51301375  1
  In  In34  1  0.65365049  -0.00024680  0.01027386  1
  In  In35  1  0.48909138  0.01392021  0.47659818  1
  In  In36  1  0.46934668  0.32459426  0.53785397  1
  In  In37  1  0.01427130  -0.02096602  0.67707530  1
  In  In38  1  0.82015309  0.66462034  0.83977457  1
  In  In39  1  0.67575218  0.16758790  0.15533830  1
  In  In40  1  0.00830706  0.84477607  0.80626723  1
  In  In41  1  -0.01353543  0.44356617  0.18063293  1
  In  In42  1  0.49755774  0.69231161  0.17036628  1
  In  In43  1  0.79252309  0.31620149  0.85276872  1
  In  In44  1  0.80303627  0.00675339  0.16743806  1
  In  In45  1  0.14994190  0.82662119  0.64786943  1
  In  In46  1  0.35095420  0.49069720  0.50068332  1
  In  In47  1  -0.00481662  0.30829457  0.67012464  1
  In  In48  1  0.81213138  0.66897485  0.16937796  1
  In  In49  1  0.16037464  0.32151126  0.16286854  1
  In  In50  1  0.49615577  0.15799253  0.32143659  1
  In  In51  1  0.48537845  0.50852575  -0.03985349  1
  In  In52  1  0.67788569  0.50054446  0.16460235  1
  In  In53  1  0.52368030  0.50687731  0.36232171  1
  In  In54  1  0.34486742  0.67676491  0.33089622  1
  In  In55  1  0.86061350  0.01833511  0.85148306  1
  In  In56  1  0.67218979  -0.00320422  0.67043062  1
  In  In57  1  0.13957286  0.85426907  0.32597366  1
  In  In58  1  0.16302099  0.30707876  0.85132637  1
  In  In59  1  0.33603395  0.01721804  0.67313709  1
  In  In60  1  0.17926501  0.85316501  0.00183461  1
  In  In61  1  0.49851819  0.84784947  -0.00340525  1
  In  In62  1  0.34811312  0.82704134  0.83964216  1
  In  In63  1  0.33197045  0.01691288  0.31709256  1
  In  In64  1  0.47915510  0.14391846  0.02634700  1
  In  In65  1  0.48994469  0.50126010  0.67664337  1
  In  In66  1  0.83317236  0.50597746  0.00546914  1
  In  In67  1  0.32450576  0.16590219  0.83467220  1
  In  In68  1  0.31883768  0.49576301  0.15826545  1
  In  In69  1  0.49441262  0.29986160  0.16337291  1
  In  In70  1  0.17222979  0.66411552  0.51094852  1
  In  In71  1  0.17482583  0.00657986  0.84427060  1
  Te  Te72  1  0.08994453  0.04950990  0.09385127  1
  Te  Te73  1  0.12158751  0.11255660  0.38113687  1
  Te  Te74  1  0.07524028  0.09060319  0.75979742  1
  Te  Te75  1  0.09732018  0.43370750  0.07856407  1
  Te  Te76  1  0.10507504  0.39058797  0.41747418  1
  Te  Te77  1  0.09297045  0.40395799  0.74230480  1
  Te  Te78  1  0.07501475  0.76784850  0.09430048  1
  Te  Te79  1  0.07974218  0.74825310  0.42099551  1
  Te  Te80  1  0.09775594  0.73155985  0.75879069  1
  Te  Te81  1  0.38849724  0.06418507  0.11541796  1
  Te  Te82  1  0.39019652  0.12223586  0.43058786  1
  Te  Te83  1  0.42734820  0.08264151  0.76781051  1
  Te  Te84  1  0.42878700  0.41593610  0.08076754  1
  Te  Te85  1  0.42643139  0.39621600  0.40798924  1
  Te  Te86  1  0.39825319  0.39547579  0.72926545  1
  Te  Te87  1  0.40269479  0.73702513  0.06089849  1
  Te  Te88  1  0.43174828  0.72324259  0.44683359  1
  Te  Te89  1  0.42372968  0.72175714  0.76066260  1
  Te  Te90  1  0.77204066  0.10343753  0.04838826  1
  Te  Te91  1  0.73760542  0.08447285  0.42085922  1
  Te  Te92  1  0.73737435  0.08306182  0.78119593  1
  Te  Te93  1  0.75980603  0.40663484  0.08564309  1
  Te  Te94  1  0.73483006  0.43893196  0.42257048  1
  Te  Te95  1  0.73761629  0.41661706  0.74921659  1
  Te  Te96  1  0.72505508  0.77312254  0.09664742  1
  Te  Te97  1  0.71416324  0.70669870  0.36766313  1
  Te  Te98  1  0.75178288  0.75100417  0.73905621  1
  Te  Te99  1  0.09260959  0.23059099  0.26020782  1
  Te  Te100  1  0.08897270  0.23920253  0.57359184  1
  Te  Te101  1  0.08015269  0.20965300  0.93323667  1
  Te  Te102  1  0.08686707  0.58909224  0.23836232  1
  Te  Te103  1  0.08235583  0.57489681  0.59662088  1
  Te  Te104  1  0.11994779  0.57862888  0.91272727  1
  Te  Te105  1  0.11176817  0.96580433  0.21925041  1
  Te  Te106  1  0.10279317  0.94265940  0.55777806  1
  Te  Te107  1  0.06794559  0.92485893  0.91963032  1
  Te  Te108  1  0.38993328  0.24183463  0.25288679  1
  Te  Te109  1  0.38645336  0.20759246  0.56802019  1
  Te  Te110  1  0.41855121  0.25354485  0.92857605  1
  Te  Te111  1  0.42490237  0.57521448  0.24983926  1
  Te  Te112  1  0.42299648  0.59225323  0.57959700  1
  Te  Te113  1  0.40344969  0.58698515  0.86695594  1
  Te  Te114  1  0.42717676  0.91055725  0.26304457  1
  Te  Te115  1  0.41123510  0.91522301  0.57295498  1
  Te  Te116  1  0.41171567  0.93647827  0.91582577  1
  Te  Te117  1  0.76659658  0.26825685  0.22664521  1
  Te  Te118  1  0.76725255  0.25141719  0.58836593  1
  Te  Te119  1  0.73837370  0.22117793  0.94736284  1
  Te  Te120  1  0.75434156  0.57444060  0.27104776  1
  Te  Te121  1  0.74304416  0.59336971  0.56738351  1
  Te  Te122  1  0.73100698  0.56125646  0.90550011  1
  Te  Te123  1  0.75704607  0.90415782  0.26280750  1
  Te  Te124  1  0.74146343  0.90088712  0.58083691  1
  Te  Te125  1  0.75664206  0.91165202  0.92189302  1
  Te  Te126  1  0.23282069  0.22361504  0.07451126  1
  Te  Te127  1  0.24246250  0.31823518  0.44415242  1
  Te  Te128  1  0.27173178  0.27520515  0.74156540  1
  Te  Te129  1  0.27184287  0.58662651  0.05247731  1
  Te  Te130  1  0.24762340  0.57999598  0.40533836  1
  Te  Te131  1  0.29402452  0.59502385  0.75345625  1
  Te  Te132  1  0.27272409  0.94814253  0.07321558  1
  Te  Te133  1  0.24623822  0.92817935  0.40914582  1
  Te  Te134  1  0.24052802  0.91218681  0.74135095  1
  Te  Te135  1  0.59310262  0.25233046  0.05760144  1
  Te  Te136  1  0.58409740  0.24617468  0.41477991  1
  Te  Te137  1  0.57623640  0.23651493  0.75095354  1
  Te  Te138  1  0.57787184  0.58578764  0.08383760  1
  Te  Te139  1  0.59730349  0.62279565  0.41951954  1
  Te  Te140  1  0.58315888  0.56911920  0.77030525  1
  Te  Te141  1  0.57928224  0.91144946  0.10295836  1
  Te  Te142  1  0.59962379  0.91344381  0.43988687  1
  Te  Te143  1  0.57219951  0.92470923  0.76377905  1
  Te  Te144  1  0.92240450  0.26589690  0.09759477  1
  Te  Te145  1  0.93541389  0.27681802  0.38252832  1
  Te  Te146  1  0.91508715  0.24627331  0.78340592  1
  Te  Te147  1  0.92566505  0.58757980  0.09545818  1
  Te  Te148  1  0.90496723  0.59623080  0.44309763  1
  Te  Te149  1  0.91754775  0.58354050  0.74984005  1
  Te  Te150  1  0.91898963  0.94958711  0.07745475  1
  Te  Te151  1  0.90825537  0.91403740  0.40714048  1
  Te  Te152  1  0.89115379  0.91504105  0.73921861  1
  Te  Te153  1  0.28489010  0.11895130  0.21702055  1
  Te  Te154  1  0.25341025  0.09368735  0.57457691  1
  Te  Te155  1  0.24472098  0.09652940  0.93938773  1
  Te  Te156  1  0.27173503  0.38838456  0.25372829  1
  Te  Te157  1  0.24884236  0.40244772  0.57009489  1
  Te  Te158  1  0.23995418  0.41739195  0.91351589  1
  Te  Te159  1  0.24547760  0.76211673  0.25047763  1
  Te  Te160  1  0.26766425  0.73676593  0.60483371  1
  Te  Te161  1  0.24112844  0.75459741  0.91205402  1
  Te  Te162  1  0.57302720  0.07458496  0.21892959  1
  Te  Te163  1  0.56043744  0.07772001  0.59805888  1
  Te  Te164  1  0.55890840  0.07189965  0.92318640  1
  Te  Te165  1  0.57211469  0.40993116  0.24467412  1
  Te  Te166  1  0.57878624  0.42660940  0.56367872  1
  Te  Te167  1  0.59052750  0.41503555  0.91914198  1
  Te  Te168  1  0.60340837  0.74542028  0.26345174  1
  Te  Te169  1  0.59171121  0.76415508  0.58279133  1
  Te  Te170  1  0.56572656  0.73676879  0.91276206  1
  Te  Te171  1  0.91123635  0.08127999  0.25656050  1
  Te  Te172  1  0.92775727  0.09080691  0.58483352  1
  Te  Te173  1  0.95699289  0.11284436  0.90989041  1
  Te  Te174  1  0.91081222  0.41550624  0.30059364  1
  Te  Te175  1  0.92727479  0.41306316  0.58164274  1
  Te  Te176  1  0.91639049  0.41637723  0.91033492  1
  Te  Te177  1  0.90642955  0.76230545  0.24952965  1
  Te  Te178  1  0.89206766  0.74472417  0.55863062  1
  Te  Te179  1  0.92296947  0.74783731  0.91729492  1
