# generated using pymatgen
data_In2Te3
_symmetry_space_group_name_H-M   'P 1'
_cell_length_a   18.97159660
_cell_length_b   18.95268048
_cell_length_c   18.97052492
_cell_angle_alpha   90.13754679
_cell_angle_beta   90.21042343
_cell_angle_gamma   89.93831829
_symmetry_Int_Tables_number   1
_chemical_formula_structural   In2Te3
_chemical_formula_sum   'In72 Te108'
_cell_volume   6821.02188204
_cell_formula_units_Z   36
loop_
 _symmetry_equiv_pos_site_id
 _symmetry_equiv_pos_as_xyz
  1  'x, y, z'
loop_
 _atom_site_type_symbol
 _atom_site_label
 _atom_site_symmetry_multiplicity
 _atom_site_fract_x
 _atom_site_fract_y
 _atom_site_fract_z
 _atom_site_occupancy
  In  In0  1  0.69513776  0.50411482  0.16926155  1
  In  In1  1  0.81586018  0.15862931  0.66459601  1
  In  In2  1  0.82547193  -0.01516371  0.50216581  1
  In  In3  1  0.17326355  0.19609492  0.65928640  1
  In  In4  1  0.30169451  0.65836979  0.02989630  1
  In  In5  1  0.76581368  0.83682813  0.81434339  1
  In  In6  1  0.31244341  0.20223355  0.17411057  1
  In  In7  1  0.84061514  0.34517105  0.16878159  1
  In  In8  1  0.31296497  0.81418026  0.84896779  1
  In  In9  1  0.33075113  0.51917284  0.50787388  1
  In  In10  1  -0.03761096  0.19287656  0.48760577  1
  In  In11  1  0.80778883  0.16272590  -0.00676473  1
  In  In12  1  0.64038427  0.29893108  0.67779402  1
  In  In13  1  0.13930277  0.19986721  0.31301043  1
  In  In14  1  0.50493616  0.83366167  0.01051226  1
  In  In15  1  0.00201840  -0.02847569  0.69005958  1
  In  In16  1  0.86324006  0.49945575  0.00361396  1
  In  In17  1  0.15900412  0.65822326  0.18613057  1
  In  In18  1  0.16737152  0.68092729  0.48696565  1
  In  In19  1  0.49769927  -0.02815554  0.49884487  1
  In  In20  1  0.16166560  0.47292775  0.03195685  1
  In  In21  1  0.49458471  0.02897272  0.15797647  1
  In  In22  1  -0.01461242  0.82460327  0.83497566  1
  In  In23  1  0.84862557  0.17617256  0.32198635  1
  In  In24  1  0.17243376  0.63079454  0.85610824  1
  In  In25  1  0.31062741  0.83593135  0.15658780  1
  In  In26  1  0.50494325  0.82765308  0.66189023  1
  In  In27  1  0.30295998  0.01043490  0.32441230  1
  In  In28  1  0.85335325  0.35058183  0.83218116  1
  In  In29  1  0.66560867  0.04296171  -0.00644821  1
  In  In30  1  0.67279051  -0.02367038  0.68469066  1
  In  In31  1  0.34394545  0.33558345  -0.03640302  1
  In  In32  1  0.14293367  0.17189855  -0.00862311  1
  In  In33  1  0.51795741  0.66512358  0.49819795  1
  In  In34  1  0.65447350  0.00374384  0.31170499  1
  In  In35  1  0.16575712  0.01449178  0.47058390  1
  In  In36  1  0.85446993  -0.02319020  0.14723274  1
  In  In37  1  0.65718510  0.82464830  0.19890819  1
  In  In38  1  0.49075459  0.83127061  0.33716884  1
  In  In39  1  0.50236757  0.65834022  0.85482624  1
  In  In40  1  0.01041877  0.35943878  0.64827791  1
  In  In41  1  0.33775593  0.35916156  0.68362027  1
  In  In42  1  0.49260151  0.34672169  0.50855884  1
  In  In43  1  0.03394041  -0.04053126  0.30619051  1
  In  In44  1  0.31139046  0.17239237  0.48361247  1
  In  In45  1  0.65630952  0.48484556  0.83986971  1
  In  In46  1  -0.01230404  0.17556632  0.14794569  1
  In  In47  1  0.16394788  0.82267816  0.65959403  1
  In  In48  1  0.46308473  0.19925261  0.33255625  1
  In  In49  1  0.84968951  0.82790395  -0.00131818  1
  In  In50  1  0.51523201  0.49292019  0.67671995  1
  In  In51  1  0.17206351  0.51592407  0.65560201  1
  In  In52  1  0.00368258  0.65206341  0.65823253  1
  In  In53  1  0.51966291  0.48186397  0.30576985  1
  In  In54  1  0.15206285  -0.00730356  0.84463415  1
  In  In55  1  0.70762498  0.52004565  0.49552853  1
  In  In56  1  0.63379310  0.17285338  0.82010169  1
  In  In57  1  0.86396442  0.51558276  0.34134087  1
  In  In58  1  0.49460124  0.50078769  0.00894083  1
  In  In59  1  0.32964455  0.02836662  0.01400920  1
  In  In60  1  0.48305933  -0.01373028  0.80668536  1
  In  In61  1  -0.02249653  0.15684449  0.84508765  1
  In  In62  1  0.14474667  0.46186620  0.31899943  1
  In  In63  1  0.85865426  0.66760727  0.17499540  1
  In  In64  1  0.63030306  0.15790195  0.47927904  1
  In  In65  1  0.49840250  0.16505469  0.68963683  1
  In  In66  1  0.36281921  0.64380616  0.33252824  1
  In  In67  1  -0.00930725  0.79991534  0.50361783  1
  In  In68  1  0.82802656  0.79059580  0.36944078  1
  In  In69  1  0.84124881  0.33053625  0.48334850  1
  In  In70  1  0.69906259  0.64170756  0.00191156  1
  In  In71  1  0.84289186  0.51234837  0.68052646  1
  Te  Te72  1  0.05080939  0.07589215  0.05793512  1
  Te  Te73  1  0.06345898  0.10317796  0.40603714  1
  Te  Te74  1  0.07965451  0.09200828  0.73894338  1
  Te  Te75  1  0.05809056  0.41845593  0.12730387  1
  Te  Te76  1  0.06153898  0.38438314  0.41056675  1
  Te  Te77  1  0.08471903  0.43929295  0.74875840  1
  Te  Te78  1  0.08420261  0.77610455  0.13302379  1
  Te  Te79  1  0.07440675  0.74927644  0.39403297  1
  Te  Te80  1  0.08818286  0.73845791  0.75984197  1
  Te  Te81  1  0.41701798  0.13273838  0.08234023  1
  Te  Te82  1  0.41895010  0.07547930  0.41771649  1
  Te  Te83  1  0.39191680  0.08465267  0.74816514  1
  Te  Te84  1  0.41437038  0.39847117  0.07804179  1
  Te  Te85  1  0.41741381  0.43593287  0.41600045  1
  Te  Te86  1  0.41304228  0.44924363  0.77110043  1
  Te  Te87  1  0.41422586  0.74561226  0.09217871  1
  Te  Te88  1  0.40903928  0.74954005  0.43428718  1
  Te  Te89  1  0.42066767  0.74969210  0.76557495  1
  Te  Te90  1  0.75654356  0.08808424  0.12336048  1
  Te  Te91  1  0.74907798  0.08611243  0.41248641  1
  Te  Te92  1  0.74488193  0.07967839  0.77118801  1
  Te  Te93  1  0.75423834  0.41263942  0.06154551  1
  Te  Te94  1  0.75739474  0.41816470  0.39289674  1
  Te  Te95  1  0.74286955  0.40168853  0.73022878  1
  Te  Te96  1  0.74950326  0.75473850  0.09833890  1
  Te  Te97  1  0.70948196  0.76608728  0.44596785  1
  Te  Te98  1  0.79614216  0.72341843  0.72649251  1
  Te  Te99  1  0.08201526  0.28184150  0.19933346  1
  Te  Te100  1  0.08333893  0.26192621  0.55646659  1
  Te  Te101  1  0.06635625  0.25897348  0.89887365  1
  Te  Te102  1  0.06059077  0.56553723  0.25013602  1
  Te  Te103  1  0.07553083  0.57590514  0.54762143  1
  Te  Te104  1  0.08823450  0.58605416  0.96614417  1
  Te  Te105  1  0.13220061  0.89568461  0.21517747  1
  Te  Te106  1  0.07982285  0.91624488  0.57240154  1
  Te  Te107  1  0.06548699  0.90892226  0.92525721  1
  Te  Te108  1  0.40561831  0.30004048  0.23964555  1
  Te  Te109  1  0.41576478  0.23683789  0.57684692  1
  Te  Te110  1  0.43052065  0.23779333  0.89450816  1
  Te  Te111  1  0.41568805  0.55458741  0.22981659  1
  Te  Te112  1  0.43010911  0.59081594  0.59684769  1
  Te  Te113  1  0.39370592  0.58757044  0.93219862  1
  Te  Te114  1  0.41385521  0.93113788  0.24209715  1
  Te  Te115  1  0.40783991  0.91532087  0.59691589  1
  Te  Te116  1  0.40400373  0.91508944  0.93054718  1
  Te  Te117  1  0.75246701  0.25939631  0.25095037  1
  Te  Te118  1  0.73806244  0.24085274  0.56150519  1
  Te  Te119  1  0.74942814  0.25594531  0.88302139  1
  Te  Te120  1  0.75936858  0.60033421  0.26790557  1
  Te  Te121  1  0.75416819  0.60708251  0.60733230  1
  Te  Te122  1  0.77162232  0.56678136  0.89453671  1
  Te  Te123  1  0.76718616  0.91183589  0.26104354  1
  Te  Te124  1  0.75237966  0.89559354  0.59149760  1
  Te  Te125  1  0.74722071  0.92211598  0.93807897  1
  Te  Te126  1  0.23925634  0.26643260  0.06029222  1
  Te  Te127  1  0.24937074  0.27138914  0.39108938  1
  Te  Te128  1  0.25266942  0.26722312  0.75805921  1
  Te  Te129  1  0.25414711  0.55323978  0.12569226  1
  Te  Te130  1  0.23834238  0.57079348  0.39768970  1
  Te  Te131  1  0.25414647  0.60633968  0.73767826  1
  Te  Te132  1  0.23405990  0.93849789  0.08134992  1
  Te  Te133  1  0.25055320  0.90965221  0.41500419  1
  Te  Te134  1  0.24438600  0.91113366  0.75493960  1
  Te  Te135  1  0.66093323  0.18696880  0.04115435  1
  Te  Te136  1  0.57699755  0.27552485  0.40287819  1
  Te  Te137  1  0.52871692  0.28762065  0.78802970  1
  Te  Te138  1  0.59205543  0.58771737  0.09095905  1
  Te  Te139  1  0.59430380  0.57173664  0.40888801  1
  Te  Te140  1  0.59703293  0.59584667  0.75393662  1
  Te  Te141  1  0.59069023  0.92759521  0.09664967  1
  Te  Te142  1  0.60523948  0.90436420  0.41597942  1
  Te  Te143  1  0.59534113  0.88776809  0.77929855  1
  Te  Te144  1  0.90490899  0.26298245  0.05887816  1
  Te  Te145  1  0.94370086  0.29581481  0.36785081  1
  Te  Te146  1  0.91726177  0.25774701  0.72027974  1
  Te  Te147  1  0.93742605  0.61821973  0.05897623  1
  Te  Te148  1  0.92145064  0.57059267  0.46386075  1
  Te  Te149  1  0.96051437  0.55308337  0.76066309  1
  Te  Te150  1  0.95001880  0.87327362  0.10022696  1
  Te  Te151  1  0.92684302  0.91468128  0.41454983  1
  Te  Te152  1  0.88805120  0.92493422  0.77019385  1
  Te  Te153  1  0.22050696  0.09693110  0.23286211  1
  Te  Te154  1  0.24388073  0.08082603  0.58235441  1
  Te  Te155  1  0.24580688  0.09469499  0.90723136  1
  Te  Te156  1  0.25357321  0.37232412  0.27162765  1
  Te  Te157  1  0.24832987  0.41044493  0.57305265  1
  Te  Te158  1  0.24019846  0.42921601  0.91571463  1
  Te  Te159  1  0.26556916  0.73944094  0.26314927  1
  Te  Te160  1  0.25678044  0.73117968  0.59231409  1
  Te  Te161  1  0.21751675  0.75315773  0.94623748  1
  Te  Te162  1  0.57180288  0.11633805  0.25520107  1
  Te  Te163  1  0.58638556  0.07240646  0.59681999  1
  Te  Te164  1  0.54438048  0.08101719  0.90695832  1
  Te  Te165  1  0.60273807  0.40030100  0.21596577  1
  Te  Te166  1  0.60613728  0.42313539  0.57477566  1
  Te  Te167  1  0.58975929  0.40796575  0.94323408  1
  Te  Te168  1  0.56039157  0.73245763  0.25515131  1
  Te  Te169  1  0.60537680  0.75829958  0.57660733  1
  Te  Te170  1  0.59933114  0.74172666  0.93599671  1
  Te  Te171  1  0.93083484  0.07000253  0.25050944  1
  Te  Te172  1  0.91794556  0.07583366  0.58715563  1
  Te  Te173  1  0.91917240  0.06925014  0.94655771  1
  Te  Te174  1  0.93209224  0.45734451  0.21692811  1
  Te  Te175  1  0.91581877  0.44344001  0.55702995  1
  Te  Te176  1  0.95128884  0.41236207  0.92172459  1
  Te  Te177  1  0.93393759  0.73712814  0.28384464  1
  Te  Te178  1  0.90499507  0.75888721  0.61850055  1
  Te  Te179  1  0.91838418  0.72287431  0.92023941  1
