# generated using pymatgen
data_In2Te3
_symmetry_space_group_name_H-M   'P 1'
_cell_length_a   18.81319210
_cell_length_b   18.80006371
_cell_length_c   18.80428380
_cell_angle_alpha   90.00735073
_cell_angle_beta   90.06080828
_cell_angle_gamma   90.02719221
_symmetry_Int_Tables_number   1
_chemical_formula_structural   In2Te3
_chemical_formula_sum   'In72 Te108'
_cell_volume   6650.86773050
_cell_formula_units_Z   36
loop_
 _symmetry_equiv_pos_site_id
 _symmetry_equiv_pos_as_xyz
  1  'x, y, z'
loop_
 _atom_site_type_symbol
 _atom_site_label
 _atom_site_symmetry_multiplicity
 _atom_site_fract_x
 _atom_site_fract_y
 _atom_site_fract_z
 _atom_site_occupancy
  In  In0  1  0.34231305  0.18243398  0.83837791  1
  In  In1  1  0.67117803  0.82654889  0.16698862  1
  In  In2  1  0.83443845  0.33710869  0.16471291  1
  In  In3  1  0.32029391  0.79745200  0.83400124  1
  In  In4  1  0.51116334  0.65922863  0.83251904  1
  In  In5  1  0.65689762  0.18816565  0.81832153  1
  In  In6  1  0.68205390  0.18550900  0.18247149  1
  In  In7  1  0.51202902  0.66776687  0.17741570  1
  In  In8  1  0.00937403  0.02607753  0.33825221  1
  In  In9  1  0.16525747  0.20025799  0.02957747  1
  In  In10  1  0.00845115  0.18642435  0.83536102  1
  In  In11  1  0.32998277  0.83791661  0.49515791  1
  In  In12  1  0.34051605  0.64455599  0.02183501  1
  In  In13  1  0.32610976  0.02142651  0.62402134  1
  In  In14  1  0.16060053  0.01248876  0.82295416  1
  In  In15  1  0.48317379  0.81113238  -0.01528150  1
  In  In16  1  -0.02418251  -0.00910776  0.01157715  1
  In  In17  1  0.65034709  0.33015177  0.65815944  1
  In  In18  1  0.45683813  0.46051482  0.65829952  1
  In  In19  1  0.03071144  0.00032155  0.64789877  1
  In  In20  1  0.34493006  0.00996895  0.00729438  1
  In  In21  1  0.02991287  0.17366332  0.18843327  1
  In  In22  1  0.18609713  0.00691416  0.19384912  1
  In  In23  1  0.16514215  0.66861755  0.47811304  1
  In  In24  1  0.18371175  0.47018739  0.64676099  1
  In  In25  1  -0.00934030  0.67150668  0.66139937  1
  In  In26  1  0.65303915  0.00344219  0.35074765  1
  In  In27  1  0.19024175  0.34435425  0.20606578  1
  In  In28  1  0.48543982  0.19514646  0.64188211  1
  In  In29  1  0.83582277  0.48964023  0.63512976  1
  In  In30  1  -0.00124753  0.20246373  0.46367622  1
  In  In31  1  0.64021624  0.82612627  0.47875253  1
  In  In32  1  0.16272962  0.86245213  0.64567494  1
  In  In33  1  0.85994061  0.01177523  0.17576634  1
  In  In34  1  0.65981695  0.83204003  0.83405866  1
  In  In35  1  0.35172308  0.65026551  0.66855295  1
  In  In36  1  0.15146404  0.82849294  0.03490266  1
  In  In37  1  0.83622791  0.00158761  0.48923370  1
  In  In38  1  0.02798922  0.49737716  0.83486597  1
  In  In39  1  0.49325439  0.00626027  0.18368968  1
  In  In40  1  0.83210265  0.66787509  0.85028210  1
  In  In41  1  0.64685432  0.19087975  0.48393057  1
  In  In42  1  0.82683810  0.16333545  -0.01279136  1
  In  In43  1  0.81342363  0.79673663  0.00933480  1
  In  In44  1  0.32742774  0.64103629  0.33910462  1
  In  In45  1  0.01223220  0.47937524  0.47161724  1
  In  In46  1  0.48026141  0.47934098  0.02132650  1
  In  In47  1  0.19234305  0.47274709  -0.01630283  1
  In  In48  1  0.00628767  0.50187439  0.19636482  1
  In  In49  1  0.66391918  0.02968730  0.65425600  1
  In  In50  1  0.67681494  -0.03091210  -0.01677845  1
  In  In51  1  0.85412081  0.64903365  0.50355402  1
  In  In52  1  0.33326633  0.03067050  0.33229000  1
  In  In53  1  0.01121780  0.33564299  -0.00704464  1
  In  In54  1  0.69036355  0.64537889  0.30905812  1
  In  In55  1  0.83854838  0.16938663  0.67598709  1
  In  In56  1  0.50660532  0.65123895  0.50399654  1
  In  In57  1  0.48204583  0.45603667  0.33236974  1
  In  In58  1  0.82586254  0.81459440  0.66573549  1
  In  In59  1  0.16484344  0.63818069  0.17950433  1
  In  In60  1  0.14506853  0.63233757  0.84164354  1
  In  In61  1  0.45465369  0.22001198  0.33925524  1
  In  In62  1  0.84946709  0.80525278  0.30233429  1
  In  In63  1  -0.01416353  0.82688352  0.82800835  1
  In  In64  1  0.66009001  0.50094230  0.83174928  1
  In  In65  1  0.68419165  0.48381656  0.47756027  1
  In  In66  1  0.52438471  0.02417578  0.83378123  1
  In  In67  1  0.48925913  0.19051586  0.02972644  1
  In  In68  1  0.67594696  0.33787967  0.01665474  1
  In  In69  1  0.15272340  0.82443839  0.32635125  1
  In  In70  1  0.19340523  0.21736887  0.61122357  1
  In  In71  1  0.85663254  0.48427059  0.02623242  1
  Te  Te72  1  0.08495095  0.07431134  0.07724033  1
  Te  Te73  1  0.10590490  0.11348805  0.41016267  1
  Te  Te74  1  0.10058323  0.11277748  0.72622073  1
  Te  Te75  1  0.08864341  0.40901090  0.10073335  1
  Te  Te76  1  0.10849975  0.36738683  0.42745837  1
  Te  Te77  1  0.09611897  0.40230009  0.74557922  1
  Te  Te78  1  0.06964584  0.74277076  0.12384901  1
  Te  Te79  1  0.06026661  0.73409828  0.39864735  1
  Te  Te80  1  0.09424751  0.75154251  0.74837836  1
  Te  Te81  1  0.39628957  0.10445506  0.11446710  1
  Te  Te82  1  0.41242987  0.11139264  0.42922372  1
  Te  Te83  1  0.41746951  0.08572718  0.74182948  1
  Te  Te84  1  0.39147336  0.40176205  0.11176169  1
  Te  Te85  1  0.40530708  0.37756993  0.43586278  1
  Te  Te86  1  0.36836253  0.39840397  0.76036800  1
  Te  Te87  1  0.40793395  0.75542000  0.10300518  1
  Te  Te88  1  0.41610742  0.73903685  0.41586129  1
  Te  Te89  1  0.43528431  0.75637456  0.74216324  1
  Te  Te90  1  0.74536680  0.07508887  0.08596115  1
  Te  Te91  1  0.75186138  0.10279212  0.41231808  1
  Te  Te92  1  0.75180174  0.07911374  0.76802759  1
  Te  Te93  1  0.73232050  0.44863975  0.11531873  1
  Te  Te94  1  0.78506181  0.40470317  0.40581836  1
  Te  Te95  1  0.74747201  0.41685840  0.73792289  1
  Te  Te96  1  0.73505059  0.71190731  0.10054650  1
  Te  Te97  1  0.76070982  0.74586439  0.41308857  1
  Te  Te98  1  0.73351195  0.72612636  0.74883655  1
  Te  Te99  1  0.07416500  0.28259514  0.28256674  1
  Te  Te100  1  0.05911448  0.27733142  0.58029213  1
  Te  Te101  1  0.11691625  0.27155485  0.90316773  1
  Te  Te102  1  0.10094388  0.56502999  0.29236704  1
  Te  Te103  1  0.08161140  0.57744363  0.58328451  1
  Te  Te104  1  0.07600957  0.56999161  0.96262487  1
  Te  Te105  1  0.06915649  0.92366730  0.24143551  1
  Te  Te106  1  0.08667446  0.92193744  0.53563054  1
  Te  Te107  1  0.08845247  0.91311150  0.91463132  1
  Te  Te108  1  0.39471345  0.29460820  0.22689693  1
  Te  Te109  1  0.39584832  0.28008100  0.55912082  1
  Te  Te110  1  0.40867259  0.27358117  0.93563108  1
  Te  Te111  1  0.42031581  0.56497422  0.24512423  1
  Te  Te112  1  0.39600464  0.55860657  0.55604165  1
  Te  Te113  1  0.41383069  0.57253851  0.91037773  1
  Te  Te114  1  0.40465018  0.92021742  0.26215611  1
  Te  Te115  1  0.41767457  0.91329244  0.58724747  1
  Te  Te116  1  0.42232358  0.92627578  0.90385898  1
  Te  Te117  1  0.74469903  0.28588339  0.27656769  1
  Te  Te118  1  0.75288210  0.25172285  0.57746385  1
  Te  Te119  1  0.75537889  0.26920554  0.90458240  1
  Te  Te120  1  0.76623568  0.54370254  0.23657429  1
  Te  Te121  1  0.73570687  0.58908725  0.57852582  1
  Te  Te122  1  0.75801952  0.56334422  0.93132026  1
  Te  Te123  1  0.74685912  0.93020960  0.25202642  1
  Te  Te124  1  0.74282128  0.92001716  0.58008373  1
  Te  Te125  1  0.78150520  0.89979106  0.89775496  1
  Te  Te126  1  0.27206124  0.28570506  0.09114552  1
  Te  Te127  1  0.24820660  0.30450372  0.41231631  1
  Te  Te128  1  0.27352239  0.26430411  0.73223295  1
  Te  Te129  1  0.25985694  0.54459298  0.10246878  1
  Te  Te130  1  0.23699537  0.55068396  0.41821977  1
  Te  Te131  1  0.24908556  0.57049698  0.74871362  1
  Te  Te132  1  0.26151479  0.91618994  0.09495439  1
  Te  Te133  1  0.24269496  0.92014600  0.40371821  1
  Te  Te134  1  0.25958713  0.92196626  0.74923913  1
  Te  Te135  1  0.57613195  0.28132741  0.11739308  1
  Te  Te136  1  0.58318933  0.29009569  0.38890640  1
  Te  Te137  1  0.54725760  0.27453850  0.75777276  1
  Te  Te138  1  0.57474064  0.57908549  0.07748471  1
  Te  Te139  1  0.58209837  0.56911146  0.39161063  1
  Te  Te140  1  0.55866752  0.55579846  0.73129162  1
  Te  Te141  1  0.56846821  0.91293660  0.07671574  1
  Te  Te142  1  0.54915061  0.92339298  0.41700012  1
  Te  Te143  1  0.58472417  0.92297797  0.73729925  1
  Te  Te144  1  0.92647673  0.23455644  0.08020305  1
  Te  Te145  1  0.90043243  0.29856744  0.40581054  1
  Te  Te146  1  0.91156953  0.26665413  0.75892022  1
  Te  Te147  1  0.90774330  0.59120136  0.12261163  1
  Te  Te148  1  0.91374911  0.56454517  0.39970905  1
  Te  Te149  1  0.91227652  0.57820063  0.75252606  1
  Te  Te150  1  0.90429131  0.88953413  0.09678862  1
  Te  Te151  1  0.91383760  0.91701221  0.39132006  1
  Te  Te152  1  0.92313431  0.92060549  0.72581062  1
  Te  Te153  1  0.23889950  0.12422260  0.26322970  1
  Te  Te154  1  0.23706171  0.09748290  0.53476029  1
  Te  Te155  1  0.24327918  0.09290874  0.92608068  1
  Te  Te156  1  0.26519024  0.42150312  0.31143447  1
  Te  Te157  1  0.26638985  0.37304739  0.56426097  1
  Te  Te158  1  0.29104640  0.40722373  0.89736237  1
  Te  Te159  1  0.25538752  0.74169354  0.24894693  1
  Te  Te160  1  0.24862438  0.73881306  0.59355978  1
  Te  Te161  1  0.23349136  0.73023888  0.94105345  1
  Te  Te162  1  0.57377658  0.10994907  0.26300418  1
  Te  Te163  1  0.56112182  0.08895959  0.55973977  1
  Te  Te164  1  0.58984761  0.11145279  0.94149524  1
  Te  Te165  1  0.59165711  0.38188839  0.26408437  1
  Te  Te166  1  0.57477986  0.41990926  0.56355313  1
  Te  Te167  1  0.57861910  0.40808522  0.92125087  1
  Te  Te168  1  0.58681052  0.75944620  0.27356196  1
  Te  Te169  1  0.58839990  0.74181345  0.58709557  1
  Te  Te170  1  0.60132184  0.73123555  0.93339055  1
  Te  Te171  1  0.90847730  0.12262327  0.26599695  1
  Te  Te172  1  0.92666825  0.09531711  0.57013390  1
  Te  Te173  1  0.91927231  0.07716668  0.90005925  1
  Te  Te174  1  0.93568755  0.38714782  0.26627770  1
  Te  Te175  1  0.93839855  0.40089253  0.57846936  1
  Te  Te176  1  0.91652706  0.41252707  0.90476382  1
  Te  Te177  1  0.93180870  0.71408118  0.22232784  1
  Te  Te178  1  0.93179182  0.77121347  0.56436263  1
  Te  Te179  1  0.93864185  0.73301277  0.93777097  1
