# generated using pymatgen
data_In2Te3
_symmetry_space_group_name_H-M   'P 1'
_cell_length_a   18.97493604
_cell_length_b   18.96242340
_cell_length_c   18.97342404
_cell_angle_alpha   89.95681395
_cell_angle_beta   89.94622169
_cell_angle_gamma   90.04380102
_symmetry_Int_Tables_number   1
_chemical_formula_structural   In2Te3
_chemical_formula_sum   'In72 Te108'
_cell_volume   6826.83539044
_cell_formula_units_Z   36
loop_
 _symmetry_equiv_pos_site_id
 _symmetry_equiv_pos_as_xyz
  1  'x, y, z'
loop_
 _atom_site_type_symbol
 _atom_site_label
 _atom_site_symmetry_multiplicity
 _atom_site_fract_x
 _atom_site_fract_y
 _atom_site_fract_z
 _atom_site_occupancy
  In  In0  1  0.82022875  0.66410502  0.46964089  1
  In  In1  1  0.67827637  0.66863229  0.66183433  1
  In  In2  1  0.65960649  0.68875075  -0.00435137  1
  In  In3  1  0.02447658  0.45223282  0.50997362  1
  In  In4  1  0.01782117  0.02911780  -0.01671896  1
  In  In5  1  0.66334034  0.00090177  0.02776092  1
  In  In6  1  0.79950239  0.17106820  0.34501689  1
  In  In7  1  0.32801420  0.34196951  0.33657069  1
  In  In8  1  0.40129685  -0.00988327  0.75169702  1
  In  In9  1  0.14044691  0.48255155  0.69466958  1
  In  In10  1  0.61377378  0.02485758  0.63457551  1
  In  In11  1  -0.00089268  0.81088788  0.15614275  1
  In  In12  1  0.60470224  0.85418403  0.47522890  1
  In  In13  1  0.33781149  0.03805238  -0.03172803  1
  In  In14  1  0.65704349  0.65831978  0.33660324  1
  In  In15  1  0.38398242  0.82494717  0.48296894  1
  In  In16  1  0.00172764  0.50430603  0.18967363  1
  In  In17  1  0.50128382  0.47818039  -0.00126089  1
  In  In18  1  0.33715755  0.15536573  0.14769970  1
  In  In19  1  0.02696978  0.83328341  0.84775081  1
  In  In20  1  0.00517686  0.67811271  0.32194305  1
  In  In21  1  0.17675378  0.66927477  0.49639477  1
  In  In22  1  0.84569651  0.49478410  0.33202795  1
  In  In23  1  0.84446813  0.67358049  0.82290832  1
  In  In24  1  0.29172829  0.82073615  0.85926277  1
  In  In25  1  0.48844595  0.48622486  0.64752886  1
  In  In26  1  0.65317794  0.32884516  0.01684317  1
  In  In27  1  0.19549205  0.19509617  0.33607728  1
  In  In28  1  0.82643948  0.01630953  0.85534743  1
  In  In29  1  0.00439325  0.20562815  0.50598537  1
  In  In30  1  0.66035327  0.49223619  0.19659337  1
  In  In31  1  0.51466658  0.16650085  -0.00179274  1
  In  In32  1  0.67654005  0.47404329  0.84167892  1
  In  In33  1  0.51475393  0.65681814  0.84268769  1
  In  In34  1  0.33079323  0.50777905  0.48816021  1
  In  In35  1  0.02454856  0.66472033  0.01148401  1
  In  In36  1  0.33880634  0.32443629  -0.02140765  1
  In  In37  1  0.66113269  0.84690811  0.16347614  1
  In  In38  1  0.17256935  0.00626175  0.52588991  1
  In  In39  1  -0.00830679  0.86612537  0.51828515  1
  In  In40  1  0.48387831  0.65930877  0.14794378  1
  In  In41  1  0.17459443  0.16363446  0.68511949  1
  In  In42  1  -0.00268293  0.00883802  0.36617594  1
  In  In43  1  0.83544671  0.85544738  0.02098158  1
  In  In44  1  -0.00073420  0.67858502  0.67726272  1
  In  In45  1  0.81787528  0.01551903  0.16889329  1
  In  In46  1  0.64612584  0.31509785  0.31900284  1
  In  In47  1  0.84558283  0.17947293  0.67081215  1
  In  In48  1  0.18607075  0.82055371  0.32421447  1
  In  In49  1  0.30708412  0.66296720  0.66265876  1
  In  In50  1  0.64793081  0.52541209  0.50114783  1
  In  In51  1  0.33012726  0.18001803  0.47600854  1
  In  In52  1  0.32069660  0.32068070  0.66240336  1
  In  In53  1  0.66192271  0.16105732  0.82654733  1
  In  In54  1  -0.01077037  0.17000314  0.14920407  1
  In  In55  1  0.84501785  0.48983317  0.01145354  1
  In  In56  1  0.66807813  0.30458969  0.67403234  1
  In  In57  1  0.16560991  0.51889888  -0.00917510  1
  In  In58  1  0.33757123  0.49893055  0.12726779  1
  In  In59  1  0.51127409  0.14512795  0.32648310  1
  In  In60  1  0.17233291  0.33041670  0.17013662  1
  In  In61  1  0.00123724  0.02521425  0.67957151  1
  In  In62  1  0.80381272  -0.00002779  0.49990816  1
  In  In63  1  0.49407905  0.82506519  0.68133133  1
  In  In64  1  0.34053910  0.82243502  0.15605269  1
  In  In65  1  0.85034319  0.32619566  0.83870239  1
  In  In66  1  0.03484878  0.30990011  -0.02744200  1
  In  In67  1  0.33299032  0.50084012  0.81776423  1
  In  In68  1  0.16246543  -0.03341757  0.15440192  1
  In  In69  1  0.82223327  0.34194929  0.49768175  1
  In  In70  1  0.34321770  0.01058204  0.32805766  1
  In  In71  1  0.82085505  0.83543088  0.68071032  1
  Te  Te72  1  0.10553092  0.09240319  0.08932955  1
  Te  Te73  1  0.10131088  0.10349702  0.43100897  1
  Te  Te74  1  0.09958334  0.07237920  0.77879167  1
  Te  Te75  1  0.08546453  0.41883539  0.08226234  1
  Te  Te76  1  0.10922667  0.39753968  0.40816967  1
  Te  Te77  1  0.06536617  0.36088309  0.73322327  1
  Te  Te78  1  0.11446945  0.77103299  0.06905069  1
  Te  Te79  1  0.07447289  0.77075841  0.43349114  1
  Te  Te80  1  0.10005394  0.75839609  0.74594836  1
  Te  Te81  1  0.43912512  0.06595454  0.08749071  1
  Te  Te82  1  0.43294163  0.06242926  0.44002491  1
  Te  Te83  1  0.43025405  0.13399207  0.76865188  1
  Te  Te84  1  0.42728283  0.38093174  0.08740003  1
  Te  Te85  1  0.42061602  0.40202164  0.43509727  1
  Te  Te86  1  0.42359626  0.40016422  0.75155813  1
  Te  Te87  1  0.43015732  0.75957463  0.05677082  1
  Te  Te88  1  0.46268214  0.73439415  0.40224859  1
  Te  Te89  1  0.40402497  0.72974974  0.76090395  1
  Te  Te90  1  0.75262316  0.10673264  0.07583322  1
  Te  Te91  1  0.71013348  0.06802364  0.40779194  1
  Te  Te92  1  0.75238359  0.07609595  0.73238554  1
  Te  Te93  1  0.74925464  0.41270627  0.09975412  1
  Te  Te94  1  0.73181353  0.42987199  0.40974337  1
  Te  Te95  1  0.76311470  0.40397225  0.74009345  1
  Te  Te96  1  0.75928443  0.74649528  0.09183077  1
  Te  Te97  1  0.72189491  0.76661558  0.42063405  1
  Te  Te98  1  0.72733045  0.75868161  0.77296158  1
  Te  Te99  1  0.07971221  0.24436268  0.25221236  1
  Te  Te100  1  0.09345107  0.26790741  0.60966150  1
  Te  Te101  1  0.12618668  0.21573589  0.90279932  1
  Te  Te102  1  0.09791165  0.60249138  0.23931463  1
  Te  Te103  1  0.08425537  0.58316980  0.58253688  1
  Te  Te104  1  0.06645743  0.57990657  0.90105943  1
  Te  Te105  1  0.07459323  0.91739773  0.27194003  1
  Te  Te106  1  0.09256417  0.91637332  0.61811846  1
  Te  Te107  1  0.10536505  0.92339148  0.93100766  1
  Te  Te108  1  0.40268329  0.23141730  0.25957590  1
  Te  Te109  1  0.41307495  0.27524182  0.55334234  1
  Te  Te110  1  0.41496643  0.22198551  0.89947500  1
  Te  Te111  1  0.42998496  0.55048559  0.23075262  1
  Te  Te112  1  0.41596196  0.59861733  0.57916824  1
  Te  Te113  1  0.41438261  0.57559231  0.92223594  1
  Te  Te114  1  0.41842034  0.90228979  0.26061751  1
  Te  Te115  1  0.41542011  0.91800207  0.59410357  1
  Te  Te116  1  0.40249234  0.92486764  0.89116751  1
  Te  Te117  1  0.73809330  0.24140511  0.23297126  1
  Te  Te118  1  0.74657207  0.22896935  0.56882176  1
  Te  Te119  1  0.74208951  0.25370563  0.91575445  1
  Te  Te120  1  0.76203279  0.59143168  0.25041826  1
  Te  Te121  1  0.76706059  0.57580973  0.58235364  1
  Te  Te122  1  0.75398216  0.57993562  0.91797986  1
  Te  Te123  1  0.75485951  0.91577233  0.25373041  1
  Te  Te124  1  0.72345666  0.90714610  0.58802119  1
  Te  Te125  1  0.74032195  0.91235168  0.92032926  1
  Te  Te126  1  0.24475288  0.24413996  0.06849135  1
  Te  Te127  1  0.22030737  0.29583421  0.44742599  1
  Te  Te128  1  0.24216532  0.26179051  0.77490544  1
  Te  Te129  1  0.26373928  0.60889669  0.05776157  1
  Te  Te130  1  0.25330279  0.59425301  0.39837052  1
  Te  Te131  1  0.22340225  0.59235469  0.76661807  1
  Te  Te132  1  0.28035993  0.93431108  0.06949732  1
  Te  Te133  1  0.24404793  0.92840830  0.41587242  1
  Te  Te134  1  0.27264311  0.91614787  0.75084225  1
  Te  Te135  1  0.57830377  0.24136830  0.10747443  1
  Te  Te136  1  0.58157200  0.23140144  0.42349552  1
  Te  Te137  1  0.55984028  0.22067137  0.73407431  1
  Te  Te138  1  0.60056343  0.56705372  0.07084998  1
  Te  Te139  1  0.54658672  0.60149583  0.42113184  1
  Te  Te140  1  0.59173348  0.56443429  0.74617657  1
  Te  Te141  1  0.55904504  0.91162176  0.08064255  1
  Te  Te142  1  0.55027348  0.91786044  0.35163729  1
  Te  Te143  1  0.57026150  0.93840758  0.74456849  1
  Te  Te144  1  0.92511759  0.26333631  0.05819593  1
  Te  Te145  1  0.91118191  0.26203287  0.40421625  1
  Te  Te146  1  0.94606186  0.24088630  0.76015126  1
  Te  Te147  1  0.92043334  0.59146673  0.09440261  1
  Te  Te148  1  0.93594721  0.57754948  0.42252097  1
  Te  Te149  1  0.91841893  0.57654030  0.74435538  1
  Te  Te150  1  0.93869945  0.93812165  0.09461822  1
  Te  Te151  1  0.89123242  0.90978073  0.41363981  1
  Te  Te152  1  0.91550664  0.92216684  0.76218136  1
  Te  Te153  1  0.23292768  0.07696982  0.24402404  1
  Te  Te154  1  0.27567016  0.09562579  0.59034061  1
  Te  Te155  1  0.22595576  0.09711798  0.89110820  1
  Te  Te156  1  0.25451769  0.43388568  0.24098974  1
  Te  Te157  1  0.24904975  0.43953381  0.60099260  1
  Te  Te158  1  0.24248935  0.41718165  0.90665659  1
  Te  Te159  1  0.26224609  0.72883074  0.23999785  1
  Te  Te160  1  0.26384756  0.77081578  0.56678868  1
  Te  Te161  1  0.22357073  0.73658705  0.95904784  1
  Te  Te162  1  0.60765877  0.04141039  0.27778952  1
  Te  Te163  1  0.53231263  0.11095740  0.55247703  1
  Te  Te164  1  0.58472228  0.06390386  0.91129807  1
  Te  Te165  1  0.55492295  0.41920235  0.26691658  1
  Te  Te166  1  0.59682153  0.40645707  0.58033629  1
  Te  Te167  1  0.57004558  0.38508824  0.90065641  1
  Te  Te168  1  0.57929392  0.73859229  0.23546947  1
  Te  Te169  1  0.57782815  0.74571412  0.58248241  1
  Te  Te170  1  0.56851786  0.77170726  0.91685652  1
  Te  Te171  1  0.91801285  0.09290850  0.26843680  1
  Te  Te172  1  0.92233757  0.08108159  0.56074207  1
  Te  Te173  1  0.91213985  0.11094522  0.92453205  1
  Te  Te174  1  0.92122083  0.39960872  0.25191616  1
  Te  Te175  1  0.91524247  0.40417113  0.59212855  1
  Te  Te176  1  0.93777480  0.42304962  0.91442811  1
  Te  Te177  1  0.90460178  0.75719535  0.25234709  1
  Te  Te178  1  0.89778925  0.75334799  0.57799773  1
  Te  Te179  1  0.91545126  0.75773785  0.92876971  1
