# generated using pymatgen
data_In2Te3
_symmetry_space_group_name_H-M   'P 1'
_cell_length_a   18.76873440
_cell_length_b   18.76804836
_cell_length_c   18.75811744
_cell_angle_alpha   90.03000504
_cell_angle_beta   89.97744911
_cell_angle_gamma   90.08913564
_symmetry_Int_Tables_number   1
_chemical_formula_structural   In2Te3
_chemical_formula_sum   'In72 Te108'
_cell_volume   6607.58463187
_cell_formula_units_Z   36
loop_
 _symmetry_equiv_pos_site_id
 _symmetry_equiv_pos_as_xyz
  1  'x, y, z'
loop_
 _atom_site_type_symbol
 _atom_site_label
 _atom_site_symmetry_multiplicity
 _atom_site_fract_x
 _atom_site_fract_y
 _atom_site_fract_z
 _atom_site_occupancy
  In  In0  1  0.17630198  0.00018692  0.50080271  1
  In  In1  1  0.34166795  0.16171320  0.82625115  1
  In  In2  1  0.66992943  0.82758421  0.85122352  1
  In  In3  1  0.00723143  0.49118824  0.49803118  1
  In  In4  1  0.49086155  0.83755466  0.65776845  1
  In  In5  1  0.47954522  0.84721675  0.32151957  1
  In  In6  1  0.17639868  0.67509748  0.50471336  1
  In  In7  1  0.67325890  0.65179682  0.32552627  1
  In  In8  1  0.16082492  0.47450885  0.02187567  1
  In  In9  1  0.84272251  0.50987846  0.67052166  1
  In  In10  1  -0.00211746  -0.03019018  -0.00402007  1
  In  In11  1  0.65380369  0.16846786  0.48602030  1
  In  In12  1  0.51571358  0.48369759  0.68253468  1
  In  In13  1  0.15778904  0.33172230  0.17595132  1
  In  In14  1  -0.00731923  0.18158031  0.49700130  1
  In  In15  1  0.49516211  0.49112635  0.34725421  1
  In  In16  1  0.16998085  0.68116478  0.83603977  1
  In  In17  1  0.50535975  0.01258020  0.86445537  1
  In  In18  1  0.65729443  0.32275620  0.68481110  1
  In  In19  1  0.85054118  0.47634741  0.30661151  1
  In  In20  1  0.81875180  0.66008768  0.51708400  1
  In  In21  1  0.49072997  0.50764741  -0.01709359  1
  In  In22  1  0.00557174  0.82882396  0.49634840  1
  In  In23  1  0.80793954  0.02799674  0.46702619  1
  In  In24  1  0.82315843  0.19118217  0.33104839  1
  In  In25  1  0.51056675  0.31669566  0.84741758  1
  In  In26  1  0.00644377  0.67733402  0.33419452  1
  In  In27  1  0.47561758  -0.00772329  0.50177606  1
  In  In28  1  0.33990206  0.14215851  0.16850696  1
  In  In29  1  0.15414866  0.68583198  0.16352106  1
  In  In30  1  0.68798755  0.49518111  0.17954549  1
  In  In31  1  0.33953679  0.51482222  0.48021394  1
  In  In32  1  0.00378183  0.15777887  0.81798210  1
  In  In33  1  0.15915583  0.51173536  0.66937546  1
  In  In34  1  0.83724278  0.00281373  0.14479009  1
  In  In35  1  0.83608304  0.34421398  0.49381824  1
  In  In36  1  0.33015485  0.15677700  0.49660804  1
  In  In37  1  0.19461100  0.12570268  -0.01759754  1
  In  In38  1  0.02727841  0.00836737  0.67124173  1
  In  In39  1  0.30580842  0.66605478  0.32179103  1
  In  In40  1  0.50137220  0.32750650  0.49631707  1
  In  In41  1  0.83645534  0.15552347  0.68757686  1
  In  In42  1  0.17597988  0.34012807  0.84476357  1
  In  In43  1  0.35042012  0.68102484  0.69190130  1
  In  In44  1  0.84085117  0.83339014  0.31093851  1
  In  In45  1  0.00137083  0.33216554  0.01348929  1
  In  In46  1  0.83688476  0.49797313  0.01751668  1
  In  In47  1  0.68579799  0.00620296  0.67228092  1
  In  In48  1  0.32707091  0.84849032  0.49909397  1
  In  In49  1  0.02971719  -0.00843766  0.31226752  1
  In  In50  1  0.51503049  0.01351536  0.16325615  1
  In  In51  1  0.32006715  0.49327408  0.16396045  1
  In  In52  1  0.48616471  0.68321344  0.13871407  1
  In  In53  1  0.80412243  0.17270011  -0.00429362  1
  In  In54  1  0.82141022  0.83318504  0.68405018  1
  In  In55  1  0.66629712  0.67811015  -0.00869386  1
  In  In56  1  0.33862558  0.33263904  -0.00070238  1
  In  In57  1  0.19584677  -0.02538415  0.15189892  1
  In  In58  1  0.00762622  0.81909878  0.83743067  1
  In  In59  1  0.52720765  0.28250666  0.15418681  1
  In  In60  1  0.34118264  0.33318572  0.66358881  1
  In  In61  1  0.81151631  -0.00806063  0.85466737  1
  In  In62  1  0.66459079  0.83702334  0.13767309  1
  In  In63  1  0.00567175  0.17640219  0.16483345  1
  In  In64  1  0.34955153  0.69893557  -0.00845112  1
  In  In65  1  0.63138087  0.82650143  0.50422284  1
  In  In66  1  0.51767506  0.68448217  0.51560404  1
  In  In67  1  -0.01277021  0.50228122  0.83539142  1
  In  In68  1  0.15255553  0.31794775  0.49474511  1
  In  In69  1  0.67092146  0.31699260  0.34657327  1
  In  In70  1  0.66515775  0.50078854  0.83215296  1
  In  In71  1  -0.00736491  0.68327102  0.00325187  1
  Te  Te72  1  0.08343695  0.07463385  0.08012650  1
  Te  Te73  1  0.08522418  0.09027460  0.41487843  1
  Te  Te74  1  0.12267985  0.08160857  0.76358202  1
  Te  Te75  1  0.04572839  0.43626626  0.12132179  1
  Te  Te76  1  0.08159588  0.41001342  0.40090733  1
  Te  Te77  1  0.07851767  0.41037565  0.75055307  1
  Te  Te78  1  0.09398906  0.77567060  0.06192944  1
  Te  Te79  1  0.10989022  0.76880842  0.40315976  1
  Te  Te80  1  0.08155780  0.74278679  0.73448452  1
  Te  Te81  1  0.42599344  0.08543471  0.06265371  1
  Te  Te82  1  0.41194186  0.07716884  0.40046302  1
  Te  Te83  1  0.43189009  0.07196392  0.74891182  1
  Te  Te84  1  0.43145717  0.41138642  0.09296901  1
  Te  Te85  1  0.39466999  0.39237054  0.40721745  1
  Te  Te86  1  0.41474947  0.41209409  0.77216221  1
  Te  Te87  1  0.39573952  0.79627187  0.10026901  1
  Te  Te88  1  0.41051113  0.73892079  0.41983542  1
  Te  Te89  1  0.41485103  0.78522724  0.77396449  1
  Te  Te90  1  0.72556415  0.08186425  0.08608333  1
  Te  Te91  1  0.70717083  0.08544297  0.36034005  1
  Te  Te92  1  0.73009832  0.10178952  0.78335781  1
  Te  Te93  1  0.74730689  0.39938756  0.08532196  1
  Te  Te94  1  0.74619320  0.43462186  0.41104163  1
  Te  Te95  1  0.75932152  0.40637088  0.75699671  1
  Te  Te96  1  0.76107104  0.73828302  0.08760686  1
  Te  Te97  1  0.74735920  0.75818558  0.41595673  1
  Te  Te98  1  0.75553620  0.73479740  0.77074166  1
  Te  Te99  1  0.09490236  0.23316940  0.26740602  1
  Te  Te100  1  0.07849177  0.24339559  0.59941100  1
  Te  Te101  1  0.09078850  0.24216445  0.92716030  1
  Te  Te102  1  0.09224444  0.58624172  0.25435350  1
  Te  Te103  1  0.06878182  0.60129873  0.58547527  1
  Te  Te104  1  0.08932572  0.57300221  0.92656431  1
  Te  Te105  1  0.08350515  0.89571011  0.21396436  1
  Te  Te106  1  0.10035786  0.90062470  0.59271013  1
  Te  Te107  1  0.10312039  0.92131134  0.89812246  1
  Te  Te108  1  0.40773480  0.25655228  0.23521593  1
  Te  Te109  1  0.43199995  0.23463891  0.59393671  1
  Te  Te110  1  0.42503431  0.22338984  0.94036395  1
  Te  Te111  1  0.42290131  0.58693762  0.24972920  1
  Te  Te112  1  0.42344415  0.58029088  0.58997354  1
  Te  Te113  1  0.42738028  0.60959129  0.89810039  1
  Te  Te114  1  0.40481791  0.94497417  0.24259444  1
  Te  Te115  1  0.38290751  0.93709884  0.61098695  1
  Te  Te116  1  0.40047535  0.93693349  0.94375686  1
  Te  Te117  1  0.74143084  0.26067580  0.22908207  1
  Te  Te118  1  0.75766813  0.23918640  0.57545813  1
  Te  Te119  1  0.70008642  0.24862950  0.92031078  1
  Te  Te120  1  0.78440019  0.59964732  0.23672753  1
  Te  Te121  1  0.73086040  0.57161688  0.59476682  1
  Te  Te122  1  0.76136306  0.58520535  0.91530435  1
  Te  Te123  1  0.73958594  0.92098348  0.24166744  1
  Te  Te124  1  0.75453116  0.91579165  0.56891697  1
  Te  Te125  1  0.73390386  0.91587953  0.95366894  1
  Te  Te126  1  0.23762777  0.24668798  0.07497699  1
  Te  Te127  1  0.25253749  0.24942354  0.41058060  1
  Te  Te128  1  0.24339245  0.24706005  0.74384203  1
  Te  Te129  1  0.25678374  0.59349247  0.06929061  1
  Te  Te130  1  0.21991949  0.56841024  0.40308928  1
  Te  Te131  1  0.26011960  0.57837430  0.76154291  1
  Te  Te132  1  0.28741350  0.91214846  0.05145220  1
  Te  Te133  1  0.25028351  0.92187228  0.39789536  1
  Te  Te134  1  0.20400819  0.94753266  0.78036097  1
  Te  Te135  1  0.60756875  0.21275024  0.04527842  1
  Te  Te136  1  0.55005475  0.22807984  0.38949430  1
  Te  Te137  1  0.56191554  0.22625185  0.74094217  1
  Te  Te138  1  0.58685258  0.57741366  0.09174843  1
  Te  Te139  1  0.58985234  0.57818208  0.43051004  1
  Te  Te140  1  0.56366653  0.59190720  0.77211015  1
  Te  Te141  1  0.56921348  0.91660694  0.05972036  1
  Te  Te142  1  0.57976459  0.92758393  0.40549921  1
  Te  Te143  1  0.58777914  0.92094030  0.75231801  1
  Te  Te144  1  0.89530184  0.25292239  0.09242847  1
  Te  Te145  1  0.93175746  0.27782809  0.39495407  1
  Te  Te146  1  0.90909452  0.25747757  0.76541094  1
  Te  Te147  1  0.92980982  0.58459130  0.09534466  1
  Te  Te148  1  0.90834066  0.58166423  0.41850998  1
  Te  Te149  1  0.91930108  0.60467290  0.75433165  1
  Te  Te150  1  0.91133412  0.88968727  0.08522552  1
  Te  Te151  1  0.92087968  0.92612746  0.41345764  1
  Te  Te152  1  0.91616965  0.93677690  0.75553054  1
  Te  Te153  1  0.23453989  0.07848454  0.25030535  1
  Te  Te154  1  0.24987344  0.08390864  0.59825331  1
  Te  Te155  1  0.28007479  0.03187193  0.89245518  1
  Te  Te156  1  0.24866749  0.41147396  0.26252368  1
  Te  Te157  1  0.25241674  0.42750355  0.57974325  1
  Te  Te158  1  0.26824867  0.43877029  0.91640396  1
  Te  Te159  1  0.25646941  0.77076935  0.23289564  1
  Te  Te160  1  0.25425797  0.76114940  0.60397921  1
  Te  Te161  1  0.25543922  0.77912666  0.90797321  1
  Te  Te162  1  0.59066103  0.10271167  0.25625453  1
  Te  Te163  1  0.58313665  0.07275488  0.58064934  1
  Te  Te164  1  0.60347702  0.10446121  0.93111162  1
  Te  Te165  1  0.57837602  0.40764448  0.24948035  1
  Te  Te166  1  0.59978548  0.41320227  0.57505836  1
  Te  Te167  1  0.59671050  0.40920290  0.93581233  1
  Te  Te168  1  0.57877890  0.74699548  0.25239556  1
  Te  Te169  1  0.60722953  0.73909817  0.62661363  1
  Te  Te170  1  0.56002880  0.75450242  0.92253685  1
  Te  Te171  1  0.91379660  0.08068822  0.25869575  1
  Te  Te172  1  0.91229709  0.07131330  0.58050725  1
  Te  Te173  1  0.92039302  0.08709332  0.92800306  1
  Te  Te174  1  0.93067094  0.39006210  0.21967686  1
  Te  Te175  1  0.92907095  0.40468626  0.59732464  1
  Te  Te176  1  0.90633806  0.40094306  0.91663919  1
  Te  Te177  1  0.93698488  0.75796029  0.22977062  1
  Te  Te178  1  0.91571001  0.75131092  0.59275410  1
  Te  Te179  1  0.89859399  0.75617974  0.91440955  1
