# generated using pymatgen
data_In2Te3
_symmetry_space_group_name_H-M   'P 1'
_cell_length_a   18.94351052
_cell_length_b   18.92247837
_cell_length_c   18.90863243
_cell_angle_alpha   90.01145791
_cell_angle_beta   89.93846936
_cell_angle_gamma   90.22999362
_symmetry_Int_Tables_number   1
_chemical_formula_structural   In2Te3
_chemical_formula_sum   'In72 Te108'
_cell_volume   6777.89509781
_cell_formula_units_Z   36
loop_
 _symmetry_equiv_pos_site_id
 _symmetry_equiv_pos_as_xyz
  1  'x, y, z'
loop_
 _atom_site_type_symbol
 _atom_site_label
 _atom_site_symmetry_multiplicity
 _atom_site_fract_x
 _atom_site_fract_y
 _atom_site_fract_z
 _atom_site_occupancy
  In  In0  1  -0.01438476  0.50885678  0.48545993  1
  In  In1  1  0.15632122  0.00606179  0.49715952  1
  In  In2  1  0.81528344  0.17265561  0.02399370  1
  In  In3  1  0.68477859  0.66046202  0.01693909  1
  In  In4  1  0.16575414  0.02404834  0.18462955  1
  In  In5  1  -0.01855508  0.49654892  0.17014876  1
  In  In6  1  0.64506810  0.66613567  0.33354889  1
  In  In7  1  0.01217396  0.84040118  0.81192402  1
  In  In8  1  -0.03545774  0.02838265  0.64574140  1
  In  In9  1  0.19727057  0.35553735  0.80376558  1
  In  In10  1  0.51202774  0.31722644  0.17171702  1
  In  In11  1  0.83607353  0.66341951  0.19498195  1
  In  In12  1  0.39864945  0.30545893  0.01622017  1
  In  In13  1  0.31259091  0.67827440  0.66609090  1
  In  In14  1  0.83443295  0.84785799  -0.02082016  1
  In  In15  1  0.34852460  0.85713381  0.82112480  1
  In  In16  1  0.50764089  0.66447324  0.14854313  1
  In  In17  1  -0.03747581  0.51264290  0.83470350  1
  In  In18  1  0.33226513  0.00198961  0.67304766  1
  In  In19  1  0.15843674  0.49182010  0.32183763  1
  In  In20  1  0.15957076  0.48276796  0.63325562  1
  In  In21  1  0.86205470  0.32445046  0.81851389  1
  In  In22  1  0.17101809  0.16741390  0.65302903  1
  In  In23  1  0.15171389  0.67049898  0.17932814  1
  In  In24  1  0.15343599  0.82717849  0.61749685  1
  In  In25  1  0.48776491  0.83863309  0.30022653  1
  In  In26  1  0.02787156  0.30824838  0.66033836  1
  In  In27  1  0.18488050  0.16774390  -0.00372622  1
  In  In28  1  0.19120824  0.34507020  0.15676130  1
  In  In29  1  0.17936009  0.17150938  0.35851645  1
  In  In30  1  0.49878936  0.00752043  0.84144038  1
  In  In31  1  -0.01428758  0.33828552  0.30859853  1
  In  In32  1  0.52221232  -0.00885096  0.16283280  1
  In  In33  1  -0.01133138  0.84219894  0.15846446  1
  In  In34  1  0.54757861  0.67075891  0.84841490  1
  In  In35  1  0.18647649  0.00449152  0.85552211  1
  In  In36  1  0.16222971  0.67450750  0.80372293  1
  In  In37  1  0.12623943  0.82210069  0.36617211  1
  In  In38  1  0.47767668  0.84245060  0.68031045  1
  In  In39  1  0.82220650  0.34556801  0.48459818  1
  In  In40  1  0.82040559  0.50645977  0.64151253  1
  In  In41  1  0.65111679  0.17137668  0.84727767  1
  In  In42  1  0.51487691  0.03980098  0.52313824  1
  In  In43  1  0.82378207  0.03928458  0.82805581  1
  In  In44  1  0.16432232  0.83140188  0.00887235  1
  In  In45  1  0.65670234  0.84907895  0.52085122  1
  In  In46  1  0.35469573  0.02213505  0.02664049  1
  In  In47  1  0.82402413  0.66873766  0.82767899  1
  In  In48  1  0.48189546  0.65934582  0.50534902  1
  In  In49  1  0.64119009  0.45778944  0.85996343  1
  In  In50  1  0.00736101  0.17283446  0.81997665  1
  In  In51  1  0.80263528  0.46952387  0.03476678  1
  In  In52  1  0.65265608  0.84126200  0.85287883  1
  In  In53  1  0.79839716  0.17257150  0.33331972  1
  In  In54  1  0.66379985  0.31548993  0.66877351  1
  In  In55  1  0.17355954  0.50768584  -0.03093098  1
  In  In56  1  0.49829112  0.46446598  0.33028425  1
  In  In57  1  0.50992015  0.50348932  0.65897924  1
  In  In58  1  0.65510365  -0.00383379  0.33059250  1
  In  In59  1  0.51518735  0.31772470  0.49672994  1
  In  In60  1  0.85752391  0.80824124  0.62590366  1
  In  In61  1  0.70525146  0.66516854  0.63829270  1
  In  In62  1  0.84486432  0.85373749  0.37167510  1
  In  In63  1  0.35064482  0.67594018  0.00136617  1
  In  In64  1  0.81847624  0.00992565  0.17134782  1
  In  In65  1  -0.00832860  0.15246901  0.17465649  1
  In  In66  1  0.31894931  0.49888628  0.19467549  1
  In  In67  1  0.52191433  0.17041003  0.34199983  1
  In  In68  1  0.35807022  0.51178393  0.85141996  1
  In  In69  1  0.30896103  0.66884393  0.33682926  1
  In  In70  1  0.00765832  0.30095188  0.01849956  1
  In  In71  1  0.35506364  0.32460277  0.64584194  1
  Te  Te72  1  0.08268334  0.08524358  0.07061252  1
  Te  Te73  1  0.07119602  0.08118243  0.40354764  1
  Te  Te74  1  0.09097545  0.06799841  0.74844391  1
  Te  Te75  1  0.09007873  0.43132210  0.07985691  1
  Te  Te76  1  0.07198135  0.40588594  0.41369949  1
  Te  Te77  1  0.06879518  0.42558573  0.75761506  1
  Te  Te78  1  0.06406883  0.73807374  0.07563661  1
  Te  Te79  1  0.05908946  0.72653597  0.45851027  1
  Te  Te80  1  0.06495820  0.74172363  0.70899008  1
  Te  Te81  1  0.46480632  0.10384606  0.08150436  1
  Te  Te82  1  0.42892288  0.07778840  0.41215760  1
  Te  Te83  1  0.43304831  0.08694201  0.73613859  1
  Te  Te84  1  0.41765556  0.42805972  0.10791568  1
  Te  Te85  1  0.41840439  0.41386951  0.44203502  1
  Te  Te86  1  0.42265291  0.41971853  0.75053281  1
  Te  Te87  1  0.39958453  0.75795233  0.11103107  1
  Te  Te88  1  0.41649028  0.75271913  0.40714610  1
  Te  Te89  1  0.42243054  0.72526754  0.77218835  1
  Te  Te90  1  0.72060374  0.08038906  0.08751248  1
  Te  Te91  1  0.74613104  0.06647987  0.42669709  1
  Te  Te92  1  0.72393442  0.09951886  0.73339151  1
  Te  Te93  1  0.72495082  0.36899542  0.11204697  1
  Te  Te94  1  0.77480817  0.43478024  0.37938358  1
  Te  Te95  1  0.75915488  0.41359848  0.75140792  1
  Te  Te96  1  0.77582993  0.75880255  0.08641560  1
  Te  Te97  1  0.72855888  0.76319127  0.41792183  1
  Te  Te98  1  0.74664640  0.77072781  0.74807285  1
  Te  Te99  1  0.09192001  0.25540826  0.23156309  1
  Te  Te100  1  0.06836623  0.21317407  0.55716763  1
  Te  Te101  1  0.10569339  0.26449107  0.90070817  1
  Te  Te102  1  0.05619161  0.58963160  0.26492421  1
  Te  Te103  1  0.09077126  0.58930866  0.55934937  1
  Te  Te104  1  0.07202539  0.59715854  0.90235320  1
  Te  Te105  1  0.07890518  0.91934210  0.25187280  1
  Te  Te106  1  0.04145723  0.91671229  0.57040553  1
  Te  Te107  1  0.07739953  0.92255121  0.92280801  1
  Te  Te108  1  0.42339677  0.25678318  0.27323212  1
  Te  Te109  1  0.45043120  0.22626137  0.59449668  1
  Te  Te110  1  0.45794044  0.25269702  0.89332328  1
  Te  Te111  1  0.42193341  0.59109112  0.25990664  1
  Te  Te112  1  0.39131122  0.57122613  0.58988034  1
  Te  Te113  1  0.45594954  0.58479102  0.94049121  1
  Te  Te114  1  0.41248413  0.95506220  0.25569082  1
  Te  Te115  1  0.41384733  0.92221056  0.57361980  1
  Te  Te116  1  0.42100583  0.91284368  0.93683498  1
  Te  Te117  1  0.76237737  0.25934531  0.21975529  1
  Te  Te118  1  0.73513610  0.24631631  0.55697863  1
  Te  Te119  1  0.76027387  0.25849530  0.91130487  1
  Te  Te120  1  0.71714754  0.58295254  0.23237205  1
  Te  Te121  1  0.74919040  0.57328764  0.52781051  1
  Te  Te122  1  0.75218542  0.56521661  0.91326492  1
  Te  Te123  1  0.75249538  0.90429463  0.25861749  1
  Te  Te124  1  0.77129160  0.91937748  0.58327979  1
  Te  Te125  1  0.73871833  0.94828380  0.91823620  1
  Te  Te126  1  0.27833579  0.24007076  0.09062777  1
  Te  Te127  1  0.24074321  0.24550636  0.47078880  1
  Te  Te128  1  0.26951551  0.23955408  0.74644096  1
  Te  Te129  1  0.24544172  0.58642342  0.08386377  1
  Te  Te130  1  0.24497555  0.56407320  0.41600693  1
  Te  Te131  1  0.24525706  0.55831924  0.75076603  1
  Te  Te132  1  0.24410900  0.93272023  0.08624683  1
  Te  Te133  1  0.23377020  0.90930328  0.41788577  1
  Te  Te134  1  0.22758663  0.90162723  0.74183009  1
  Te  Te135  1  0.60369511  0.28674221  0.05640734  1
  Te  Te136  1  0.62221614  0.23237332  0.43637524  1
  Te  Te137  1  0.56343704  0.26174140  0.76595368  1
  Te  Te138  1  0.60673486  0.56394401  0.09787691  1
  Te  Te139  1  0.56984352  0.56934871  0.42335465  1
  Te  Te140  1  0.61139936  0.57869341  0.74474955  1
  Te  Te141  1  0.57444665  0.88439160  0.07786296  1
  Te  Te142  1  0.56361364  0.91204174  0.42050643  1
  Te  Te143  1  0.58824372  0.92576185  0.74295292  1
  Te  Te144  1  0.89954818  0.26413446  0.12098982  1
  Te  Te145  1  0.90984491  0.24970494  0.40595710  1
  Te  Te146  1  0.90870260  0.22261629  0.71660186  1
  Te  Te147  1  0.89782573  0.58126541  0.07622813  1
  Te  Te148  1  0.87640545  0.59381452  0.43116503  1
  Te  Te149  1  0.91049827  0.60037165  0.72108404  1
  Te  Te150  1  0.91239026  0.94015043  0.07231791  1
  Te  Te151  1  0.94733302  0.93926749  0.43852315  1
  Te  Te152  1  0.90541185  0.93240289  0.75391592  1
  Te  Te153  1  0.26228052  0.11021629  0.25329085  1
  Te  Te154  1  0.26760106  0.08903892  0.56643695  1
  Te  Te155  1  0.28960536  0.09883713  0.90994579  1
  Te  Te156  1  0.26510653  0.38655839  0.28303204  1
  Te  Te157  1  0.23278715  0.37046635  0.56593770  1
  Te  Te158  1  0.27679139  0.40315154  0.92981401  1
  Te  Te159  1  0.23207236  0.77019550  0.25537071  1
  Te  Te160  1  0.26700473  0.76063337  0.55453217  1
  Te  Te161  1  0.24619275  0.74983517  0.90729407  1
  Te  Te162  1  0.60841209  0.10286473  0.23649878  1
  Te  Te163  1  0.61473521  0.05985860  0.62654738  1
  Te  Te164  1  0.56694018  0.09225798  0.94359484  1
  Te  Te165  1  0.60183003  0.37783207  0.27437928  1
  Te  Te166  1  0.60459591  0.42072367  0.57683677  1
  Te  Te167  1  0.54375201  0.37710007  0.94357736  1
  Te  Te168  1  0.59575625  0.76392025  0.22622660  1
  Te  Te169  1  0.57045699  0.74101743  0.60081908  1
  Te  Te170  1  0.58034184  0.77118885  0.96910184  1
  Te  Te171  1  0.90885847  0.07592621  0.27216713  1
  Te  Te172  1  0.87981931  0.05101220  0.52415524  1
  Te  Te173  1  0.91930670  0.10865216  0.92484709  1
  Te  Te174  1  0.88100633  0.43915013  0.26831805  1
  Te  Te175  1  0.92630780  0.40746225  0.59243140  1
  Te  Te176  1  0.92228464  0.40526450  0.93896157  1
  Te  Te177  1  0.92271849  0.76233331  0.26988534  1
  Te  Te178  1  0.91460894  0.72240221  0.51883774  1
  Te  Te179  1  0.92549004  0.75170584  0.90409575  1
