# generated using pymatgen
data_In2Te3
_symmetry_space_group_name_H-M   'P 1'
_cell_length_a   18.77853869
_cell_length_b   18.78576785
_cell_length_c   18.78036910
_cell_angle_alpha   90.02710289
_cell_angle_beta   89.99636521
_cell_angle_gamma   90.00341210
_symmetry_Int_Tables_number   1
_chemical_formula_structural   In2Te3
_chemical_formula_sum   'In72 Te108'
_cell_volume   6625.13630073
_cell_formula_units_Z   36
loop_
 _symmetry_equiv_pos_site_id
 _symmetry_equiv_pos_as_xyz
  1  'x, y, z'
loop_
 _atom_site_type_symbol
 _atom_site_label
 _atom_site_symmetry_multiplicity
 _atom_site_fract_x
 _atom_site_fract_y
 _atom_site_fract_z
 _atom_site_occupancy
  In  In0  1  0.32063661  0.17502176  0.83341800  1
  In  In1  1  0.00252694  0.81006514  0.15458293  1
  In  In2  1  0.65545854  0.65473686  0.30974073  1
  In  In3  1  0.48157106  0.18164400  0.64476223  1
  In  In4  1  0.48372293  0.83647499  0.70361800  1
  In  In5  1  0.34088780  0.82042750  0.52947500  1
  In  In6  1  0.17131215  0.49119848  0.33530328  1
  In  In7  1  0.00170258  -0.00189263  0.34804289  1
  In  In8  1  0.65307878  0.33227160  0.01172295  1
  In  In9  1  0.85242085  0.84078822  0.33901469  1
  In  In10  1  0.00142021  0.17029866  0.49277832  1
  In  In11  1  0.82209743  0.83774981  0.69178334  1
  In  In12  1  0.66162046  0.17591267  0.51295879  1
  In  In13  1  0.33536515  0.83730218  0.13708596  1
  In  In14  1  0.80795049  0.16286697  0.67549933  1
  In  In15  1  0.02205298  0.67842341  0.68054546  1
  In  In16  1  0.84656309  0.65247768  0.49490608  1
  In  In17  1  0.49020853  0.49949662  -0.00875519  1
  In  In18  1  0.69342432  0.83402046  0.52321819  1
  In  In19  1  0.49559320  0.65630852  0.50249671  1
  In  In20  1  0.48957243  0.83148563  0.32510301  1
  In  In21  1  0.80230308  0.66958589  0.14490964  1
  In  In22  1  0.82029988  0.86795792  -0.04221538  1
  In  In23  1  0.49319361  0.46661082  0.33720769  1
  In  In24  1  0.00118782  0.32726143  0.34289723  1
  In  In25  1  0.49431503  0.00129106  0.84150582  1
  In  In26  1  0.32875033  0.48916673  0.18140536  1
  In  In27  1  0.00439160  0.67734375  -0.01590266  1
  In  In28  1  0.00072495  -0.00349125  0.68085419  1
  In  In29  1  0.18341751  -0.02418891  0.80630789  1
  In  In30  1  0.34156578  0.34390938  -0.00337637  1
  In  In31  1  0.48049783  0.64543087  0.14491352  1
  In  In32  1  0.66984922  0.02612454  0.33352047  1
  In  In33  1  0.31918858  0.68479730  -0.01963661  1
  In  In34  1  0.16536748  0.65448937  0.51581141  1
  In  In35  1  0.66625625  0.16629743  0.15434013  1
  In  In36  1  0.16532324  0.66626620  0.14770495  1
  In  In37  1  0.17705833  0.00447165  0.14707551  1
  In  In38  1  -0.00492025  0.15507841  0.85016947  1
  In  In39  1  -0.00891326  0.48162992  0.17394816  1
  In  In40  1  0.16929309  0.15131190  -0.00491978  1
  In  In41  1  0.83555118  0.50545183  0.67995357  1
  In  In42  1  0.51017993  0.17307136  0.32040183  1
  In  In43  1  -0.01506719  0.64489802  0.37373586  1
  In  In44  1  0.17024770  0.18327782  0.35484918  1
  In  In45  1  0.00181936  0.34551851  0.67267771  1
  In  In46  1  0.49913534  0.33826268  0.83206440  1
  In  In47  1  0.68290690  0.45968007  0.50682919  1
  In  In48  1  0.63797160  0.86812705  0.12368474  1
  In  In49  1  0.80452487  0.52698166  -0.01647334  1
  In  In50  1  0.65147315  0.14800159  0.81827170  1
  In  In51  1  0.80870018  0.35640512  0.82775249  1
  In  In52  1  0.82509479  0.01234842  0.17662363  1
  In  In53  1  0.51885864  0.00293069  0.50487452  1
  In  In54  1  0.36786785  0.14072640  0.14723551  1
  In  In55  1  0.16802999  0.34990098  0.17024020  1
  In  In56  1  0.34112336  0.49725528  0.50351560  1
  In  In57  1  0.21002286  0.14130728  0.64203346  1
  In  In58  1  0.19892518  0.84049709  0.32385887  1
  In  In59  1  0.00514886  0.51956885  0.83366999  1
  In  In60  1  0.17519801  0.33482364  0.81190754  1
  In  In61  1  0.83953570  0.16158687  0.00643989  1
  In  In62  1  0.18660357  0.34289608  0.50573887  1
  In  In63  1  0.81459615  0.17647181  0.34138557  1
  In  In64  1  0.34184501  -0.00509615  0.34415301  1
  In  In65  1  0.02110837  -0.00988861  -0.00764142  1
  In  In66  1  0.31337082  0.53429672  0.80753708  1
  In  In67  1  0.02687743  0.84231576  0.51585062  1
  In  In68  1  0.66417431  0.48964413  0.17082179  1
  In  In69  1  0.65808469  0.67757657  0.68714441  1
  In  In70  1  0.50645438  0.50464213  0.66110012  1
  In  In71  1  -0.01424682  0.32919471  0.02651429  1
  Te  Te72  1  0.06500212  0.09603626  0.09287685  1
  Te  Te73  1  0.10305188  0.07084872  0.43585261  1
  Te  Te74  1  0.10404230  0.10430624  0.75595723  1
  Te  Te75  1  0.09190126  0.43308701  0.06773400  1
  Te  Te76  1  0.07750348  0.42366940  0.43373010  1
  Te  Te77  1  0.09853527  0.44453457  0.73660355  1
  Te  Te78  1  0.10893262  0.77162351  0.05240872  1
  Te  Te79  1  0.08958249  0.75924770  0.40025368  1
  Te  Te80  1  0.11379390  0.71562530  0.79263161  1
  Te  Te81  1  0.40891217  0.03806058  0.05059847  1
  Te  Te82  1  0.42790982  0.09309750  0.42315803  1
  Te  Te83  1  0.41151636  0.08954959  0.74557195  1
  Te  Te84  1  0.43254156  0.40974168  0.10062782  1
  Te  Te85  1  0.42748410  0.38452274  0.44708138  1
  Te  Te86  1  0.40623380  0.42317233  0.74788341  1
  Te  Te87  1  0.43650562  0.75865637  0.05155047  1
  Te  Te88  1  0.40389611  0.74181003  0.41240310  1
  Te  Te89  1  0.38399268  0.75457975  0.77682554  1
  Te  Te90  1  0.73615055  0.06284636  0.06473414  1
  Te  Te91  1  0.76159706  0.07409547  0.44125775  1
  Te  Te92  1  0.76310283  0.05846524  0.77361338  1
  Te  Te93  1  0.76384123  0.41450363  0.07878285  1
  Te  Te94  1  0.77133095  0.43473560  0.39401971  1
  Te  Te95  1  0.72043854  0.43504167  0.74139425  1
  Te  Te96  1  0.73714996  0.76927415  0.05174571  1
  Te  Te97  1  0.74483726  0.74326739  0.40786591  1
  Te  Te98  1  0.73663066  0.75765343  0.78636933  1
  Te  Te99  1  0.08459193  0.24512136  0.24390149  1
  Te  Te100  1  0.08971421  0.24589475  0.59290253  1
  Te  Te101  1  0.08726807  0.26404282  0.91907208  1
  Te  Te102  1  0.08288365  0.58552328  0.25053076  1
  Te  Te103  1  0.05122904  0.58117080  0.57276590  1
  Te  Te104  1  0.10758668  0.59396482  0.91383709  1
  Te  Te105  1  0.08114215  0.91426332  0.24562201  1
  Te  Te106  1  0.10677381  0.91400304  0.61772415  1
  Te  Te107  1  0.07137348  0.90670456  0.87964009  1
  Te  Te108  1  0.40262893  0.24390518  0.24551608  1
  Te  Te109  1  0.40426205  0.26655902  0.55118114  1
  Te  Te110  1  0.42599899  0.23987856  0.92357036  1
  Te  Te111  1  0.41677989  0.58026690  0.26811950  1
  Te  Te112  1  0.39895368  0.60060867  0.60334033  1
  Te  Te113  1  0.42088908  0.59870915  0.90051519  1
  Te  Te114  1  0.41946693  0.92712597  0.23036478  1
  Te  Te115  1  0.41705946  0.93633166  0.59873455  1
  Te  Te116  1  0.43109599  0.90519235  0.93775781  1
  Te  Te117  1  0.71862068  0.25796995  0.26165015  1
  Te  Te118  1  0.74986109  0.26752220  0.59016339  1
  Te  Te119  1  0.74681264  0.24460802  0.91416220  1
  Te  Te120  1  0.76816321  0.56835060  0.25476467  1
  Te  Te121  1  0.73157240  0.59410920  0.58081794  1
  Te  Te122  1  0.73163065  0.61024564  0.88396090  1
  Te  Te123  1  0.74456384  0.90319737  0.24874163  1
  Te  Te124  1  0.75348585  0.93819654  0.60684149  1
  Te  Te125  1  0.70785504  0.92806130  0.88233648  1
  Te  Te126  1  0.25273718  0.24794163  0.08179208  1
  Te  Te127  1  0.27437018  0.23393523  0.44999901  1
  Te  Te128  1  0.27045278  0.26128420  0.71780277  1
  Te  Te129  1  0.26142443  0.57332995  0.07379693  1
  Te  Te130  1  0.25679730  0.59050326  0.41227305  1
  Te  Te131  1  0.22304042  0.62454284  0.73026431  1
  Te  Te132  1  0.23685187  0.90950463  0.05211301  1
  Te  Te133  1  0.25071283  0.92031987  0.44298347  1
  Te  Te134  1  0.30086987  0.89050137  0.76733516  1
  Te  Te135  1  0.56047396  0.24154177  0.08199477  1
  Te  Te136  1  0.60714535  0.25588544  0.39931987  1
  Te  Te137  1  0.58328944  0.25661102  0.73501289  1
  Te  Te138  1  0.60296376  0.58744103  0.06862944  1
  Te  Te139  1  0.58724272  0.56902469  0.41703839  1
  Te  Te140  1  0.55752981  0.60085259  0.76259122  1
  Te  Te141  1  0.54203752  0.95037881  0.03416194  1
  Te  Te142  1  0.59297453  0.90481296  0.41160260  1
  Te  Te143  1  0.59609803  0.90946166  0.77094248  1
  Te  Te144  1  0.89867025  0.24687486  0.11166074  1
  Te  Te145  1  0.89632432  0.26442111  0.43658265  1
  Te  Te146  1  0.91489952  0.25176247  0.76276406  1
  Te  Te147  1  0.92027511  0.58633197  0.07796866  1
  Te  Te148  1  0.89386171  0.53126851  0.41651124  1
  Te  Te149  1  0.90710325  0.61147211  0.76148278  1
  Te  Te150  1  0.91124923  0.91309866  0.08855698  1
  Te  Te151  1  0.91368670  0.92528554  0.44934203  1
  Te  Te152  1  0.93885296  0.89268872  0.77005125  1
  Te  Te153  1  0.25003015  0.08514568  0.25497141  1
  Te  Te154  1  0.28638274  0.03644891  0.57658690  1
  Te  Te155  1  0.25888592  0.06087858  0.91503852  1
  Te  Te156  1  0.26853439  0.38775386  0.28049742  1
  Te  Te157  1  0.24469104  0.44003464  0.59997204  1
  Te  Te158  1  0.25284730  0.42697016  0.90705185  1
  Te  Te159  1  0.26895079  0.73800509  0.23559304  1
  Te  Te160  1  0.23165016  0.75252103  0.60671975  1
  Te  Te161  1  0.26196520  0.77783864  0.87623828  1
  Te  Te162  1  0.57171810  0.06597956  0.22754161  1
  Te  Te163  1  0.59456363  0.07879686  0.61134807  1
  Te  Te164  1  0.56972944  0.09746397  0.93070263  1
  Te  Te165  1  0.58656898  0.39210834  0.25025230  1
  Te  Te166  1  0.56553160  0.39951763  0.57250038  1
  Te  Te167  1  0.59683477  0.42926336  0.90694655  1
  Te  Te168  1  0.57592185  0.75291422  0.22272223  1
  Te  Te169  1  0.56840690  0.76674578  0.58317147  1
  Te  Te170  1  0.62417733  0.69284904  0.95304173  1
  Te  Te171  1  0.91995121  0.09497104  0.26292550  1
  Te  Te172  1  0.91846395  0.09024818  0.59447247  1
  Te  Te173  1  0.90305335  0.05525331  0.91579560  1
  Te  Te174  1  0.90346081  0.39125592  0.24964222  1
  Te  Te175  1  0.90451047  0.41460102  0.58653620  1
  Te  Te176  1  0.91660177  0.42176087  0.91673752  1
  Te  Te177  1  0.91371127  0.73033900  0.25097286  1
  Te  Te178  1  0.91486896  0.75714968  0.58473441  1
  Te  Te179  1  0.90958682  0.76076553  0.90674153  1
