# generated using pymatgen
data_In2Te3
_symmetry_space_group_name_H-M   'P 1'
_cell_length_a   19.00294139
_cell_length_b   19.03843363
_cell_length_c   19.01106834
_cell_angle_alpha   89.80106805
_cell_angle_beta   89.82862864
_cell_angle_gamma   90.11415820
_symmetry_Int_Tables_number   1
_chemical_formula_structural   In2Te3
_chemical_formula_sum   'In72 Te108'
_cell_volume   6877.85688874
_cell_formula_units_Z   36
loop_
 _symmetry_equiv_pos_site_id
 _symmetry_equiv_pos_as_xyz
  1  'x, y, z'
loop_
 _atom_site_type_symbol
 _atom_site_label
 _atom_site_symmetry_multiplicity
 _atom_site_fract_x
 _atom_site_fract_y
 _atom_site_fract_z
 _atom_site_occupancy
  In  In0  1  0.16304253  0.67873904  0.49206132  1
  In  In1  1  0.83208660  0.66177723  0.15420936  1
  In  In2  1  0.65833246  0.64705965  0.34047004  1
  In  In3  1  0.15734803  0.16990131  0.32083996  1
  In  In4  1  0.81291373  0.64558694  0.85312513  1
  In  In5  1  0.85547617  0.33044375  0.49749263  1
  In  In6  1  0.01736304  0.66227245  0.00003832  1
  In  In7  1  0.69403803  0.33815286  0.33681674  1
  In  In8  1  0.00808257  0.52418400  0.83139028  1
  In  In9  1  0.83311740  0.17238575  0.66353572  1
  In  In10  1  0.64667009  0.79314365  0.49456176  1
  In  In11  1  0.00169110  0.35604853  0.00444133  1
  In  In12  1  0.65520706  0.17140840  0.50395314  1
  In  In13  1  0.52058904  0.31124121  0.16505017  1
  In  In14  1  0.32784384  0.16344218  0.17314511  1
  In  In15  1  0.66477744  0.65419169  0.67929753  1
  In  In16  1  0.33200445  0.84794260  0.48733331  1
  In  In17  1  0.01656619  0.84404735  0.50873037  1
  In  In18  1  0.02179695  0.69444955  0.67609537  1
  In  In19  1  0.83646853  0.83031035  0.31819261  1
  In  In20  1  0.31261803  -0.00444605  0.64990948  1
  In  In21  1  0.63133971  0.82649579  0.85510707  1
  In  In22  1  0.49857150  0.33162655  0.51012286  1
  In  In23  1  0.49619177  0.84510514  0.31129643  1
  In  In24  1  0.36244799  0.53147590  0.83072462  1
  In  In25  1  0.19897418  0.49395552  0.67447593  1
  In  In26  1  0.68650308  0.83794234  0.14284545  1
  In  In27  1  0.50623042  0.47032325  0.33494538  1
  In  In28  1  0.51069145  0.49571646  0.00763839  1
  In  In29  1  0.43427370  0.77886428  -0.04410302  1
  In  In30  1  0.85085775  -0.00596405  0.84489123  1
  In  In31  1  0.00555295  0.02955762  0.66877959  1
  In  In32  1  0.01990040  0.00279295  -0.00810168  1
  In  In33  1  0.47505953  -0.01379823  0.85806429  1
  In  In34  1  0.65411819  0.00752695  0.01149026  1
  In  In35  1  -0.00417527  0.50790098  0.49485592  1
  In  In36  1  0.83650110  0.83345209  0.66575047  1
  In  In37  1  0.52361661  0.17040991  -0.00079101  1
  In  In38  1  0.81389212  0.48734938  0.67930342  1
  In  In39  1  0.15343186  0.17731021  0.01649746  1
  In  In40  1  0.49489920  -0.00779986  0.16529829  1
  In  In41  1  0.35926664  0.34156776  0.00292606  1
  In  In42  1  0.86266827  0.50252582  0.32697109  1
  In  In43  1  0.16489195  -0.01065441  0.82928721  1
  In  In44  1  0.19578262  0.81101286  0.68446605  1
  In  In45  1  0.82173562  0.35043063  0.12865852  1
  In  In46  1  0.31232301  0.52470823  0.17046129  1
  In  In47  1  0.81689832  0.31709682  0.84943441  1
  In  In48  1  0.64224403  -0.01637881  0.69673389  1
  In  In49  1  0.32581963  0.87107197  0.16381669  1
  In  In50  1  0.00714346  -0.03184494  0.32064349  1
  In  In51  1  0.16657397  0.01207446  0.49991898  1
  In  In52  1  0.51697216  0.50224291  0.66976364  1
  In  In53  1  0.31269829  0.67826199  0.32302778  1
  In  In54  1  0.30379324  0.14877719  0.83001974  1
  In  In55  1  0.01168897  0.50350113  0.15933990  1
  In  In56  1  0.54960837  0.04682294  0.35939485  1
  In  In57  1  0.84341490  0.19223847  0.34336706  1
  In  In58  1  0.18107242  0.35614245  0.85240777  1
  In  In59  1  0.33382983  0.32847298  0.64565184  1
  In  In60  1  0.02276738  0.82605890  0.13007304  1
  In  In61  1  0.85083618  0.82237662  -0.00223899  1
  In  In62  1  0.31820827  0.31594603  0.34022498  1
  In  In63  1  -0.00228654  0.18136475  0.17549785  1
  In  In64  1  0.02971015  0.29535720  0.65261819  1
  In  In65  1  0.50547717  0.65722527  0.15400699  1
  In  In66  1  0.14661707  0.50898099  0.33250855  1
  In  In67  1  0.50375457  0.18426995  0.67552403  1
  In  In68  1  0.81865373  0.00926623  0.52587604  1
  In  In69  1  0.81148132  0.03078494  0.15271374  1
  In  In70  1  0.48527551  0.64097982  0.50939687  1
  In  In71  1  0.51613472  0.33196853  0.83758085  1
  Te  Te72  1  0.08416598  0.07726312  0.10682418  1
  Te  Te73  1  0.06565253  0.07460597  0.40772407  1
  Te  Te74  1  0.08860081  0.09708603  0.76712694  1
  Te  Te75  1  0.10579587  0.43812820  0.06689241  1
  Te  Te76  1  0.06712061  0.41151334  0.41072469  1
  Te  Te77  1  0.08474099  0.41577178  0.74731901  1
  Te  Te78  1  0.12562685  0.74929801  0.05523228  1
  Te  Te79  1  0.08430742  0.76603941  0.40577935  1
  Te  Te80  1  0.10380570  0.75004669  0.78201486  1
  Te  Te81  1  0.42194182  0.09039013  0.07656841  1
  Te  Te82  1  0.41201939  0.06613923  0.39389822  1
  Te  Te83  1  0.41198472  0.08021501  0.74903502  1
  Te  Te84  1  0.41948839  0.41767990  0.11924494  1
  Te  Te85  1  0.40113533  0.41099216  0.42546250  1
  Te  Te86  1  0.41008404  0.40443879  0.75537270  1
  Te  Te87  1  0.40037672  0.74902710  0.10513846  1
  Te  Te88  1  0.43116190  0.74428182  0.40412688  1
  Te  Te89  1  0.34789436  0.74226514  0.78063052  1
  Te  Te90  1  0.75421615  0.11225290  0.04300416  1
  Te  Te91  1  0.75206941  0.09283438  0.41836442  1
  Te  Te92  1  0.75977506  0.06665688  0.74531087  1
  Te  Te93  1  0.77957182  0.46254312  0.04375226  1
  Te  Te94  1  0.76964342  0.43232974  0.42608150  1
  Te  Te95  1  0.73152863  0.39468465  0.75653917  1
  Te  Te96  1  0.74219262  0.73073887  0.05264406  1
  Te  Te97  1  0.75936613  0.73561660  0.41159568  1
  Te  Te98  1  0.74451143  0.76267813  0.76456548  1
  Te  Te99  1  0.09526220  0.27055722  0.23400755  1
  Te  Te100  1  0.12376569  0.22293935  0.56719763  1
  Te  Te101  1  0.08164631  0.26035288  0.91375031  1
  Te  Te102  1  0.09674440  0.60693115  0.22904603  1
  Te  Te103  1  0.09174405  0.58536924  0.59587761  1
  Te  Te104  1  0.10547777  0.56452185  0.93262038  1
  Te  Te105  1  0.09946900  0.90556367  0.22686555  1
  Te  Te106  1  0.10015506  0.91539579  0.61115639  1
  Te  Te107  1  0.08544658  0.89882579  0.91348999  1
  Te  Te108  1  0.42475009  0.24128828  0.25989746  1
  Te  Te109  1  0.40774406  0.22287335  0.56545535  1
  Te  Te110  1  0.40857688  0.23463713  0.90840014  1
  Te  Te111  1  0.42600856  0.58105083  0.26664586  1
  Te  Te112  1  0.40342635  0.55860419  0.59703646  1
  Te  Te113  1  0.39943836  0.58613763  0.96445118  1
  Te  Te114  1  0.39646709  0.95923649  0.28820780  1
  Te  Te115  1  0.41566891  0.93845904  0.56451094  1
  Te  Te116  1  0.37865149  0.92020294  0.95149853  1
  Te  Te117  1  0.75937296  0.25077066  0.23266268  1
  Te  Te118  1  0.74624180  0.26320091  0.58067289  1
  Te  Te119  1  0.72851645  0.25139654  0.94818910  1
  Te  Te120  1  0.75294716  0.57307834  0.24794706  1
  Te  Te121  1  0.75446273  0.58552116  0.58848383  1
  Te  Te122  1  0.73748406  0.53551530  0.91283332  1
  Te  Te123  1  0.74478829  0.92778525  0.24800517  1
  Te  Te124  1  0.72261633  0.90200019  0.58765682  1
  Te  Te125  1  0.74503485  0.91224943  0.92247158  1
  Te  Te126  1  0.25577517  0.26502495  0.08515825  1
  Te  Te127  1  0.23097008  0.23758029  0.43113808  1
  Te  Te128  1  0.24382594  0.26201889  0.75256455  1
  Te  Te129  1  0.20931396  0.61809798  0.12372661  1
  Te  Te130  1  0.25074244  0.57906419  0.41890514  1
  Te  Te131  1  0.25376779  0.60476963  0.75719595  1
  Te  Te132  1  0.26051459  0.93426095  0.05070999  1
  Te  Te133  1  0.22001536  0.90601317  0.41463216  1
  Te  Te134  1  0.28392811  0.90260506  0.76748214  1
  Te  Te135  1  0.60906632  0.28419337  0.04491532  1
  Te  Te136  1  0.58380181  0.25856954  0.40411718  1
  Te  Te137  1  0.60477035  0.24431965  0.76076719  1
  Te  Te138  1  0.60362545  0.56961155  0.09394335  1
  Te  Te139  1  0.58457809  0.55434760  0.43444187  1
  Te  Te140  1  0.56077175  0.60239399  0.77016313  1
  Te  Te141  1  0.56835658  0.89772023  0.07079618  1
  Te  Te142  1  0.59218777  0.90653877  0.41109393  1
  Te  Te143  1  0.53641704  0.89125405  0.75632397  1
  Te  Te144  1  0.91588891  0.24752838  0.06773458  1
  Te  Te145  1  0.95133565  0.26960716  0.40462066  1
  Te  Te146  1  0.92343099  0.25099488  0.75238261  1
  Te  Te147  1  0.90965157  0.57110979  0.06141170  1
  Te  Te148  1  0.93380404  0.60302800  0.40421030  1
  Te  Te149  1  0.91031688  0.59788872  0.73900747  1
  Te  Te150  1  0.90575184  0.92735103  0.09022713  1
  Te  Te151  1  0.89846463  0.91851661  0.43151377  1
  Te  Te152  1  0.93295321  0.91482670  0.74575185  1
  Te  Te153  1  0.23733033  0.07398605  0.24415944  1
  Te  Te154  1  0.22012274  0.10479564  0.60514345  1
  Te  Te155  1  0.23786896  0.07489129  0.94316991  1
  Te  Te156  1  0.24416276  0.42074629  0.25536311  1
  Te  Te157  1  0.22962192  0.39805843  0.56993909  1
  Te  Te158  1  0.27607025  0.44294871  0.92828362  1
  Te  Te159  1  0.24433922  0.78684833  0.25394461  1
  Te  Te160  1  0.27319069  0.73977954  0.57604003  1
  Te  Te161  1  0.30295279  0.71776281  0.91664378  1
  Te  Te162  1  0.59453032  0.08158124  0.22507090  1
  Te  Te163  1  0.57951280  0.07654035  0.59423544  1
  Te  Te164  1  0.58697794  0.07982732  0.89552993  1
  Te  Te165  1  0.60681546  0.41365372  0.23747897  1
  Te  Te166  1  0.59286067  0.40507030  0.59238579  1
  Te  Te167  1  0.59566688  0.44163567  0.89846893  1
  Te  Te168  1  0.60238251  0.75127883  0.24356423  1
  Te  Te169  1  0.55685632  0.73811011  0.60065458  1
  Te  Te170  1  0.56030083  0.71221558  0.91177008  1
  Te  Te171  1  0.91140916  0.07608330  0.25876383  1
  Te  Te172  1  0.92729278  0.10652827  0.56446142  1
  Te  Te173  1  0.93371098  0.09061102  0.91415144  1
  Te  Te174  1  0.92200841  0.40381330  0.23047407  1
  Te  Te175  1  0.93164837  0.40893341  0.60303627  1
  Te  Te176  1  0.91773824  0.42340469  0.89864586  1
  Te  Te177  1  0.92721987  0.75145657  0.22807784  1
  Te  Te178  1  0.91967890  0.74708136  0.57529031  1
  Te  Te179  1  0.92438447  0.73796579  0.90045389  1
