# generated using pymatgen
data_In2Te3
_symmetry_space_group_name_H-M   'P 1'
_cell_length_a   18.93645868
_cell_length_b   18.94579770
_cell_length_c   18.93427884
_cell_angle_alpha   89.99868010
_cell_angle_beta   89.99384301
_cell_angle_gamma   89.93615525
_symmetry_Int_Tables_number   1
_chemical_formula_structural   In2Te3
_chemical_formula_sum   'In72 Te108'
_cell_volume   6792.97719314
_cell_formula_units_Z   36
loop_
 _symmetry_equiv_pos_site_id
 _symmetry_equiv_pos_as_xyz
  1  'x, y, z'
loop_
 _atom_site_type_symbol
 _atom_site_label
 _atom_site_symmetry_multiplicity
 _atom_site_fract_x
 _atom_site_fract_y
 _atom_site_fract_z
 _atom_site_occupancy
  In  In0  1  0.65964867  0.85018472  0.83497161  1
  In  In1  1  0.68132303  0.33225707  0.67204467  1
  In  In2  1  0.67266443  0.82358488  0.18531879  1
  In  In3  1  0.32955221  0.50120128  0.48001335  1
  In  In4  1  0.49151559  0.52736265  0.67023326  1
  In  In5  1  0.01356900  0.16762155  0.50602003  1
  In  In6  1  0.81677482  0.83231546  0.35008408  1
  In  In7  1  0.14719538  0.84924495  0.34067698  1
  In  In8  1  0.64608674  0.81134321  0.51843179  1
  In  In9  1  0.66704138  0.65870583  0.66125443  1
  In  In10  1  0.47775202  0.48168922  0.02570888  1
  In  In11  1  0.50724943  0.68193535  0.14456033  1
  In  In12  1  0.15222123  0.33285651  0.14141650  1
  In  In13  1  0.69148299  0.01512468  0.69188990  1
  In  In14  1  0.46157877  -0.02471606  0.55034732  1
  In  In15  1  0.33469587  0.00761670  0.32697148  1
  In  In16  1  0.01354064  0.83086186  0.14669556  1
  In  In17  1  0.33977318  0.49372849  0.82848128  1
  In  In18  1  0.48723121  -0.00322565  0.15270955  1
  In  In19  1  -0.00458893  0.32498066  0.32982176  1
  In  In20  1  0.47433989  0.84840015  0.32365569  1
  In  In21  1  0.34420077  0.66986000  0.31926550  1
  In  In22  1  0.31391699  0.33083383  0.31918129  1
  In  In23  1  0.18954364  0.66690114  0.51313461  1
  In  In24  1  0.49409814  0.47785307  0.30902802  1
  In  In25  1  0.66087774  0.49403345  0.16185868  1
  In  In26  1  0.84927866  0.51682470  -0.00993199  1
  In  In27  1  0.85262326  0.87340374  0.67271267  1
  In  In28  1  0.66974524  -0.01701547  0.33924465  1
  In  In29  1  0.85223619  0.31223744  0.17184730  1
  In  In30  1  -0.00100075  0.49208891  0.84217457  1
  In  In31  1  0.01010397  0.85021257  0.52165712  1
  In  In32  1  0.17176786  0.46269839  0.29199864  1
  In  In33  1  0.47555761  0.68896505  0.83127988  1
  In  In34  1  0.16676787  0.49679266  0.69569360  1
  In  In35  1  0.02955435  0.15271794  0.15715065  1
  In  In36  1  0.12704873  0.32225725  0.87641370  1
  In  In37  1  0.17294444  0.12868805  0.71372127  1
  In  In38  1  0.50002740  0.15995685  0.34883354  1
  In  In39  1  0.30087332  0.30856270  0.67916673  1
  In  In40  1  0.65244887  0.01527021  -0.01326292  1
  In  In41  1  0.32867754  0.74664904  0.68640816  1
  In  In42  1  0.67852405  0.51070750  0.46993283  1
  In  In43  1  0.83959581  0.65453466  0.15768239  1
  In  In44  1  0.17373802  0.51002424  0.00295024  1
  In  In45  1  0.01223262  -0.00642631  0.30519723  1
  In  In46  1  -0.00651600  0.49496020  0.51973868  1
  In  In47  1  0.49860921  0.15243464  -0.01506270  1
  In  In48  1  0.31046853  0.19296922  0.17247731  1
  In  In49  1  0.00771094  0.65248049  0.31897794  1
  In  In50  1  0.17026151  0.30930783  0.48953601  1
  In  In51  1  0.51271402  0.32483539  0.53396306  1
  In  In52  1  0.46776579  0.84757333  -0.01175356  1
  In  In53  1  0.83907304  0.02913812  0.51280514  1
  In  In54  1  0.50631506  0.68845824  0.50240075  1
  In  In55  1  0.83365257  0.29568769  0.81999135  1
  In  In56  1  0.67028936  0.17986901  0.14892732  1
  In  In57  1  0.20011856  0.69852049  0.84432163  1
  In  In58  1  0.83045382  0.66504855  0.82638152  1
  In  In59  1  0.84704867  0.84798241  0.00209116  1
  In  In60  1  0.16993968  0.00004052  0.52732037  1
  In  In61  1  0.66266759  0.34610993  -0.01118092  1
  In  In62  1  0.83318890  0.18267221  0.00122384  1
  In  In63  1  0.84524659  0.47190220  0.67971559  1
  In  In64  1  0.04862202  0.01546164  -0.02063550  1
  In  In65  1  0.67477467  0.16306026  0.51599826  1
  In  In66  1  0.49386661  0.30825854  0.83860254  1
  In  In67  1  0.00976355  0.83314989  0.82531858  1
  In  In68  1  0.85039157  0.68892340  0.50147248  1
  In  In69  1  0.81763190  0.47580261  0.31134918  1
  In  In70  1  0.46746629  0.15086088  0.67691349  1
  In  In71  1  0.17979480  0.67073707  0.14568670  1
  Te  Te72  1  0.13694792  0.09485878  0.06977249  1
  Te  Te73  1  0.08583109  0.06678099  0.41730983  1
  Te  Te74  1  0.07852121  0.02153484  0.76240716  1
  Te  Te75  1  0.06989927  0.42329532  0.06165455  1
  Te  Te76  1  0.08786583  0.42400915  0.41923593  1
  Te  Te77  1  0.07202326  0.39325268  0.75132148  1
  Te  Te78  1  0.09730909  0.75295052  0.05268020  1
  Te  Te79  1  0.07305845  0.74037228  0.42711595  1
  Te  Te80  1  0.11135145  0.76127687  0.74250195  1
  Te  Te81  1  0.39714101  0.09651282  0.08729384  1
  Te  Te82  1  0.41709887  0.07085575  0.43843774  1
  Te  Te83  1  0.36551472  0.05997633  0.73334970  1
  Te  Te84  1  0.40358179  0.38388143  0.10174395  1
  Te  Te85  1  0.42198237  0.39529307  0.42515807  1
  Te  Te86  1  0.41556039  0.40665767  0.72591811  1
  Te  Te87  1  0.39741516  0.75821579  0.08200231  1
  Te  Te88  1  0.39740807  0.76397315  0.42477726  1
  Te  Te89  1  0.39190241  0.81253063  0.80566103  1
  Te  Te90  1  0.75658603  0.07702270  0.08102656  1
  Te  Te91  1  0.75316389  0.09109167  0.40369274  1
  Te  Te92  1  0.77090844  0.12376996  0.74698336  1
  Te  Te93  1  0.76387313  0.40915118  0.08320999  1
  Te  Te94  1  0.76368758  0.40191244  0.42464581  1
  Te  Te95  1  0.74419704  0.41928095  0.77763836  1
  Te  Te96  1  0.75388307  0.75184782  0.07881674  1
  Te  Te97  1  0.72864486  0.73008084  0.41873931  1
  Te  Te98  1  0.75017982  0.76805561  0.73661589  1
  Te  Te99  1  0.10212636  0.24892166  0.25668125  1
  Te  Te100  1  0.11416139  0.22737939  0.60282917  1
  Te  Te101  1  0.04107456  0.20752901  0.90160311  1
  Te  Te102  1  0.08946335  0.57249647  0.22211812  1
  Te  Te103  1  0.09049721  0.58451933  0.59549311  1
  Te  Te104  1  0.10261460  0.59023492  0.89399619  1
  Te  Te105  1  0.11314023  0.92579649  0.21357760  1
  Te  Te106  1  0.05562302  0.95646495  0.61608074  1
  Te  Te107  1  0.09808294  0.87923588  0.93976222  1
  Te  Te108  1  0.42911493  0.25069739  0.25282200  1
  Te  Te109  1  0.39409363  0.24136097  0.57845768  1
  Te  Te110  1  0.39652737  0.23047843  0.91215642  1
  Te  Te111  1  0.42203294  0.58120438  0.22574150  1
  Te  Te112  1  0.39996945  0.59870098  0.57232208  1
  Te  Te113  1  0.41618053  0.58315486  0.92234344  1
  Te  Te114  1  0.38249126  0.90930971  0.21905893  1
  Te  Te115  1  0.38269472  0.86819529  0.60753241  1
  Te  Te116  1  0.40336316  0.97489503  0.94634648  1
  Te  Te117  1  0.74730372  0.24918133  0.25139435  1
  Te  Te118  1  0.76772082  0.25213927  0.58588476  1
  Te  Te119  1  0.72424384  0.23363109  0.90800056  1
  Te  Te120  1  0.73934519  0.59078262  0.25140976  1
  Te  Te121  1  0.77054565  0.57945634  0.58333641  1
  Te  Te122  1  0.74567037  0.58903548  0.91714621  1
  Te  Te123  1  0.77041583  0.92641774  0.23961978  1
  Te  Te124  1  0.74597126  0.91665074  0.56744766  1
  Te  Te125  1  0.75945613  0.93514442  0.91128734  1
  Te  Te126  1  0.22536852  0.23617102  0.05600730  1
  Te  Te127  1  0.25938503  0.22733610  0.40826137  1
  Te  Te128  1  0.23630464  0.24179281  0.79515919  1
  Te  Te129  1  0.27674963  0.58566137  0.07564242  1
  Te  Te130  1  0.23568251  0.57936824  0.38949878  1
  Te  Te131  1  0.27277045  0.59887143  0.73998603  1
  Te  Te132  1  0.26248114  0.91572991  -0.00764306  1
  Te  Te133  1  0.25026295  0.92016102  0.42378358  1
  Te  Te134  1  0.22059708  0.96779415  0.76715124  1
  Te  Te135  1  0.56966474  0.25888659  0.07175300  1
  Te  Te136  1  0.59131859  0.25399679  0.42558205  1
  Te  Te137  1  0.57809008  0.23794295  0.73516287  1
  Te  Te138  1  0.58952882  0.58372427  0.06401740  1
  Te  Te139  1  0.55741029  0.57730390  0.41053939  1
  Te  Te140  1  0.58390974  0.59316691  0.76943199  1
  Te  Te141  1  0.59238713  0.90829549  0.08506013  1
  Te  Te142  1  0.56823458  0.91235320  0.42784955  1
  Te  Te143  1  0.57781321  0.94557284  0.75620722  1
  Te  Te144  1  0.94864596  0.25216651  0.07266930  1
  Te  Te145  1  0.91857753  0.24367317  0.42259089  1
  Te  Te146  1  0.90629269  0.19970074  0.73350906  1
  Te  Te147  1  0.94111456  0.59792105  0.07058619  1
  Te  Te148  1  0.91146000  0.57768099  0.41038225  1
  Te  Te149  1  0.92746360  0.58283872  0.74353869  1
  Te  Te150  1  0.94187223  0.94154664  0.07203996  1
  Te  Te151  1  0.91607946  0.92139062  0.42419126  1
  Te  Te152  1  0.91617942  0.94232081  0.78490567  1
  Te  Te153  1  0.24029229  0.09460897  0.25686454  1
  Te  Te154  1  0.27126265  0.07650950  0.60842130  1
  Te  Te155  1  0.25675916  0.03523821  0.90003455  1
  Te  Te156  1  0.28721310  0.42256956  0.19738928  1
  Te  Te157  1  0.24626873  0.42199463  0.58072561  1
  Te  Te158  1  0.25041305  0.41102914  0.91420806  1
  Te  Te159  1  0.23782259  0.75771208  0.25616964  1
  Te  Te160  1  0.20920512  0.78383362  0.60195238  1
  Te  Te161  1  0.29576327  0.77366336  0.93086323  1
  Te  Te162  1  0.58025472  0.07215643  0.24836611  1
  Te  Te163  1  0.57808593  0.07085385  0.58808883  1
  Te  Te164  1  0.56770811  0.07163094  0.87978417  1
  Te  Te165  1  0.59908240  0.39559879  0.25041850  1
  Te  Te166  1  0.59407214  0.44242965  0.58908972  1
  Te  Te167  1  0.56149202  0.42357803  0.90707234  1
  Te  Te168  1  0.57188600  0.74643047  0.26751442  1
  Te  Te169  1  0.55663070  0.75919808  0.62903109  1
  Te  Te170  1  0.57612585  0.76008857  0.92249197  1
  Te  Te171  1  0.92642495  0.09329648  0.24367382  1
  Te  Te172  1  0.93115965  0.09332150  0.60958848  1
  Te  Te173  1  0.93207881  0.09903918  0.92245500  1
  Te  Te174  1  0.93522548  0.42567036  0.23307066  1
  Te  Te175  1  0.93143218  0.38782647  0.59657709  1
  Te  Te176  1  0.90449428  0.39866793  0.91237445  1
  Te  Te177  1  0.92166749  0.76234000  0.25631786  1
  Te  Te178  1  0.93071193  0.75528639  0.61065740  1
  Te  Te179  1  0.92067963  0.74598767  0.91688377  1
