# generated using pymatgen
data_In2Te3
_symmetry_space_group_name_H-M   'P 1'
_cell_length_a   18.95658198
_cell_length_b   18.95169763
_cell_length_c   18.94618238
_cell_angle_alpha   89.90568390
_cell_angle_beta   90.16125270
_cell_angle_gamma   90.15088007
_symmetry_Int_Tables_number   1
_chemical_formula_structural   In2Te3
_chemical_formula_sum   'In72 Te108'
_cell_volume   6806.53460325
_cell_formula_units_Z   36
loop_
 _symmetry_equiv_pos_site_id
 _symmetry_equiv_pos_as_xyz
  1  'x, y, z'
loop_
 _atom_site_type_symbol
 _atom_site_label
 _atom_site_symmetry_multiplicity
 _atom_site_fract_x
 _atom_site_fract_y
 _atom_site_fract_z
 _atom_site_occupancy
  In  In0  1  0.49031594  0.00265120  0.49537952  1
  In  In1  1  0.17883044  0.67174514  0.15463107  1
  In  In2  1  0.48337685  0.49154584  0.66085265  1
  In  In3  1  0.16665494  0.84164159  0.01181933  1
  In  In4  1  0.51777211  0.14591393  -0.00267181  1
  In  In5  1  0.32090266  0.68058320  0.30224841  1
  In  In6  1  0.46932032  0.66192371  0.83870336  1
  In  In7  1  0.15514374  0.81040284  0.67239307  1
  In  In8  1  0.50004480  0.67059641  0.50194367  1
  In  In9  1  0.83850388  0.15398213  0.00443755  1
  In  In10  1  -0.02669659  -0.00473705  0.67985473  1
  In  In11  1  0.15204710  0.02334656  0.51342785  1
  In  In12  1  0.36871690  0.35271898  0.32951083  1
  In  In13  1  0.67701772  0.50114119  0.84134818  1
  In  In14  1  0.51753490  -0.00350602  0.15485283  1
  In  In15  1  0.30874009  0.35515967  0.68189147  1
  In  In16  1  0.83340869  -0.01636507  0.13731759  1
  In  In17  1  0.35648008  0.85077045  0.84161713  1
  In  In18  1  0.83226104  0.83791385  0.32700781  1
  In  In19  1  0.66663651  0.31263300  0.67409093  1
  In  In20  1  0.85717149  0.16882295  0.34996539  1
  In  In21  1  0.18481129  0.17842108  0.66419271  1
  In  In22  1  0.33588594  0.50491406  0.16683826  1
  In  In23  1  0.65693137  0.66161645  0.64530958  1
  In  In24  1  0.01663369  -0.02069280  0.32591816  1
  In  In25  1  0.81611437  0.16095274  0.64715723  1
  In  In26  1  0.49836902  0.33218280  0.80774187  1
  In  In27  1  0.66586666  0.67273153  0.01313604  1
  In  In28  1  -0.00072919  0.35667638  0.66467749  1
  In  In29  1  0.33417541  0.82010015  0.14654867  1
  In  In30  1  0.82030346  0.82945080  0.67046981  1
  In  In31  1  0.16909950  0.34052104  0.52550829  1
  In  In32  1  0.01011187  0.81349370  0.47686466  1
  In  In33  1  0.49827411  0.14033016  0.67157830  1
  In  In34  1  0.01025980  0.33308823  0.34306987  1
  In  In35  1  0.70372420  0.01213597  0.31935575  1
  In  In36  1  0.31605257  0.84107216  0.50638954  1
  In  In37  1  0.50062384  0.65386226  0.15540931  1
  In  In38  1  0.86503658  0.53515882  0.66882355  1
  In  In39  1  0.65579711  -0.03156073  -0.00164440  1
  In  In40  1  0.16966176  0.15896148  0.01505069  1
  In  In41  1  0.17000023  0.50896980  0.34435775  1
  In  In42  1  0.64989361  0.47552225  0.23696134  1
  In  In43  1  0.17484003  -0.02016754  0.84327446  1
  In  In44  1  0.84552230  0.49512963  -0.00446772  1
  In  In45  1  0.16508332  0.67754468  0.82780936  1
  In  In46  1  0.84037868  0.70082275  0.16610488  1
  In  In47  1  0.12899330  0.54058160  0.66092763  1
  In  In48  1  0.48930596  0.50680072  -0.01667193  1
  In  In49  1  0.16626960  0.14259170  0.31609429  1
  In  In50  1  0.84171196  0.33300001  0.20734860  1
  In  In51  1  0.69076379  0.32536199  0.01530818  1
  In  In52  1  0.00267453  0.47777239  0.19022981  1
  In  In53  1  0.01339705  0.36829236  0.00409522  1
  In  In54  1  0.65860468  0.18760727  0.19631343  1
  In  In55  1  0.16370047  0.31891502  0.14827242  1
  In  In56  1  0.31351558  0.35922689  -0.01080326  1
  In  In57  1  0.52176550  0.81787472  0.31506843  1
  In  In58  1  0.32976410  0.19763767  0.49603728  1
  In  In59  1  -0.00105163  0.16186276  0.83374304  1
  In  In60  1  0.49031499  0.34122627  0.50076990  1
  In  In61  1  0.66276547  0.63070205  0.33594792  1
  In  In62  1  0.82914346  0.33164129  0.85655265  1
  In  In63  1  0.01506559  -0.00543696  -0.00032521  1
  In  In64  1  0.34855337  0.16268035  0.82768809  1
  In  In65  1  0.67330570  0.83567198  0.82518162  1
  In  In66  1  0.84153953  0.65497948  0.46884025  1
  In  In67  1  0.66004582  0.84012208  0.51998570  1
  In  In68  1  0.66510276  0.01037726  0.66911936  1
  In  In69  1  0.33041299  -0.00501806  0.34635439  1
  In  In70  1  -0.01411836  0.14691221  0.12658492  1
  In  In71  1  0.01055131  0.64003807  -0.02149540  1
  Te  Te72  1  0.10480930  0.05648587  0.10664180  1
  Te  Te73  1  0.06218615  0.09540158  0.41455025  1
  Te  Te74  1  0.09765925  0.08080403  0.75093300  1
  Te  Te75  1  0.11262315  0.44711263  0.08727508  1
  Te  Te76  1  0.08112079  0.42930996  0.43821931  1
  Te  Te77  1  0.10432120  0.42037843  0.74366845  1
  Te  Te78  1  0.07094971  0.74229586  0.07551526  1
  Te  Te79  1  0.10920859  0.70330525  0.46123941  1
  Te  Te80  1  0.04702861  0.73773358  0.75029866  1
  Te  Te81  1  0.42054913  0.07796591  0.08208137  1
  Te  Te82  1  0.41418756  0.10559882  0.41192045  1
  Te  Te83  1  0.41876401  0.04963967  0.76058628  1
  Te  Te84  1  0.42084079  0.41246566  0.08253043  1
  Te  Te85  1  0.38152840  0.42726137  0.45261648  1
  Te  Te86  1  0.39577450  0.43770721  0.77567202  1
  Te  Te87  1  0.44200060  0.75757941  0.06647768  1
  Te  Te88  1  0.41398501  0.76006695  0.40625676  1
  Te  Te89  1  0.39417377  0.74545791  0.74565621  1
  Te  Te90  1  0.73366619  0.09418008  0.09640245  1
  Te  Te91  1  0.76106469  0.08845174  0.42804812  1
  Te  Te92  1  0.75647572  0.08436094  0.75653516  1
  Te  Te93  1  0.76556173  0.42063841  0.10529227  1
  Te  Te94  1  0.69648167  0.48003108  0.37810299  1
  Te  Te95  1  0.76076902  0.41795993  0.74711407  1
  Te  Te96  1  0.77475766  0.76489563  0.05109421  1
  Te  Te97  1  0.73024332  0.75343692  0.41705197  1
  Te  Te98  1  0.74767751  0.72205810  0.74950317  1
  Te  Te99  1  0.06083449  0.24152238  0.22888694  1
  Te  Te100  1  0.07302762  0.24190654  0.58721543  1
  Te  Te101  1  0.07594839  0.24656777  0.93358020  1
  Te  Te102  1  0.08823970  0.59183422  0.24803713  1
  Te  Te103  1  0.03961216  0.60006397  0.55168567  1
  Te  Te104  1  0.12161760  0.56103655  0.91633111  1
  Te  Te105  1  0.10163220  0.88946181  0.25402536  1
  Te  Te106  1  0.07375359  0.91163974  0.58517482  1
  Te  Te107  1  0.06986359  0.89123122  0.90247298  1
  Te  Te108  1  0.44140377  0.24429954  0.26709265  1
  Te  Te109  1  0.41289075  0.25876420  0.61455658  1
  Te  Te110  1  0.42541854  0.25708517  0.91931343  1
  Te  Te111  1  0.42694569  0.57853304  0.26439849  1
  Te  Te112  1  0.40924310  0.59434514  0.58868289  1
  Te  Te113  1  0.37879325  0.58815255  0.93157543  1
  Te  Te114  1  0.41665483  0.90703734  0.25133401  1
  Te  Te115  1  0.41195310  0.91917569  0.58517612  1
  Te  Te116  1  0.44855001  0.95691359  0.88975439  1
  Te  Te117  1  0.74189371  0.26449211  0.29766541  1
  Te  Te118  1  0.73831847  0.25334933  0.56232619  1
  Te  Te119  1  0.73753089  0.22418370  0.91312198  1
  Te  Te120  1  0.76355317  0.58870182  0.23133624  1
  Te  Te121  1  0.75386525  0.57639996  0.56988916  1
  Te  Te122  1  0.76321867  0.59511637  0.91917271  1
  Te  Te123  1  0.73884938  0.90195402  0.22424295  1
  Te  Te124  1  0.76200584  0.93450340  0.57690943  1
  Te  Te125  1  0.76265434  0.90278984  0.92294944  1
  Te  Te126  1  0.27528016  0.24228547  0.08610507  1
  Te  Te127  1  0.21942053  0.25175030  0.40788152  1
  Te  Te128  1  0.24050905  0.25922719  0.77859338  1
  Te  Te129  1  0.28401507  0.60718374  0.07374370  1
  Te  Te130  1  0.25037456  0.61184605  0.41370037  1
  Te  Te131  1  0.24490128  0.60539404  0.72696500  1
  Te  Te132  1  0.27690426  0.92484725  0.06217824  1
  Te  Te133  1  0.22002704  0.92323395  0.42218826  1
  Te  Te134  1  0.25177854  0.90842685  0.73676431  1
  Te  Te135  1  0.57895917  0.25760592  0.08908618  1
  Te  Te136  1  0.54948246  0.28106260  0.37752201  1
  Te  Te137  1  0.58868336  0.21901456  0.76478942  1
  Te  Te138  1  0.59474810  0.55389295  0.08259959  1
  Te  Te139  1  0.57123936  0.56032027  0.43222559  1
  Te  Te140  1  0.57969925  0.57649952  0.75345905  1
  Te  Te141  1  0.55974968  0.88229965  0.07020187  1
  Te  Te142  1  0.58965812  0.91904882  0.40816575  1
  Te  Te143  1  0.58381679  0.90418137  0.73027947  1
  Te  Te144  1  0.90831022  0.27438004  0.07720980  1
  Te  Te145  1  0.91381793  0.27371211  0.43554855  1
  Te  Te146  1  0.91032214  0.25435880  0.75342492  1
  Te  Te147  1  0.92747763  0.57453782  0.09545427  1
  Te  Te148  1  0.95457974  0.57213249  0.42646371  1
  Te  Te149  1  0.95380088  0.60867517  0.76176543  1
  Te  Te150  1  0.93804750  0.89965987  0.08187632  1
  Te  Te151  1  0.91534656  0.92186978  0.42213704  1
  Te  Te152  1  0.90739444  0.89967088  0.76668051  1
  Te  Te153  1  0.26831960  0.07526814  0.23903711  1
  Te  Te154  1  0.27158478  0.08475326  0.58442906  1
  Te  Te155  1  0.25758965  0.07986044  0.92025483  1
  Te  Te156  1  0.24337052  0.40495082  0.25139961  1
  Te  Te157  1  0.24780584  0.45211537  0.58539861  1
  Te  Te158  1  0.21523534  0.43658026  0.91724872  1
  Te  Te159  1  0.21922462  0.78641236  0.25683019  1
  Te  Te160  1  0.23670122  0.73400672  0.57475368  1
  Te  Te161  1  0.25402312  0.76419905  0.91618555  1
  Te  Te162  1  0.57853567  0.08066084  0.26789097  1
  Te  Te163  1  0.58903953  0.09798104  0.56058433  1
  Te  Te164  1  0.57711654  0.04904505  0.89983276  1
  Te  Te165  1  0.52857943  0.38921685  0.26678337  1
  Te  Te166  1  0.59069085  0.41474690  0.58847904  1
  Te  Te167  1  0.59262544  0.39901203  0.91649558  1
  Te  Te168  1  0.60812263  0.73389095  0.22785655  1
  Te  Te169  1  0.55706681  0.76917584  0.60483142  1
  Te  Te170  1  0.58211539  0.73893124  0.90473495  1
  Te  Te171  1  0.91127658  0.07299784  0.23677982  1
  Te  Te172  1  0.93041666  0.09458209  0.58346583  1
  Te  Te173  1  0.91256230  0.06375483  0.90934215  1
  Te  Te174  1  0.90318733  0.43778914  0.29711118  1
  Te  Te175  1  0.90756037  0.42983253  0.57670200  1
  Te  Te176  1  0.93680655  0.43478539  0.89063531  1
  Te  Te177  1  0.93328495  0.75098764  0.26805330  1
  Te  Te178  1  0.90376096  0.75319964  0.56762588  1
  Te  Te179  1  0.92937064  0.70895884  0.87716745  1
