# generated using pymatgen
data_In2Te3
_symmetry_space_group_name_H-M   'P 1'
_cell_length_a   18.95449224
_cell_length_b   18.91819243
_cell_length_c   18.95319329
_cell_angle_alpha   89.87932731
_cell_angle_beta   89.86790384
_cell_angle_gamma   90.12963694
_symmetry_Int_Tables_number   1
_chemical_formula_structural   In2Te3
_chemical_formula_sum   'In72 Te108'
_cell_volume   6796.27512399
_cell_formula_units_Z   36
loop_
 _symmetry_equiv_pos_site_id
 _symmetry_equiv_pos_as_xyz
  1  'x, y, z'
loop_
 _atom_site_type_symbol
 _atom_site_label
 _atom_site_symmetry_multiplicity
 _atom_site_fract_x
 _atom_site_fract_y
 _atom_site_fract_z
 _atom_site_occupancy
  In  In0  1  -0.01241657  0.86037256  0.14069531  1
  In  In1  1  0.30771265  0.45736988  0.52953744  1
  In  In2  1  0.84517298  0.17284059  0.33623383  1
  In  In3  1  0.00958572  0.31517100  0.65879145  1
  In  In4  1  0.02564749  0.66622628  0.67776275  1
  In  In5  1  0.47005673  0.50280526  0.01047000  1
  In  In6  1  0.47984646  0.02275951  0.46873509  1
  In  In7  1  0.68907773  0.14005411  0.15060121  1
  In  In8  1  0.16563880  0.48141146  0.00224955  1
  In  In9  1  0.01100239  0.31165436  0.01066714  1
  In  In10  1  -0.01008786  0.66391655  -0.00465308  1
  In  In11  1  0.01203445  0.46949510  0.81035954  1
  In  In12  1  0.68486072  0.67526349  0.31332228  1
  In  In13  1  0.33095577  0.47788349  0.81369128  1
  In  In14  1  0.15362588  0.68518842  0.16304263  1
  In  In15  1  0.00055167  0.66389938  0.34819309  1
  In  In16  1  0.34652572  0.31072254  0.01047415  1
  In  In17  1  0.84800802  0.33888912  0.18616654  1
  In  In18  1  0.50831757  0.31857542  0.50238413  1
  In  In19  1  0.81213390  0.48893764  0.67498437  1
  In  In20  1  0.49581178  0.15743095  0.00173712  1
  In  In21  1  0.47923339  0.12594946  0.68154738  1
  In  In22  1  -0.00128826  0.87395295  0.86938188  1
  In  In23  1  0.84137232  0.32317455  0.83570567  1
  In  In24  1  0.68734241  0.68047235  0.01252095  1
  In  In25  1  0.18206428  0.67521632  0.83126141  1
  In  In26  1  0.15811865  0.00323669  0.50331097  1
  In  In27  1  0.68154902  0.47243611  0.50075562  1
  In  In28  1  0.68088412  -0.00530091  0.66788843  1
  In  In29  1  0.84172197  0.70399714  0.81839372  1
  In  In30  1  0.66693999  0.32160792  -0.01739957  1
  In  In31  1  0.18139232  0.00043991  0.82808214  1
  In  In32  1  0.30348854  0.84506934  0.48819135  1
  In  In33  1  0.83062441  0.32332588  0.48550166  1
  In  In34  1  0.84551374  0.63813283  0.49223438  1
  In  In35  1  -0.00766211  0.15281611  0.15126414  1
  In  In36  1  -0.01332146  0.14516648  0.85910160  1
  In  In37  1  0.49073092  0.31623269  0.81092760  1
  In  In38  1  0.34668251  0.66398508  0.66360341  1
  In  In39  1  0.83812938  0.51457814  0.02274710  1
  In  In40  1  0.33083844  0.65535097  0.31642789  1
  In  In41  1  0.67000289  0.18567204  0.50349967  1
  In  In42  1  0.49227520  0.48398197  0.34514137  1
  In  In43  1  0.35440896  0.85302667  0.17009640  1
  In  In44  1  0.51217876  0.84609669  0.30866108  1
  In  In45  1  0.48107430  0.85246583  0.67426633  1
  In  In46  1  0.67617094  0.85863962  0.12956961  1
  In  In47  1  0.16240813  0.66965688  0.50805891  1
  In  In48  1  0.47702897  0.85457191  -0.00230165  1
  In  In49  1  0.31765302  0.02740674  -0.01173065  1
  In  In50  1  -0.01555366  0.01405140  0.64225369  1
  In  In51  1  0.00579189  0.84187889  0.50308690  1
  In  In52  1  0.66740247  0.82574796  0.52545660  1
  In  In53  1  0.69299780  0.86267140  0.84925668  1
  In  In54  1  0.84795906  0.84589183  0.32117601  1
  In  In55  1  0.51254257  0.67197399  0.83464075  1
  In  In56  1  0.64742151  0.49647602  0.18664414  1
  In  In57  1  0.15406896  0.47899616  0.35542381  1
  In  In58  1  0.02375995  0.02871734  0.32409154  1
  In  In59  1  0.66559107  0.02834726  0.33777438  1
  In  In60  1  0.32614704  0.50223303  0.18360123  1
  In  In61  1  0.32312148  0.70244082  -0.00479033  1
  In  In62  1  0.31032925  0.18934053  0.49152228  1
  In  In63  1  0.00860386  0.48847462  0.47820743  1
  In  In64  1  0.18005341  0.02074728  0.16595777  1
  In  In65  1  0.65505360  0.50978537  0.83695495  1
  In  In66  1  0.32522951  0.19039405  0.18835120  1
  In  In67  1  0.15578114  0.32967345  0.17944864  1
  In  In68  1  0.65943361  0.12567006  0.84928943  1
  In  In69  1  0.18060180  0.17622322  0.66372036  1
  In  In70  1  0.83945384  0.83433112  0.68708973  1
  In  In71  1  0.49284300  0.66164327  0.48279130  1
  Te  Te72  1  0.08518217  0.07625983  0.06434752  1
  Te  Te73  1  0.06739166  0.10565162  0.44378711  1
  Te  Te74  1  0.07849891  0.08601135  0.74226504  1
  Te  Te75  1  0.06604926  0.42377536  0.09878989  1
  Te  Te76  1  0.10856934  0.37617449  0.45531484  1
  Te  Te77  1  0.11225362  0.38980430  0.73825073  1
  Te  Te78  1  0.08251772  0.76679136  0.05952783  1
  Te  Te79  1  0.09784060  0.76432733  0.40969657  1
  Te  Te80  1  0.07000746  0.76739625  0.77869593  1
  Te  Te81  1  0.40038283  0.09043154  0.09810908  1
  Te  Te82  1  0.41795461  0.13632826  0.40005560  1
  Te  Te83  1  0.39677956  0.04122830  0.77464785  1
  Te  Te84  1  0.42366955  0.39667000  0.11236371  1
  Te  Te85  1  0.39932211  0.39473359  0.42636049  1
  Te  Te86  1  0.43029778  0.41807206  0.72468465  1
  Te  Te87  1  0.42967850  0.74385312  0.09109036  1
  Te  Te88  1  0.41021968  0.76020598  0.40264679  1
  Te  Te89  1  0.40609358  0.75766885  0.76761499  1
  Te  Te90  1  0.76604972  0.05116917  0.05737280  1
  Te  Te91  1  0.77111177  0.08202445  0.43705661  1
  Te  Te92  1  0.76301214  0.07443741  0.75808575  1
  Te  Te93  1  0.74502553  0.40859011  0.08150015  1
  Te  Te94  1  0.74423406  0.39757068  0.39352751  1
  Te  Te95  1  0.72972487  0.39742205  0.76338489  1
  Te  Te96  1  0.77906205  0.76090338  0.09189073  1
  Te  Te97  1  0.76655174  0.75420890  0.42246748  1
  Te  Te98  1  0.72188107  0.75453547  0.74308688  1
  Te  Te99  1  0.05540433  0.24565113  0.25296956  1
  Te  Te100  1  0.06950298  0.21209215  0.56956562  1
  Te  Te101  1  0.08147897  0.24983576  0.89917945  1
  Te  Te102  1  0.09476060  0.58403854  0.25874865  1
  Te  Te103  1  0.08998891  0.56237389  0.58716694  1
  Te  Te104  1  0.08728689  0.57288137  0.90751323  1
  Te  Te105  1  0.08596520  0.91958705  0.23847070  1
  Te  Te106  1  0.09003090  0.90899060  0.60644810  1
  Te  Te107  1  0.09194184  0.96159432  0.94430133  1
  Te  Te108  1  0.42434039  0.29135972  0.22741863  1
  Te  Te109  1  0.41688580  0.23654578  0.59854463  1
  Te  Te110  1  0.40681433  0.22587289  0.89905713  1
  Te  Te111  1  0.44097402  0.58416760  0.24096556  1
  Te  Te112  1  0.41283350  0.56598485  0.56859336  1
  Te  Te113  1  0.39682538  0.58983653  0.90999256  1
  Te  Te114  1  0.41573734  0.94591935  0.26502078  1
  Te  Te115  1  0.40882708  0.92635705  0.56300535  1
  Te  Te116  1  0.39756609  0.93344894  0.90006056  1
  Te  Te117  1  0.74540654  0.24645353  0.25008652  1
  Te  Te118  1  0.76072218  0.25439359  0.59435105  1
  Te  Te119  1  0.75942338  0.22395846  0.91727220  1
  Te  Te120  1  0.75973174  0.57705141  0.23520187  1
  Te  Te121  1  0.74037413  0.59111707  0.58945267  1
  Te  Te122  1  0.76287915  0.59062458  0.90803415  1
  Te  Te123  1  0.74264729  0.92664806  0.25216409  1
  Te  Te124  1  0.77967693  0.91712630  0.57264898  1
  Te  Te125  1  0.77289420  0.94846063  0.93965317  1
  Te  Te126  1  0.22886509  0.24482649  0.07890052  1
  Te  Te127  1  0.22628521  0.28159577  0.41626095  1
  Te  Te128  1  0.29403020  0.26104262  0.71207693  1
  Te  Te129  1  0.24852065  0.58551518  0.07986284  1
  Te  Te130  1  0.25733873  0.57873773  0.42595752  1
  Te  Te131  1  0.24406236  0.57594485  0.73551342  1
  Te  Te132  1  0.25460139  0.91848522  0.08000350  1
  Te  Te133  1  0.24470601  0.94440811  0.39968494  1
  Te  Te134  1  0.28403381  0.94938666  0.73474645  1
  Te  Te135  1  0.59011138  0.24183694  0.08453746  1
  Te  Te136  1  0.57161027  0.22834768  0.40288387  1
  Te  Te137  1  0.58362949  0.21532547  0.74775568  1
  Te  Te138  1  0.58983240  0.57592745  0.06881211  1
  Te  Te139  1  0.60023265  0.58520463  0.40745898  1
  Te  Te140  1  0.56799012  0.57548031  0.74010598  1
  Te  Te141  1  0.56570889  0.94357604  0.07737239  1
  Te  Te142  1  0.59285984  0.91189472  0.42479228  1
  Te  Te143  1  0.58264289  0.92391290  0.75986942  1
  Te  Te144  1  0.89415282  0.24354402  0.07735457  1
  Te  Te145  1  0.94000466  0.27311123  0.39621777  1
  Te  Te146  1  0.91794029  0.23059648  0.74588571  1
  Te  Te147  1  0.93540241  0.58409185  0.10593359  1
  Te  Te148  1  0.90383986  0.55063640  0.38517646  1
  Te  Te149  1  0.91565246  0.58049130  0.75230564  1
  Te  Te150  1  0.89830912  0.95588945  0.06748744  1
  Te  Te151  1  0.93355245  0.93321164  0.40910603  1
  Te  Te152  1  0.91437238  0.93993983  0.76151993  1
  Te  Te153  1  0.23174011  0.11028940  0.26962401  1
  Te  Te154  1  0.26383090  0.07697838  0.58445403  1
  Te  Te155  1  0.24142640  0.11584786  0.89853583  1
  Te  Te156  1  0.25512369  0.40079943  0.27083103  1
  Te  Te157  1  0.23441849  0.36685339  0.62247840  1
  Te  Te158  1  0.25586861  0.39554870  0.91770381  1
  Te  Te159  1  0.25149695  0.76276150  0.24710955  1
  Te  Te160  1  0.24442170  0.75784090  0.59989355  1
  Te  Te161  1  0.24077468  0.78431317  0.90828352  1
  Te  Te162  1  0.58075666  0.08551031  0.23461304  1
  Te  Te163  1  0.58186769  0.07133648  0.57448097  1
  Te  Te164  1  0.57480541  0.04581560  0.94240424  1
  Te  Te165  1  0.56979819  0.39239374  0.25829741  1
  Te  Te166  1  0.58744423  0.40623339  0.58972636  1
  Te  Te167  1  0.55814768  0.41060616  0.92129127  1
  Te  Te168  1  0.59615847  0.75641737  0.22261735  1
  Te  Te169  1  0.55764549  0.74480612  0.59164471  1
  Te  Te170  1  0.59104358  0.76759249  0.92540258  1
  Te  Te171  1  0.90252783  0.06917730  0.24236295  1
  Te  Te172  1  0.87288427  0.06725008  0.56589561  1
  Te  Te173  1  0.90234835  0.06124001  0.95156983  1
  Te  Te174  1  0.95902384  0.37514529  0.27497088  1
  Te  Te175  1  0.91664091  0.42243699  0.58803390  1
  Te  Te176  1  0.92027842  0.42190314  0.92321877  1
  Te  Te177  1  0.93512846  0.75232199  0.24277134  1
  Te  Te178  1  0.92439805  0.73544035  0.58493439  1
  Te  Te179  1  0.90251361  0.77362864  0.93598983  1
