# generated using pymatgen
data_In2Te3
_symmetry_space_group_name_H-M   'P 1'
_cell_length_a   19.03281462
_cell_length_b   19.06626968
_cell_length_c   19.05319931
_cell_angle_alpha   90.11962280
_cell_angle_beta   89.87352300
_cell_angle_gamma   89.91430610
_symmetry_Int_Tables_number   1
_chemical_formula_structural   In2Te3
_chemical_formula_sum   'In72 Te108'
_cell_volume   6914.07627392
_cell_formula_units_Z   36
loop_
 _symmetry_equiv_pos_site_id
 _symmetry_equiv_pos_as_xyz
  1  'x, y, z'
loop_
 _atom_site_type_symbol
 _atom_site_label
 _atom_site_symmetry_multiplicity
 _atom_site_fract_x
 _atom_site_fract_y
 _atom_site_fract_z
 _atom_site_occupancy
  In  In0  1  0.34133891  -0.01292918  0.01451745  1
  In  In1  1  0.68084752  0.34559465  0.36364787  1
  In  In2  1  -0.00080119  0.67238301  0.65908756  1
  In  In3  1  0.32876930  0.14613506  0.52685069  1
  In  In4  1  0.50304054  0.36052817  0.50725836  1
  In  In5  1  0.32532588  -0.03410487  0.65107636  1
  In  In6  1  0.21528017  0.86325557  0.31252071  1
  In  In7  1  0.34288517  0.32068386  0.31407960  1
  In  In8  1  0.32668558  0.32586658  0.00549174  1
  In  In9  1  0.64388478  0.19697307  0.04217338  1
  In  In10  1  0.68192942  0.49529873  0.17673679  1
  In  In11  1  -0.02677585  0.84901115  0.12537844  1
  In  In12  1  0.31920017  0.34067606  0.67360236  1
  In  In13  1  0.03376594  0.68333222  0.30906729  1
  In  In14  1  0.86589493  0.52134480  0.32024951  1
  In  In15  1  0.49761067  0.82937347  -0.00936341  1
  In  In16  1  -0.00106021  0.15030482  0.48095193  1
  In  In17  1  0.17448066  -0.00611940  0.14987195  1
  In  In18  1  0.64227868  0.65298250  0.00856047  1
  In  In19  1  0.89879695  0.47510457  -0.00447566  1
  In  In20  1  0.19215386  0.12815736  0.34337661  1
  In  In21  1  0.16408870  0.81122849  0.66724476  1
  In  In22  1  0.83545744  0.65805160  0.14493510  1
  In  In23  1  0.49910035  0.83435993  0.68384818  1
  In  In24  1  0.47554399  0.15073179  0.33549916  1
  In  In25  1  0.48348440  0.67215708  0.50414280  1
  In  In26  1  0.81198910  0.68245452  0.83772834  1
  In  In27  1  0.65511462  0.51593647  0.51921123  1
  In  In28  1  -0.01324364  0.84995333  0.84516074  1
  In  In29  1  0.83281394  0.68040235  0.48441760  1
  In  In30  1  0.00732613  0.33507877  0.66214565  1
  In  In31  1  0.32453869  0.69078338  0.34803555  1
  In  In32  1  0.50567890  0.02235628  0.83973146  1
  In  In33  1  0.32403715  0.18267449  0.81689556  1
  In  In34  1  0.02152130  0.18242543  0.82369663  1
  In  In35  1  0.48498491  0.68610191  0.17156862  1
  In  In36  1  0.52106370  0.16608704  0.67402715  1
  In  In37  1  0.49479682  0.34077369  0.87634750  1
  In  In38  1  0.83973843  0.15385045  -0.01074377  1
  In  In39  1  0.82598176  0.00674534  0.51235638  1
  In  In40  1  0.66746672  0.67399904  0.69706379  1
  In  In41  1  0.15373167  -0.01247157  0.82465410  1
  In  In42  1  0.02303624  0.48832424  0.82462567  1
  In  In43  1  0.17523854  0.64221053  0.13341352  1
  In  In44  1  0.00847245  0.01207348  0.31949360  1
  In  In45  1  0.32228379  0.48743458  0.84573734  1
  In  In46  1  0.17579590  0.35228475  0.50048064  1
  In  In47  1  0.66717590  0.00338377  0.65947012  1
  In  In48  1  0.84158472  0.48882105  0.68255296  1
  In  In49  1  0.83309783  0.31152459  0.15572769  1
  In  In50  1  0.34071245  0.66576338  0.66023726  1
  In  In51  1  0.49883219  0.51038315  0.33376641  1
  In  In52  1  0.63223474  -0.04035430  0.34645066  1
  In  In53  1  0.83041484  -0.00226451  0.84194722  1
  In  In54  1  0.19647679  0.68786958  0.86862486  1
  In  In55  1  0.00979386  0.33115051  0.35242530  1
  In  In56  1  0.17192449  0.66751923  0.50644365  1
  In  In57  1  0.32777522  0.47267124  0.16479889  1
  In  In58  1  0.01371457  0.17597104  0.15743717  1
  In  In59  1  0.65775566  0.82510196  0.17435613  1
  In  In60  1  0.67821171  0.17029775  0.49847297  1
  In  In61  1  0.83563823  0.16431362  0.31723402  1
  In  In62  1  0.47233031  -0.02842005  0.18922485  1
  In  In63  1  0.14967744  0.36681282  0.11764984  1
  In  In64  1  -0.00121784  0.65713122  -0.01457170  1
  In  In65  1  0.47923106  0.64259104  0.85807424  1
  In  In66  1  0.67085087  0.15511498  0.85025334  1
  In  In67  1  0.16089212  0.16580302  -0.01434483  1
  In  In68  1  0.00502937  0.82771633  0.50446604  1
  In  In69  1  0.67140828  0.50694483  0.83868201  1
  In  In70  1  0.81924109  0.34496897  0.53201755  1
  In  In71  1  0.82013220  0.83486644  0.33518464  1
  Te  Te72  1  0.07481026  0.07123023  0.06727435  1
  Te  Te73  1  0.10109524  0.04777413  0.43293215  1
  Te  Te74  1  0.09304110  0.08687625  0.73740976  1
  Te  Te75  1  0.03550005  0.42996944  0.05325799  1
  Te  Te76  1  0.08800677  0.43394637  0.41682641  1
  Te  Te77  1  0.10017122  0.43917014  0.71062253  1
  Te  Te78  1  0.07374773  0.74750544  0.07922696  1
  Te  Te79  1  0.10772228  0.77433979  0.40722786  1
  Te  Te80  1  0.07979491  0.73771716  0.77170694  1
  Te  Te81  1  0.41959742  0.07546014  0.09940738  1
  Te  Te82  1  0.39699286  0.06029928  0.42401547  1
  Te  Te83  1  0.41103044  0.07851000  0.73424593  1
  Te  Te84  1  0.42833433  0.38602291  0.09766628  1
  Te  Te85  1  0.40497799  0.42118910  0.41052555  1
  Te  Te86  1  0.42096064  0.40958642  0.76218036  1
  Te  Te87  1  0.39906116  0.74556948  0.06569937  1
  Te  Te88  1  0.43399328  0.77507742  0.40584182  1
  Te  Te89  1  0.41142312  0.74418057  0.76802352  1
  Te  Te90  1  0.74858467  0.11098452  0.09594179  1
  Te  Te91  1  0.74141459  0.07570722  0.39690585  1
  Te  Te92  1  0.75556779  0.09002315  0.74492841  1
  Te  Te93  1  0.77600213  0.42834709  0.08042474  1
  Te  Te94  1  0.76827180  0.45323653  0.42243251  1
  Te  Te95  1  0.74520234  0.41066664  0.75756125  1
  Te  Te96  1  0.74030225  0.74891500  0.07321401  1
  Te  Te97  1  0.73081818  0.76717479  0.42785056  1
  Te  Te98  1  0.74931974  0.78121808  0.75218628  1
  Te  Te99  1  0.08596608  0.22186918  0.28105994  1
  Te  Te100  1  0.08153523  0.24883486  0.56051526  1
  Te  Te101  1  0.11026517  0.27462945  0.90016264  1
  Te  Te102  1  0.10167468  0.57440861  0.24098190  1
  Te  Te103  1  0.09742590  0.58181837  0.60068949  1
  Te  Te104  1  0.10572624  0.57545642  0.91853702  1
  Te  Te105  1  0.07622761  0.90799658  0.23400102  1
  Te  Te106  1  0.07840072  0.90783070  0.60028002  1
  Te  Te107  1  0.09161282  0.90662770  0.92881195  1
  Te  Te108  1  0.43158936  0.24184040  0.22979872  1
  Te  Te109  1  0.42728661  0.25107024  0.58810455  1
  Te  Te110  1  0.41333669  0.22552064  0.92999128  1
  Te  Te111  1  0.39409318  0.58214967  0.24986467  1
  Te  Te112  1  0.41991138  0.56878085  0.58427792  1
  Te  Te113  1  0.39693115  0.56168180  0.95018615  1
  Te  Te114  1  0.35280789  0.91798270  0.26413728  1
  Te  Te115  1  0.44378920  0.91825870  0.57501699  1
  Te  Te116  1  0.41568976  0.91838302  0.90087588  1
  Te  Te117  1  0.73147372  0.25294899  0.25243813  1
  Te  Te118  1  0.73978903  0.24789629  0.60475729  1
  Te  Te119  1  0.74195421  0.25612484  0.93502921  1
  Te  Te120  1  0.75287034  0.60199768  0.25830710  1
  Te  Te121  1  0.76113302  0.59472161  0.59764461  1
  Te  Te122  1  0.76000212  0.58081887  0.93757357  1
  Te  Te123  1  0.74553374  0.92608433  0.24292797  1
  Te  Te124  1  0.72890516  0.91195970  0.56237594  1
  Te  Te125  1  0.76244248  0.92836408  0.95009893  1
  Te  Te126  1  0.23210343  0.24374873  0.09474376  1
  Te  Te127  1  0.26364987  0.24185373  0.42210998  1
  Te  Te128  1  0.22648952  0.24291497  0.72862466  1
  Te  Te129  1  0.26736882  0.55395437  0.05690324  1
  Te  Te130  1  0.25131766  0.58591908  0.41563867  1
  Te  Te131  1  0.25422244  0.59466273  0.76374645  1
  Te  Te132  1  0.23931453  0.89135044  0.06305727  1
  Te  Te133  1  0.29400795  0.94312645  0.40779690  1
  Te  Te134  1  0.25308582  0.89088574  0.76011335  1
  Te  Te135  1  0.56933276  0.32307224  0.04686856  1
  Te  Te136  1  0.57116501  0.25224227  0.41582156  1
  Te  Te137  1  0.57922178  0.25297888  0.77994404  1
  Te  Te138  1  0.56787583  0.57299477  0.11049168  1
  Te  Te139  1  0.58833194  0.59927029  0.41432447  1
  Te  Te140  1  0.56757844  0.57598232  0.75346785  1
  Te  Te141  1  0.57345380  0.91464819  0.08753864  1
  Te  Te142  1  0.52873875  0.89757767  0.42809160  1
  Te  Te143  1  0.59209606  0.92424801  0.76429756  1
  Te  Te144  1  0.93415647  0.25468877  0.05847253  1
  Te  Te145  1  0.89090999  0.25400388  0.42537495  1
  Te  Te146  1  0.91881943  0.26879903  0.75937969  1
  Te  Te147  1  0.94899128  0.56978987  0.10643325  1
  Te  Te148  1  0.94563766  0.60998155  0.41316803  1
  Te  Te149  1  0.91601383  0.59364749  0.76802746  1
  Te  Te150  1  0.88045119  0.92446351  0.04351422  1
  Te  Te151  1  0.92139063  0.92339480  0.40825521  1
  Te  Te152  1  0.90576901  0.91633633  0.74527121  1
  Te  Te153  1  0.26802594  0.07527680  0.22959028  1
  Te  Te154  1  0.23155509  0.06480644  0.59835666  1
  Te  Te155  1  0.25771249  0.07700572  0.91039351  1
  Te  Te156  1  0.22646183  0.39511621  0.24481417  1
  Te  Te157  1  0.26998014  0.43550001  0.57570564  1
  Te  Te158  1  0.23337994  0.38529936  0.90729350  1
  Te  Te159  1  0.24649413  0.74063303  0.23006140  1
  Te  Te160  1  0.27029884  0.76373598  0.56929424  1
  Te  Te161  1  0.27732230  0.75655444  0.96807400  1
  Te  Te162  1  0.57412699  0.06587901  0.25745388  1
  Te  Te163  1  0.57669562  0.07975050  0.56360063  1
  Te  Te164  1  0.58504676  0.08350453  0.95013332  1
  Te  Te165  1  0.58878466  0.41185083  0.26267747  1
  Te  Te166  1  0.60393733  0.40743746  0.60065793  1
  Te  Te167  1  0.58463488  0.43999173  0.94191571  1
  Te  Te168  1  0.56625138  0.75868780  0.26718645  1
  Te  Te169  1  0.58217387  0.74450389  0.59473021  1
  Te  Te170  1  0.58638693  0.74369187  0.90315387  1
  Te  Te171  1  0.91474335  0.07832606  0.22183556  1
  Te  Te172  1  0.91443750  0.09460719  0.58506226  1
  Te  Te173  1  0.94071671  0.08244198  0.90468040  1
  Te  Te174  1  0.91780246  0.39711782  0.25234184  1
  Te  Te175  1  0.92987867  0.43641135  0.57247593  1
  Te  Te176  1  0.91856637  0.39475133  0.87296303  1
  Te  Te177  1  0.91194635  0.75609295  0.24012557  1
  Te  Te178  1  0.90037504  0.76400585  0.59195804  1
  Te  Te179  1  0.90149410  0.75818889  0.93238099  1
