# generated using pymatgen
data_In2Te3
_symmetry_space_group_name_H-M   'P 1'
_cell_length_a   18.95167893
_cell_length_b   18.98006182
_cell_length_c   18.95258632
_cell_angle_alpha   90.14811181
_cell_angle_beta   90.02638366
_cell_angle_gamma   90.02852199
_symmetry_Int_Tables_number   1
_chemical_formula_structural   In2Te3
_chemical_formula_sum   'In72 Te108'
_cell_volume   6817.29747537
_cell_formula_units_Z   36
loop_
 _symmetry_equiv_pos_site_id
 _symmetry_equiv_pos_as_xyz
  1  'x, y, z'
loop_
 _atom_site_type_symbol
 _atom_site_label
 _atom_site_symmetry_multiplicity
 _atom_site_fract_x
 _atom_site_fract_y
 _atom_site_fract_z
 _atom_site_occupancy
  In  In0  1  0.83408476  0.32618970  0.81877965  1
  In  In1  1  0.49522353  0.67059497  0.48311541  1
  In  In2  1  0.18303831  0.66531361  0.49102434  1
  In  In3  1  0.53539238  0.82488222  0.01593288  1
  In  In4  1  0.83669781  0.30220442  0.48572510  1
  In  In5  1  0.18671320  0.84032207  0.34080088  1
  In  In6  1  0.17931412  0.11024222  0.69205866  1
  In  In7  1  0.32199717  0.33515708  -0.01980773  1
  In  In8  1  0.81908272  0.83380814  -0.01658983  1
  In  In9  1  -0.01520419  0.15553419  0.18411834  1
  In  In10  1  0.66821878  0.15672437  0.52358333  1
  In  In11  1  0.33878734  0.16995571  0.48651971  1
  In  In12  1  0.79224784  0.86110176  0.30885224  1
  In  In13  1  0.48882412  0.83806360  0.33898114  1
  In  In14  1  0.18373621  0.87322930  0.67777170  1
  In  In15  1  0.82924067  0.65735525  0.17157291  1
  In  In16  1  0.82513410  0.34011776  0.14980594  1
  In  In17  1  0.03035635  0.64421657  0.30934516  1
  In  In18  1  0.34593767  0.67344480  0.66012902  1
  In  In19  1  0.66166213  0.51116782  0.51669824  1
  In  In20  1  0.33080419  0.32870169  0.65900982  1
  In  In21  1  0.85276599  0.13774801  0.63416378  1
  In  In22  1  0.17490427  0.46994481  0.66188974  1
  In  In23  1  0.36199962  0.17821137  0.22114360  1
  In  In24  1  0.51341309  -0.00417285  0.19001458  1
  In  In25  1  0.32683406  0.49702209  0.86665731  1
  In  In26  1  0.82341164  0.67316659  0.84221050  1
  In  In27  1  0.68350763  0.67861666  0.67848686  1
  In  In28  1  0.62618832  0.12601422  0.84665666  1
  In  In29  1  0.33552765  0.00276790  0.35513700  1
  In  In30  1  0.65362958  -0.00864245  0.65954640  1
  In  In31  1  0.66369351  0.65480659  0.00722952  1
  In  In32  1  0.00492662  0.30309322  0.64123989  1
  In  In33  1  0.34722381  0.51243113  0.16562882  1
  In  In34  1  0.82049413  0.50850029  0.67285601  1
  In  In35  1  0.83294452  0.52608198  0.33886458  1
  In  In36  1  0.03013757  0.32142925  -0.00668476  1
  In  In37  1  0.00259592  0.84321844  0.17242590  1
  In  In38  1  0.49440991  0.34169744  0.83237283  1
  In  In39  1  -0.01700961  0.83996287  0.81101613  1
  In  In40  1  0.00240683  0.69819684  0.63555053  1
  In  In41  1  -0.00049286  0.49146600  0.48695260  1
  In  In42  1  0.48779968  0.14147670  0.68471790  1
  In  In43  1  0.49256089  0.51698431  -0.00304835  1
  In  In44  1  0.17707208  0.66113002  0.85150170  1
  In  In45  1  0.33513677  0.67211219  0.32256368  1
  In  In46  1  0.50636447  0.35752484  0.48003024  1
  In  In47  1  0.16537148  -0.01533623  0.14763491  1
  In  In48  1  0.81530447  -0.01017229  0.83279756  1
  In  In49  1  -0.00617506  0.64744317  0.03892388  1
  In  In50  1  -0.00955300  0.86305749  0.49008019  1
  In  In51  1  0.83691393  0.13864774  0.35425731  1
  In  In52  1  0.64369307  0.17300833  0.19028007  1
  In  In53  1  0.16024031  0.13193783  0.36871919  1
  In  In54  1  -0.01703275  0.49640905  0.83952105  1
  In  In55  1  0.18583289  0.47112233  0.01631884  1
  In  In56  1  0.15751696  0.82589386  -0.02013733  1
  In  In57  1  0.35971812  0.69500590  -0.00093833  1
  In  In58  1  0.66327004  0.84514463  0.49337262  1
  In  In59  1  0.64788597  0.67989126  0.32717920  1
  In  In60  1  -0.00628655  0.32538570  0.31857059  1
  In  In61  1  0.51063960  0.53650746  0.66304928  1
  In  In62  1  0.65865138  0.32400371  0.00729648  1
  In  In63  1  0.79784345  0.14511949  0.01715000  1
  In  In64  1  0.46771212  0.86535954  0.63116077  1
  In  In65  1  0.15016908  0.32522367  0.49039441  1
  In  In66  1  -0.00323445  -0.01628500  -0.01607756  1
  In  In67  1  0.35429016  0.00060771  0.01600833  1
  In  In68  1  0.18578675  0.34505116  0.15642754  1
  In  In69  1  0.66863204  0.34655549  0.31623885  1
  In  In70  1  0.16078038  0.18965523  -0.01602960  1
  In  In71  1  0.33620183  0.14427471  0.83671539  1
  Te  Te72  1  0.07690813  0.08579856  0.07480499  1
  Te  Te73  1  0.08841109  0.05460068  0.47139801  1
  Te  Te74  1  0.07260117  0.09927584  0.79017680  1
  Te  Te75  1  0.06349863  0.42879277  0.10352294  1
  Te  Te76  1  0.08961553  0.42234566  0.38900241  1
  Te  Te77  1  0.06029158  0.40783553  0.73853387  1
  Te  Te78  1  0.09242497  0.74929913  0.09339630  1
  Te  Te79  1  0.08074057  0.75360865  0.42095565  1
  Te  Te80  1  0.09099816  0.74196837  0.75161499  1
  Te  Te81  1  0.42639976  0.09600262  0.11254167  1
  Te  Te82  1  0.43256423  0.11163190  0.38589390  1
  Te  Te83  1  0.41539896  0.03806728  0.76540915  1
  Te  Te84  1  0.41561642  0.40948383  0.07223011  1
  Te  Te85  1  0.43468023  0.41805104  0.36597797  1
  Te  Te86  1  0.40610061  0.43123859  0.74628973  1
  Te  Te87  1  0.44033975  0.75492276  0.10677917  1
  Te  Te88  1  0.39235104  0.76476888  0.43072035  1
  Te  Te89  1  0.42386928  0.77065952  0.73595622  1
  Te  Te90  1  0.75405164  0.07856357  0.14202009  1
  Te  Te91  1  0.75814069  0.06069176  0.45294970  1
  Te  Te92  1  0.73689562  0.09170761  0.74198885  1
  Te  Te93  1  0.71255920  0.42018242  0.10478651  1
  Te  Te94  1  0.75896828  0.42284325  0.42697890  1
  Te  Te95  1  0.74423810  0.42978888  0.76837446  1
  Te  Te96  1  0.74893390  0.75613130  0.09215481  1
  Te  Te97  1  0.75195103  0.75397899  0.40749389  1
  Te  Te98  1  0.76105620  0.77433756  0.75871975  1
  Te  Te99  1  0.09432980  0.24514624  0.23812528  1
  Te  Te100  1  0.11772064  0.21881318  0.59052598  1
  Te  Te101  1  0.06353338  0.22743939  0.87665842  1
  Te  Te102  1  0.06813839  0.55603017  0.20105067  1
  Te  Te103  1  0.09055936  0.57360846  0.58527991  1
  Te  Te104  1  0.08473620  0.56868463  0.93049068  1
  Te  Te105  1  0.08823391  0.92890214  0.26493892  1
  Te  Te106  1  0.07641441  0.93699289  0.59486417  1
  Te  Te107  1  0.09263004  0.92259803  0.88372891  1
  Te  Te108  1  0.44666083  0.28390288  0.28028030  1
  Te  Te109  1  0.43738855  0.25584731  0.57952863  1
  Te  Te110  1  0.42246260  0.23964224  0.91806010  1
  Te  Te111  1  0.43605591  0.61239716  0.23015912  1
  Te  Te112  1  0.40591637  0.57468776  0.56067198  1
  Te  Te113  1  0.42504337  0.60687571  0.89248356  1
  Te  Te114  1  0.39520922  0.91756633  0.24671008  1
  Te  Te115  1  0.37679580  0.94983741  0.55034355  1
  Te  Te116  1  0.45121088  0.92343325  0.93289739  1
  Te  Te117  1  0.77700951  0.24667888  0.26283350  1
  Te  Te118  1  0.75447043  0.25532183  0.60112354  1
  Te  Te119  1  0.73882229  0.23598295  0.91044310  1
  Te  Te120  1  0.72450716  0.57516823  0.24626379  1
  Te  Te121  1  0.76541071  0.60594771  0.57103059  1
  Te  Te122  1  0.77300153  0.57689847  0.93950533  1
  Te  Te123  1  0.71268910  0.94888145  0.22194876  1
  Te  Te124  1  0.75642662  0.93533897  0.56767491  1
  Te  Te125  1  0.72444976  0.93511222  0.93425135  1
  Te  Te126  1  0.26761220  0.23684548  0.08734672  1
  Te  Te127  1  0.24739853  0.25210838  0.39748328  1
  Te  Te128  1  0.25418217  0.23756788  0.74958672  1
  Te  Te129  1  0.26425898  0.59143695  0.06311378  1
  Te  Te130  1  0.24917515  0.57696741  0.39635390  1
  Te  Te131  1  0.24890056  0.57742021  0.74475554  1
  Te  Te132  1  0.25843986  0.89408789  0.07340758  1
  Te  Te133  1  0.25031347  0.92388018  0.44811231  1
  Te  Te134  1  0.27482264  0.96736714  0.74445999  1
  Te  Te135  1  0.57036021  0.23010111  0.07778809  1
  Te  Te136  1  0.61007636  0.26075697  0.42607078  1
  Te  Te137  1  0.57858390  0.24095481  0.75609174  1
  Te  Te138  1  0.56330402  0.59483518  0.09947478  1
  Te  Te139  1  0.57682131  0.56918659  0.40600993  1
  Te  Te140  1  0.60604946  0.58539421  0.76093838  1
  Te  Te141  1  0.61009973  0.93159792  0.09520005  1
  Te  Te142  1  0.57312931  0.92996740  0.41628078  1
  Te  Te143  1  0.55971261  0.91162291  0.73943269  1
  Te  Te144  1  0.91891748  0.24102172  0.07622916  1
  Te  Te145  1  0.94870155  0.22529919  0.42293842  1
  Te  Te146  1  0.91829976  0.22650610  0.73936094  1
  Te  Te147  1  0.88126520  0.55961992  0.07214143  1
  Te  Te148  1  0.92711316  0.60657311  0.42422666  1
  Te  Te149  1  0.92690112  0.59941017  0.74105603  1
  Te  Te150  1  0.90540062  0.91765728  0.08425991  1
  Te  Te151  1  0.90470496  0.92517733  0.38224536  1
  Te  Te152  1  0.91794228  0.94668487  0.73723375  1
  Te  Te153  1  0.23929351  0.07873484  0.24923858  1
  Te  Te154  1  0.29276238  0.07383499  0.59251622  1
  Te  Te155  1  0.24588796  0.07374298  0.93523305  1
  Te  Te156  1  0.26802694  0.42083794  0.24997131  1
  Te  Te157  1  0.26164055  0.41136143  0.55199250  1
  Te  Te158  1  0.21804038  0.39451843  0.88786562  1
  Te  Te159  1  0.23369327  0.74380177  0.24283368  1
  Te  Te160  1  0.24454000  0.76272718  0.59143124  1
  Te  Te161  1  0.27106968  0.77068426  0.89490218  1
  Te  Te162  1  0.57569615  0.08769883  0.29096971  1
  Te  Te163  1  0.55520847  0.06830410  0.57093329  1
  Te  Te164  1  0.54606090  0.04667990  0.93738572  1
  Te  Te165  1  0.54700488  0.40310233  0.25489995  1
  Te  Te166  1  0.58297008  0.41719718  0.60296526  1
  Te  Te167  1  0.58520004  0.42606630  0.91724623  1
  Te  Te168  1  0.57744101  0.77288746  0.24046705  1
  Te  Te169  1  0.58176131  0.74752131  0.57991892  1
  Te  Te170  1  0.59624623  0.74155807  0.91131764  1
  Te  Te171  1  0.92459423  0.05176688  0.26975495  1
  Te  Te172  1  0.96507462  0.07064080  0.56568894  1
  Te  Te173  1  0.89902434  0.08214009  0.92323923  1
  Te  Te174  1  0.90492110  0.42632174  0.24990190  1
  Te  Te175  1  0.90936956  0.41357760  0.58081882  1
  Te  Te176  1  0.91199364  0.39713248  0.92905156  1
  Te  Te177  1  0.92493031  0.74206131  0.25512660  1
  Te  Te178  1  0.90181490  0.78448654  0.57841945  1
  Te  Te179  1  0.93924116  0.74695785  0.92963714  1
