# generated using pymatgen
data_In2Te3
_symmetry_space_group_name_H-M   'P 1'
_cell_length_a   18.90102645
_cell_length_b   18.87937045
_cell_length_c   18.88125131
_cell_angle_alpha   89.95922318
_cell_angle_beta   90.07355842
_cell_angle_gamma   89.91423070
_symmetry_Int_Tables_number   1
_chemical_formula_structural   In2Te3
_chemical_formula_sum   'In72 Te108'
_cell_volume   6737.56108899
_cell_formula_units_Z   36
loop_
 _symmetry_equiv_pos_site_id
 _symmetry_equiv_pos_as_xyz
  1  'x, y, z'
loop_
 _atom_site_type_symbol
 _atom_site_label
 _atom_site_symmetry_multiplicity
 _atom_site_fract_x
 _atom_site_fract_y
 _atom_site_fract_z
 _atom_site_occupancy
  In  In0  1  0.16564664  0.14813715  0.67072361  1
  In  In1  1  0.15455713  0.01275333  0.16345270  1
  In  In2  1  0.01123432  0.48924390  0.83436460  1
  In  In3  1  0.50263418  0.83571301  0.00899694  1
  In  In4  1  0.32372201  0.49433764  0.18526484  1
  In  In5  1  0.14712496  0.17040144  -0.00957365  1
  In  In6  1  -0.01454116  0.82788734  0.52307562  1
  In  In7  1  0.51050889  0.16190972  0.33157364  1
  In  In8  1  0.33454187  -0.00477957  0.35361788  1
  In  In9  1  -0.00184812  0.00008783  0.34185986  1
  In  In10  1  0.83583412  0.50833709  0.66646850  1
  In  In11  1  0.32913471  0.16452677  0.18104088  1
  In  In12  1  0.16700378  0.48325054  0.00158326  1
  In  In13  1  0.18075122  0.50360860  0.69627703  1
  In  In14  1  0.48691642  0.52756284  -0.02871035  1
  In  In15  1  0.50638427  0.47683680  0.31780587  1
  In  In16  1  0.15885906  0.83538732  0.66455924  1
  In  In17  1  0.34444861  0.36746647  0.67891248  1
  In  In18  1  -0.00064804  0.83821228  0.84913015  1
  In  In19  1  -0.00519334  0.17110581  0.47412559  1
  In  In20  1  0.32460192  0.82908081  0.82578048  1
  In  In21  1  0.17723249  0.67381620  0.51146455  1
  In  In22  1  0.48600837  -0.02137427  0.50234978  1
  In  In23  1  0.17463888  0.49817764  0.35848053  1
  In  In24  1  0.65603863  0.50194091  0.82995893  1
  In  In25  1  0.82864703  0.12985346  -0.02429169  1
  In  In26  1  0.70310749  0.86529531  0.75021961  1
  In  In27  1  0.35992531  0.65677631  -0.02468889  1
  In  In28  1  0.84414941  0.65128643  0.17162711  1
  In  In29  1  0.47304909  0.81104210  0.35242921  1
  In  In30  1  0.65923790  0.67561224  0.33453454  1
  In  In31  1  0.68683913  0.33367217  -0.01874871  1
  In  In32  1  0.17924377  0.85085027  0.33556081  1
  In  In33  1  0.83757131  0.49191235  0.34566133  1
  In  In34  1  0.32911713  -0.01096824  0.67058548  1
  In  In35  1  -0.04032780  0.88496409  0.11048413  1
  In  In36  1  0.31884994  0.32928831  0.35659044  1
  In  In37  1  0.15555357  0.84047392  -0.00381851  1
  In  In38  1  0.65711335  0.67124714  0.01609684  1
  In  In39  1  0.52063966  0.32409202  0.13596990  1
  In  In40  1  0.33634188  -0.01224174  0.01160387  1
  In  In41  1  0.49814663  0.65207867  0.54740588  1
  In  In42  1  0.01714982  0.19242417  0.18556871  1
  In  In43  1  -0.01635419  0.48713401  0.50665367  1
  In  In44  1  0.67350993  0.00303174  0.32217992  1
  In  In45  1  0.32074014  0.33688333  -0.00855135  1
  In  In46  1  0.16750230  0.68218935  0.17225893  1
  In  In47  1  0.68543584  0.50817629  0.50260855  1
  In  In48  1  0.50974366  0.14731856  -0.03663480  1
  In  In49  1  0.49879366  0.15926710  0.66009947  1
  In  In50  1  0.82995656  0.81694175  0.34792158  1
  In  In51  1  0.84236139  0.33082499  0.18258959  1
  In  In52  1  0.83084420  0.51451771  0.00002675  1
  In  In53  1  0.86871508  0.18285937  0.68186767  1
  In  In54  1  0.49310867  0.33776671  0.50750129  1
  In  In55  1  0.67294246  0.85474227  0.53184132  1
  In  In56  1  0.51553630  -0.01318100  0.17797870  1
  In  In57  1  0.66305267  0.16620559  0.81341718  1
  In  In58  1  0.00464133  0.63360770  0.35001844  1
  In  In59  1  0.65826198  0.16273258  0.50636316  1
  In  In60  1  0.16901284  0.33143441  0.51779977  1
  In  In61  1  0.32296088  0.16783507  0.82216842  1
  In  In62  1  0.01288237  0.00970564  0.66718704  1
  In  In63  1  0.49148047  0.65524733  0.15121512  1
  In  In64  1  0.00080404  0.32605522  -0.00202559  1
  In  In65  1  0.84057379  0.00128855  0.82879732  1
  In  In66  1  0.83218206  0.17017887  0.33074259  1
  In  In67  1  -0.01124971  0.66525388  -0.01982392  1
  In  In68  1  0.68296773  0.84613394  0.16045590  1
  In  In69  1  -0.01072330  0.66919121  0.66951779  1
  In  In70  1  0.48790471  0.65452952  0.82309261  1
  In  In71  1  0.67575892  0.32929457  0.66226826  1
  Te  Te72  1  0.05547155  0.08561244  0.07610318  1
  Te  Te73  1  0.09589253  0.08684858  0.40691007  1
  Te  Te74  1  0.07269953  0.09356382  0.77468368  1
  Te  Te75  1  0.08120916  0.40664502  0.09198339  1
  Te  Te76  1  0.07443967  0.40274338  0.41902778  1
  Te  Te77  1  0.06747666  0.40804015  0.72091983  1
  Te  Te78  1  0.06232815  0.75449725  0.08483298  1
  Te  Te79  1  0.07332295  0.75171021  0.42116016  1
  Te  Te80  1  0.08426743  0.74378226  0.76107770  1
  Te  Te81  1  0.42611713  0.08904421  0.08686952  1
  Te  Te82  1  0.41883433  0.09674682  0.43146683  1
  Te  Te83  1  0.42325142  0.07245333  0.75899860  1
  Te  Te84  1  0.41199280  0.42548703  0.07984838  1
  Te  Te85  1  0.40670209  0.43258747  0.42514705  1
  Te  Te86  1  0.44396614  0.46195175  0.73353830  1
  Te  Te87  1  0.39927995  0.75655623  0.08665316  1
  Te  Te88  1  0.40910439  0.73082862  0.45667081  1
  Te  Te89  1  0.42773763  0.76389793  0.74280783  1
  Te  Te90  1  0.75786491  0.05720446  0.08118117  1
  Te  Te91  1  0.75423524  0.07587891  0.42640604  1
  Te  Te92  1  0.75854478  0.08657870  0.72666431  1
  Te  Te93  1  0.75273236  0.41922557  0.08706532  1
  Te  Te94  1  0.75189701  0.40333513  0.42615100  1
  Te  Te95  1  0.75703975  0.41316555  0.75865075  1
  Te  Te96  1  0.77017976  0.74993912  0.08136353  1
  Te  Te97  1  0.73782981  0.74416023  0.44316802  1
  Te  Te98  1  0.76230194  0.73500382  0.70364874  1
  Te  Te99  1  0.12649135  0.26968009  0.24152480  1
  Te  Te100  1  0.07233834  0.23848981  0.58834442  1
  Te  Te101  1  0.09825100  0.27500656  0.89631388  1
  Te  Te102  1  0.09622083  0.56972497  0.24711951  1
  Te  Te103  1  0.08036135  0.57580111  0.58708714  1
  Te  Te104  1  0.09958475  0.58724360  0.91032695  1
  Te  Te105  1  0.06902620  0.90835256  0.23885070  1
  Te  Te106  1  0.09199242  0.92755067  0.56403492  1
  Te  Te107  1  0.06767166  0.93897957  0.93302906  1
  Te  Te108  1  0.42258238  0.26473821  0.24847948  1
  Te  Te109  1  0.40061131  0.25142664  0.58985203  1
  Te  Te110  1  0.41727759  0.25497885  0.90513092  1
  Te  Te111  1  0.41460262  0.58851497  0.26286594  1
  Te  Te112  1  0.40109977  0.56797076  0.63367040  1
  Te  Te113  1  0.36544355  0.54074876  0.87272733  1
  Te  Te114  1  0.40949184  0.90896853  0.25118860  1
  Te  Te115  1  0.42434786  0.89203370  0.60610862  1
  Te  Te116  1  0.42126926  0.91711149  0.90934780  1
  Te  Te117  1  0.73896727  0.24492811  0.24334122  1
  Te  Te118  1  0.76556374  0.24235796  0.57808608  1
  Te  Te119  1  0.76797425  0.24463224  0.88982565  1
  Te  Te120  1  0.74081556  0.57736080  0.25349208  1
  Te  Te121  1  0.72711994  0.60203838  0.61479309  1
  Te  Te122  1  0.74216331  0.59963634  0.91142899  1
  Te  Te123  1  0.77979638  0.92245081  0.24831864  1
  Te  Te124  1  0.75495263  0.93149479  0.62371367  1
  Te  Te125  1  0.76107537  0.89061626  0.89092901  1
  Te  Te126  1  0.24277927  0.24485558  0.08454279  1
  Te  Te127  1  0.24688748  0.23326837  0.43902312  1
  Te  Te128  1  0.24554826  0.26382678  0.73532556  1
  Te  Te129  1  0.25941559  0.58675690  0.08099910  1
  Te  Te130  1  0.26212087  0.60111136  0.41442854  1
  Te  Te131  1  0.28489254  0.59826185  0.74424895  1
  Te  Te132  1  0.24529495  0.90696701  0.10136906  1
  Te  Te133  1  0.26238018  0.90428427  0.44360671  1
  Te  Te134  1  0.22577415  0.92775826  0.76564960  1
  Te  Te135  1  0.60399189  0.22675725  0.05340802  1
  Te  Te136  1  0.58883829  0.26280209  0.41500426  1
  Te  Te137  1  0.56656957  0.26405263  0.74756722  1
  Te  Te138  1  0.58711119  0.55814471  0.08802887  1
  Te  Te139  1  0.57192121  0.58398438  0.41888278  1
  Te  Te140  1  0.59662202  0.60070715  0.73663076  1
  Te  Te141  1  0.60436272  0.93522302  0.06456674  1
  Te  Te142  1  0.58541466  0.90719805  0.40079767  1
  Te  Te143  1  0.58633269  0.95012434  0.78172367  1
  Te  Te144  1  0.90461657  0.23751017  0.07696684  1
  Te  Te145  1  0.92284583  0.27016642  0.39135017  1
  Te  Te146  1  0.94588943  0.30167663  0.72334405  1
  Te  Te147  1  0.94136587  0.56878326  0.08870687  1
  Te  Te148  1  0.89426243  0.59461924  0.44615785  1
  Te  Te149  1  0.91203329  0.58768125  0.77188160  1
  Te  Te150  1  0.85248867  0.95576403  0.02679309  1
  Te  Te151  1  0.90371301  0.91926432  0.43242737  1
  Te  Te152  1  0.92549990  0.90865317  0.73570226  1
  Te  Te153  1  0.23851458  0.08273112  0.26949648  1
  Te  Te154  1  0.25467364  0.07592414  0.57880982  1
  Te  Te155  1  0.25145442  0.07927145  0.92409084  1
  Te  Te156  1  0.23070241  0.38797530  0.24452099  1
  Te  Te157  1  0.25544060  0.44105664  0.57804606  1
  Te  Te158  1  0.21954744  0.39088000  0.89566307  1
  Te  Te159  1  0.25701036  0.74465111  0.26936591  1
  Te  Te160  1  0.25552684  0.72958980  0.62407806  1
  Te  Te161  1  0.24327222  0.74286345  0.92000589  1
  Te  Te162  1  0.60373515  0.10089449  0.22839786  1
  Te  Te163  1  0.58564968  0.05766614  0.58815262  1
  Te  Te164  1  0.60779100  0.05097021  0.89431484  1
  Te  Te165  1  0.59864713  0.39455335  0.23899561  1
  Te  Te166  1  0.58608409  0.42679814  0.58729955  1
  Te  Te167  1  0.57155342  0.41003452  0.91622210  1
  Te  Te168  1  0.57881453  0.75920805  0.23320840  1
  Te  Te169  1  0.55980838  0.78062330  0.59530391  1
  Te  Te170  1  0.57689663  0.74634424  0.91222108  1
  Te  Te171  1  0.92290718  0.08620359  0.24102780  1
  Te  Te172  1  0.91830204  0.08535061  0.57569667  1
  Te  Te173  1  0.93895162  0.10364990  0.87888821  1
  Te  Te174  1  0.93163582  0.41968139  0.25874621  1
  Te  Te175  1  0.90639746  0.39509089  0.59558543  1
  Te  Te176  1  0.90634610  0.41424147  0.91462474  1
  Te  Te177  1  0.92777874  0.73662320  0.26403646  1
  Te  Te178  1  0.88239921  0.75290795  0.60348664  1
  Te  Te179  1  0.89408196  0.75523569  0.91274377  1
