# generated using pymatgen
data_In2Te3
_symmetry_space_group_name_H-M   'P 1'
_cell_length_a   18.96034951
_cell_length_b   19.00807038
_cell_length_c   18.95840304
_cell_angle_alpha   90.33294500
_cell_angle_beta   90.17760605
_cell_angle_gamma   90.34751510
_symmetry_Int_Tables_number   1
_chemical_formula_structural   In2Te3
_chemical_formula_sum   'In72 Te108'
_cell_volume   6832.32735701
_cell_formula_units_Z   36
loop_
 _symmetry_equiv_pos_site_id
 _symmetry_equiv_pos_as_xyz
  1  'x, y, z'
loop_
 _atom_site_type_symbol
 _atom_site_label
 _atom_site_symmetry_multiplicity
 _atom_site_fract_x
 _atom_site_fract_y
 _atom_site_fract_z
 _atom_site_occupancy
  In  In0  1  0.66384787  0.16500185  0.81897962  1
  In  In1  1  0.64202169  0.51155933  0.14198156  1
  In  In2  1  0.47277838  0.36777736  0.87694791  1
  In  In3  1  0.17349862  0.52863664  -0.01974179  1
  In  In4  1  0.30423657  0.13638745  0.81950340  1
  In  In5  1  0.81843920  0.65764914  0.52132341  1
  In  In6  1  0.69470602  0.14267619  0.50122976  1
  In  In7  1  0.64841138  0.82198639  0.17362647  1
  In  In8  1  -0.00889402  0.33640510  0.34148956  1
  In  In9  1  0.47724356  0.17180632  0.69557110  1
  In  In10  1  0.16986660  0.48712692  0.67503024  1
  In  In11  1  0.51677539  0.51157149  0.36023924  1
  In  In12  1  0.15590799  0.47413911  0.32545213  1
  In  In13  1  0.00485884  0.68194497  0.36339889  1
  In  In14  1  0.32959641  0.50849005  0.82955082  1
  In  In15  1  0.87780398  0.83237372  0.66575499  1
  In  In16  1  0.50258911  0.84711022  0.34337250  1
  In  In17  1  0.34593789  0.67793029  -0.02060640  1
  In  In18  1  0.18865422  0.66317939  0.51709241  1
  In  In19  1  0.69373641  -0.02009960  0.67734939  1
  In  In20  1  0.83760312  0.31561367  0.81227224  1
  In  In21  1  0.48214031  0.18002148  0.00233615  1
  In  In22  1  -0.03703166  0.52446902  0.52183166  1
  In  In23  1  0.29826986  0.17814049  0.52263511  1
  In  In24  1  0.34887420  0.00848662  0.31817396  1
  In  In25  1  0.46333773  0.35570062  0.12686031  1
  In  In26  1  0.69651623  0.81361217  0.53034076  1
  In  In27  1  0.86468466  0.14304052  0.64619754  1
  In  In28  1  0.86438337  0.85616129  0.35843736  1
  In  In29  1  0.17347865  0.83191338  0.31701799  1
  In  In30  1  0.66121936  0.01824750  -0.00016938  1
  In  In31  1  0.65927336  0.55061846  0.80504890  1
  In  In32  1  0.65756017  0.35432335  0.34479466  1
  In  In33  1  0.86834918  -0.07548775  0.84044884  1
  In  In34  1  0.33356531  0.33833558  0.67947882  1
  In  In35  1  -0.02545225  0.51551551  0.76682485  1
  In  In36  1  0.82350986  0.49783866  -0.04094837  1
  In  In37  1  0.35320030  0.65508931  0.34706875  1
  In  In38  1  0.51696408  0.17904676  0.33113179  1
  In  In39  1  0.02560612  0.32982921  0.01690950  1
  In  In40  1  0.80614582  0.48583948  0.30074367  1
  In  In41  1  0.34457182  0.82654534  0.48387546  1
  In  In42  1  0.66007371  0.36376203  0.66451658  1
  In  In43  1  0.50919540  0.02794569  0.50622600  1
  In  In44  1  0.49079855  0.83685389  -0.01473658  1
  In  In45  1  0.65202011  0.67694050  0.01304928  1
  In  In46  1  0.19446358  0.69334545  0.15002199  1
  In  In47  1  0.82992802  0.14544763  0.00234455  1
  In  In48  1  -0.01818367  0.85613743  0.12334933  1
  In  In49  1  0.82708530  0.68143184  0.16384979  1
  In  In50  1  0.67131353  0.81646716  0.80776496  1
  In  In51  1  0.31413565  0.84341799  0.84265135  1
  In  In52  1  0.68701436  -0.01130750  0.34940365  1
  In  In53  1  0.16516539  0.84841154  -0.00026865  1
  In  In54  1  0.01057539  0.53170272  0.17528916  1
  In  In55  1  0.32421933  0.31118872  0.34397502  1
  In  In56  1  0.34512865  0.65943267  0.67086971  1
  In  In57  1  0.49575186  0.83812464  0.65586572  1
  In  In58  1  0.17921368  -0.00720898  0.16663654  1
  In  In59  1  -0.00986228  0.16661643  0.85060162  1
  In  In60  1  0.35852891  0.48513699  0.50820879  1
  In  In61  1  0.14232698  0.16936343  0.64385311  1
  In  In62  1  0.00399149  0.10324817  0.19880099  1
  In  In63  1  -0.02482263  0.67335910  -0.03518969  1
  In  In64  1  0.81584243  0.30928527  0.15301859  1
  In  In65  1  0.15537979  -0.00984192  0.84643385  1
  In  In66  1  0.08135855  -0.01676620  0.54109985  1
  In  In67  1  0.63034222  0.34125631  -0.01462478  1
  In  In68  1  0.86046865  0.33936767  0.54003258  1
  In  In69  1  0.31518805  0.15588810  0.15367333  1
  In  In70  1  0.16940038  0.31413230  0.18298477  1
  In  In71  1  0.67814369  0.14746929  0.19245651  1
  Te  Te72  1  0.08571190  0.06985150  0.08441211  1
  Te  Te73  1  0.04068085  0.04849996  0.41098641  1
  Te  Te74  1  0.07895873  0.08678877  0.75532155  1
  Te  Te75  1  0.10129687  0.44209575  0.09425205  1
  Te  Te76  1  0.05843144  0.43833621  0.43285611  1
  Te  Te77  1  0.07605937  0.41105188  0.75701671  1
  Te  Te78  1  0.06731409  0.73295133  0.07887544  1
  Te  Te79  1  0.10861333  0.76438297  0.43744766  1
  Te  Te80  1  -0.01131559  0.73827052  0.71834678  1
  Te  Te81  1  0.42848824  0.08432469  0.09760376  1
  Te  Te82  1  0.41104503  0.11035496  0.42440625  1
  Te  Te83  1  0.39536938  0.05917452  0.73434373  1
  Te  Te84  1  0.40190033  0.41017817  0.00640274  1
  Te  Te85  1  0.43289056  0.39373469  0.41341928  1
  Te  Te86  1  0.43205332  0.43217227  0.74344921  1
  Te  Te87  1  0.43488342  0.73965953  0.08197372  1
  Te  Te88  1  0.44968038  0.73172136  0.43589117  1
  Te  Te89  1  0.41460750  0.76277931  0.75868949  1
  Te  Te90  1  0.77099748  0.05573345  0.11231632  1
  Te  Te91  1  0.79261525  0.08062921  0.40727390  1
  Te  Te92  1  0.77398068  0.08362789  0.75568758  1
  Te  Te93  1  0.74735897  0.41841126  0.07215178  1
  Te  Te94  1  0.78007166  0.40071404  0.42246169  1
  Te  Te95  1  0.75053275  0.43025240  0.76664123  1
  Te  Te96  1  0.75498773  0.77396139  0.07131779  1
  Te  Te97  1  0.76594788  0.75107413  0.41201088  1
  Te  Te98  1  0.76816678  0.74136607  0.72441514  1
  Te  Te99  1  0.06754088  0.23593657  0.25914582  1
  Te  Te100  1  0.08057367  0.23906147  0.52962944  1
  Te  Te101  1  0.09390329  0.24286723  0.92278878  1
  Te  Te102  1  0.10678762  0.60993079  0.26544089  1
  Te  Te103  1  0.08566932  0.58492781  0.59317971  1
  Te  Te104  1  0.05498979  0.56959208  0.89315375  1
  Te  Te105  1  0.07198156  0.90761884  0.23663285  1
  Te  Te106  1  0.08258352  0.88788975  0.65872756  1
  Te  Te107  1  0.05889436  0.89201214  0.90658700  1
  Te  Te108  1  0.42425957  0.25052210  0.23574566  1
  Te  Te109  1  0.41795396  0.25413787  0.58496737  1
  Te  Te110  1  0.39474661  0.23855644  0.89600042  1
  Te  Te111  1  0.42769880  0.56490643  0.25860207  1
  Te  Te112  1  0.43769983  0.58211276  0.58559480  1
  Te  Te113  1  0.42808550  0.60280567  0.88443226  1
  Te  Te114  1  0.42485908  0.91317122  0.23958800  1
  Te  Te115  1  0.41171913  0.93344940  0.57295281  1
  Te  Te116  1  0.38498071  0.93012893  0.94020123  1
  Te  Te117  1  0.75245439  0.25069487  0.27554719  1
  Te  Te118  1  0.75346931  0.24872375  0.60324628  1
  Te  Te119  1  0.74783259  0.24764926  0.92226618  1
  Te  Te120  1  0.72484261  0.59676144  0.23856122  1
  Te  Te121  1  0.72056632  0.55836550  0.57486313  1
  Te  Te122  1  0.75150414  0.61753795  0.90982188  1
  Te  Te123  1  0.75844787  0.89565150  0.25607856  1
  Te  Te124  1  0.78710189  0.92616280  0.57476473  1
  Te  Te125  1  0.72961659  0.92006560  0.90741212  1
  Te  Te126  1  0.24218142  0.25263243  0.07379123  1
  Te  Te127  1  0.21354709  0.25404289  0.42586771  1
  Te  Te128  1  0.23324178  0.24748733  0.74267919  1
  Te  Te129  1  0.27110840  0.58496690  0.08367534  1
  Te  Te130  1  0.25069166  0.56420822  0.41998787  1
  Te  Te131  1  0.23425308  0.59910269  0.75462953  1
  Te  Te132  1  0.26596243  0.90075699  0.09203908  1
  Te  Te133  1  0.25845342  0.92273204  0.40541276  1
  Te  Te134  1  0.22733515  0.91088018  0.74217627  1
  Te  Te135  1  0.60537724  0.22791039  0.08484318  1
  Te  Te136  1  0.60156258  0.24505050  0.43822708  1
  Te  Te137  1  0.57898417  0.27431828  0.75866338  1
  Te  Te138  1  0.54374411  0.60425047  0.08413223  1
  Te  Te139  1  0.62694040  0.56113985  0.44432144  1
  Te  Te140  1  0.58511559  0.60612500  0.69217710  1
  Te  Te141  1  0.57954625  0.92105302  0.08109353  1
  Te  Te142  1  0.60190897  0.91850878  0.45547700  1
  Te  Te143  1  0.57576566  0.92416630  0.75381320  1
  Te  Te144  1  0.92564234  0.23079498  0.08510891  1
  Te  Te145  1  0.94326215  0.24758545  0.45385754  1
  Te  Te146  1  0.94129288  0.24650768  0.72769184  1
  Te  Te147  1  0.90251807  0.57644369  0.07627061  1
  Te  Te148  1  0.89729128  0.57713743  0.38957233  1
  Te  Te149  1  0.88576661  0.63185665  0.74228740  1
  Te  Te150  1  0.89819528  0.96577474  0.08217647  1
  Te  Te151  1  0.97297144  0.91361305  0.44520534  1
  Te  Te152  1  0.96017536  0.95321108  0.72246432  1
  Te  Te153  1  0.23680740  0.09501967  0.26743750  1
  Te  Te154  1  0.21859207  0.06119566  0.57075917  1
  Te  Te155  1  0.25343935  0.05895716  0.93393839  1
  Te  Te156  1  0.26817771  0.41298094  0.24575161  1
  Te  Te157  1  0.24736232  0.40550767  0.57360905  1
  Te  Te158  1  0.25105799  0.41959379  0.91818701  1
  Te  Te159  1  0.28747289  0.75541410  0.25333104  1
  Te  Te160  1  0.26404255  0.76648300  0.59746684  1
  Te  Te161  1  0.22465485  0.74098088  0.91216772  1
  Te  Te162  1  0.57987689  0.05826971  0.26594178  1
  Te  Te163  1  0.59731343  0.09221015  0.61276494  1
  Te  Te164  1  0.56703995  0.09007522  0.90565316  1
  Te  Te165  1  0.57918504  0.39847808  0.22032587  1
  Te  Te166  1  0.61067913  0.44616267  0.55255915  1
  Te  Te167  1  0.58755746  0.46395965  0.91295021  1
  Te  Te168  1  0.58094294  0.74359562  0.27632725  1
  Te  Te169  1  0.59316240  0.73549406  0.60462355  1
  Te  Te170  1  0.57626297  0.74332662  0.89925564  1
  Te  Te171  1  0.89456017  0.07757569  0.28876240  1
  Te  Te172  1  0.95730934  0.07653544  0.54985635  1
  Te  Te173  1  0.91349420  0.05400760  0.91774442  1
  Te  Te174  1  0.92100773  0.41126571  0.22340238  1
  Te  Te175  1  0.90501883  0.44755095  0.63518749  1
  Te  Te176  1  0.91748471  0.38760941  0.92192259  1
  Te  Te177  1  0.92822497  0.75455115  0.25236229  1
  Te  Te178  1  0.93693268  0.73913472  0.56137945  1
  Te  Te179  1  0.91777651  0.79797453  0.91177490  1
