# generated using pymatgen
data_In2Te3
_symmetry_space_group_name_H-M   'P 1'
_cell_length_a   18.85047998
_cell_length_b   18.84480686
_cell_length_c   18.84185467
_cell_angle_alpha   89.96459729
_cell_angle_beta   89.97869463
_cell_angle_gamma   89.89710782
_symmetry_Int_Tables_number   1
_chemical_formula_structural   In2Te3
_chemical_formula_sum   'In72 Te108'
_cell_volume   6693.24836185
_cell_formula_units_Z   36
loop_
 _symmetry_equiv_pos_site_id
 _symmetry_equiv_pos_as_xyz
  1  'x, y, z'
loop_
 _atom_site_type_symbol
 _atom_site_label
 _atom_site_symmetry_multiplicity
 _atom_site_fract_x
 _atom_site_fract_y
 _atom_site_fract_z
 _atom_site_occupancy
  In  In0  1  0.32211987  0.66932397  0.33029821  1
  In  In1  1  0.47608863  0.66526941  0.51573719  1
  In  In2  1  0.48242918  0.86601903  0.30810604  1
  In  In3  1  0.28262800  0.63190092  0.64391353  1
  In  In4  1  0.47389661  0.30646264  0.81338700  1
  In  In5  1  0.34842611  0.15428465  0.84050103  1
  In  In6  1  0.04042296  0.16062843  0.50129362  1
  In  In7  1  0.67839661  0.14993964  0.52595441  1
  In  In8  1  0.64848397  0.48196878  0.49118684  1
  In  In9  1  0.62656149  0.13724404  0.87899741  1
  In  In10  1  -0.00405315  0.33952432  -0.01816084  1
  In  In11  1  0.14599301  0.65693992  0.50072489  1
  In  In12  1  0.85611930  0.67035131  0.50176711  1
  In  In13  1  0.30338081  0.15934466  0.49165417  1
  In  In14  1  0.16903073  0.47887238  0.00403774  1
  In  In15  1  0.68393501  0.67785871  0.34411837  1
  In  In16  1  0.64433757  0.00186707  0.68121599  1
  In  In17  1  0.67063356  0.86604908  0.15098700  1
  In  In18  1  0.46980839  0.32097943  0.17947592  1
  In  In19  1  0.66249641  -0.00531730  0.32361443  1
  In  In20  1  0.82293991  0.86877281  -0.02784026  1
  In  In21  1  0.85845755  0.12538856  -0.02290678  1
  In  In22  1  0.83717806  0.48920478  0.66603692  1
  In  In23  1  0.82840636  0.34219682  0.17383270  1
  In  In24  1  0.50602763  0.82771338  0.00324635  1
  In  In25  1  0.83876005  0.00277553  0.15637086  1
  In  In26  1  0.67368882  0.84926208  0.51136018  1
  In  In27  1  0.85347795  0.52640834  0.30061151  1
  In  In28  1  0.14420486  0.00485815  0.83224674  1
  In  In29  1  0.46295791  0.48819344  0.34223333  1
  In  In30  1  0.84344022  0.17476762  0.32712345  1
  In  In31  1  0.31299156  0.81720230  0.82708614  1
  In  In32  1  0.48532741  0.33395059  0.46661457  1
  In  In33  1  0.30803726  0.34834731  0.64197197  1
  In  In34  1  0.00712784  0.68614898  0.02846777  1
  In  In35  1  0.64659386  0.53034261  0.84728038  1
  In  In36  1  0.63850358  0.33515174  0.64368194  1
  In  In37  1  0.18835309  0.17450436  0.04938194  1
  In  In38  1  0.49619483  0.65795046  0.18757795  1
  In  In39  1  0.17680254  0.65305699  0.83389131  1
  In  In40  1  0.84841761  0.83814482  0.66183313  1
  In  In41  1  0.70307413  0.32010824  0.32335446  1
  In  In42  1  0.48624427  0.15519231  0.67392192  1
  In  In43  1  0.82076031  0.32097165  0.82266004  1
  In  In44  1  0.64342753  0.32314826  0.00941345  1
  In  In45  1  0.49186465  0.68883011  0.83490312  1
  In  In46  1  0.01964445  0.83576331  0.81945606  1
  In  In47  1  0.35257436  0.00832586  0.02085437  1
  In  In48  1  0.86288018  0.34330020  0.49705312  1
  In  In49  1  0.88423611  -0.02299231  0.47339077  1
  In  In50  1  0.32565621  0.65882214  0.01308813  1
  In  In51  1  0.82408958  0.14707870  0.69370973  1
  In  In52  1  0.03424564  0.67050529  0.31828073  1
  In  In53  1  0.46836545  0.86064395  0.64765332  1
  In  In54  1  0.00451041  0.33079592  0.66279392  1
  In  In55  1  0.17319887  0.00969799  0.18125947  1
  In  In56  1  0.14280022  0.34443885  0.33463355  1
  In  In57  1  0.01999240  0.50407812  0.17876149  1
  In  In58  1  0.01299662  0.84234842  0.18601695  1
  In  In59  1  0.83368383  0.68281695  0.14411103  1
  In  In60  1  -0.00553503  0.50596322  0.81397560  1
  In  In61  1  0.48566441  0.49603432  0.00351888  1
  In  In62  1  0.82059649  0.66865394  0.83430240  1
  In  In63  1  0.67789224  0.66559911  0.68524666  1
  In  In64  1  0.18814479  0.31023974  0.85975062  1
  In  In65  1  0.32832864  0.86171516  0.20286701  1
  In  In66  1  0.18139846  0.83383056  0.65411210  1
  In  In67  1  0.00845377  0.17617281  0.17059429  1
  In  In68  1  0.18279794  -0.01105938  0.49820011  1
  In  In69  1  0.62373554  0.48595574  0.14928028  1
  In  In70  1  0.00601762  0.01265921  0.67671915  1
  In  In71  1  0.49204202  0.15251779  0.34887433  1
  Te  Te72  1  0.07433257  0.07322295  0.08121296  1
  Te  Te73  1  0.11458105  0.08197898  0.40021325  1
  Te  Te74  1  0.11046393  0.10543161  0.72665076  1
  Te  Te75  1  0.08225962  0.39045670  0.09615633  1
  Te  Te76  1  0.12522780  0.45541616  0.43576079  1
  Te  Te77  1  0.08828951  0.39531020  0.77280868  1
  Te  Te78  1  0.10536597  0.74429469  0.12153716  1
  Te  Te79  1  0.08161040  0.76899338  0.42166877  1
  Te  Te80  1  0.09473241  0.73544880  0.73504531  1
  Te  Te81  1  0.42114848  0.13856315  0.05629629  1
  Te  Te82  1  0.39007076  0.06180274  0.41515938  1
  Te  Te83  1  0.42170501  0.05462539  0.75877353  1
  Te  Te84  1  0.39473058  0.40915052  0.08379334  1
  Te  Te85  1  0.36425179  0.40809079  0.41951100  1
  Te  Te86  1  0.40275184  0.41071967  0.73864569  1
  Te  Te87  1  0.40918133  0.75485537  0.10679688  1
  Te  Te88  1  0.42867497  0.75159521  0.40036568  1
  Te  Te89  1  0.39785166  0.74127774  0.72589818  1
  Te  Te90  1  0.74319647  0.06534261  0.05617890  1
  Te  Te91  1  0.76048829  0.07959010  0.41594136  1
  Te  Te92  1  0.73595392  0.06572945  0.78552414  1
  Te  Te93  1  0.74152438  0.42141376  0.07593107  1
  Te  Te94  1  0.77054902  0.43563975  0.40749377  1
  Te  Te95  1  0.72624381  0.42112994  0.74469446  1
  Te  Te96  1  0.74250835  0.76817485  0.05819475  1
  Te  Te97  1  0.77283411  0.77303194  0.42344416  1
  Te  Te98  1  0.74579893  0.78047805  0.75914089  1
  Te  Te99  1  0.11868812  0.20447843  0.27156286  1
  Te  Te100  1  0.10756044  0.27393369  0.57113920  1
  Te  Te101  1  0.08696510  0.22744897  0.93689274  1
  Te  Te102  1  0.12558028  0.56689563  0.26150870  1
  Te  Te103  1  0.13851597  0.56564149  0.62303793  1
  Te  Te104  1  0.06896127  0.58164113  0.92546976  1
  Te  Te105  1  0.09330836  0.92825231  0.27954583  1
  Te  Te106  1  0.07434974  0.91612460  0.58279041  1
  Te  Te107  1  0.09546145  0.90173602  0.92606287  1
  Te  Te108  1  0.39223523  0.22907415  0.26802760  1
  Te  Te109  1  0.41529688  0.24548185  0.57450642  1
  Te  Te110  1  0.41540887  0.24826580  0.93812975  1
  Te  Te111  1  0.38848613  0.56235894  0.23337586  1
  Te  Te112  1  0.38502840  0.56187664  0.56175236  1
  Te  Te113  1  0.40591763  0.58509878  0.90669660  1
  Te  Te114  1  0.42276264  0.97412731  0.22586092  1
  Te  Te115  1  0.37096336  0.91210144  0.55117803  1
  Te  Te116  1  0.39999908  0.90081272  0.91974168  1
  Te  Te117  1  0.74631002  0.21973961  0.21785974  1
  Te  Te118  1  0.76942121  0.26404540  0.58839687  1
  Te  Te119  1  0.74374583  0.23773562  0.92493244  1
  Te  Te120  1  0.73105007  0.58477726  0.22938891  1
  Te  Te121  1  0.74270065  0.58026221  0.57216036  1
  Te  Te122  1  0.75246552  0.58293905  0.93224487  1
  Te  Te123  1  0.77069848  0.91009514  0.25756006  1
  Te  Te124  1  0.76302143  0.94366277  0.59029275  1
  Te  Te125  1  0.72073694  0.96934913  0.93579764  1
  Te  Te126  1  0.25728781  0.29855771  0.11107136  1
  Te  Te127  1  0.26225493  0.27722921  0.41044387  1
  Te  Te128  1  0.26455152  0.24329120  0.74600372  1
  Te  Te129  1  0.23541553  0.57561771  0.09480339  1
  Te  Te130  1  0.23319707  0.57282268  0.40704799  1
  Te  Te131  1  0.24597584  0.54525165  0.76087932  1
  Te  Te132  1  0.24771886  0.91807395  0.08491077  1
  Te  Te133  1  0.29499836  0.93230110  0.41556921  1
  Te  Te134  1  0.25094299  0.93061233  0.74748095  1
  Te  Te135  1  0.57056751  0.23871155  0.10518053  1
  Te  Te136  1  0.61085725  0.24910598  0.42678032  1
  Te  Te137  1  0.60272016  0.22928386  0.74873920  1
  Te  Te138  1  0.57325294  0.60380963  0.06683697  1
  Te  Te139  1  0.57567776  0.58591814  0.40330438  1
  Te  Te140  1  0.56051619  0.58428251  0.73592656  1
  Te  Te141  1  0.56492174  0.94269403  0.07931403  1
  Te  Te142  1  0.57331335  0.92038331  0.42264698  1
  Te  Te143  1  0.55963162  0.90602328  0.75373388  1
  Te  Te144  1  0.90598343  0.24810308  0.07425832  1
  Te  Te145  1  0.94489813  0.25014020  0.41141234  1
  Te  Te146  1  0.92896225  0.23465193  0.76025436  1
  Te  Te147  1  0.91979172  0.57214080  0.08368484  1
  Te  Te148  1  0.94089561  0.58373886  0.40996833  1
  Te  Te149  1  0.91319954  0.60487813  0.73042274  1
  Te  Te150  1  0.92671731  0.90988605  0.07468338  1
  Te  Te151  1  0.97651863  0.89241793  0.39786775  1
  Te  Te152  1  0.91006597  0.93810593  0.77304999  1
  Te  Te153  1  0.24813758  0.13729414  0.20798556  1
  Te  Te154  1  0.23152470  0.08785130  0.59995410  1
  Te  Te155  1  0.24471375  0.08301317  0.93219996  1
  Te  Te156  1  0.25329052  0.37492912  0.23928345  1
  Te  Te157  1  0.19422161  0.42601218  0.57515078  1
  Te  Te158  1  0.27399119  0.40798372  0.92805466  1
  Te  Te159  1  0.23342281  0.76107635  0.25510832  1
  Te  Te160  1  0.25780006  0.75387212  0.55131293  1
  Te  Te161  1  0.22982286  0.75131651  0.93647521  1
  Te  Te162  1  0.57481821  0.08441090  0.24640970  1
  Te  Te163  1  0.56016416  0.06729069  0.57038580  1
  Te  Te164  1  0.52401132  0.06763461  0.96302347  1
  Te  Te165  1  0.58103684  0.40516989  0.27078226  1
  Te  Te166  1  0.53882625  0.42954357  0.58035694  1
  Te  Te167  1  0.57024127  0.40677594  0.90194085  1
  Te  Te168  1  0.59508406  0.76421838  0.25005701  1
  Te  Te169  1  0.58737670  0.74875677  0.58638911  1
  Te  Te170  1  0.59681494  0.75934248  0.90823392  1
  Te  Te171  1  0.93099664  0.07324369  0.25538108  1
  Te  Te172  1  0.91636378  0.09711792  0.57636674  1
  Te  Te173  1  0.93650953  0.04983272  0.88062619  1
  Te  Te174  1  0.93552781  0.40307416  0.26279103  1
  Te  Te175  1  0.94847305  0.44426871  0.57244113  1
  Te  Te176  1  0.89721344  0.42594277  0.90295882  1
  Te  Te177  1  0.91367652  0.74551075  0.25348481  1
  Te  Te178  1  0.94218769  0.75484182  0.58578815  1
  Te  Te179  1  0.92147981  0.75258004  0.91702934  1
