# generated using pymatgen
data_In2Te3
_symmetry_space_group_name_H-M   'P 1'
_cell_length_a   18.84596956
_cell_length_b   18.84331667
_cell_length_c   18.83605613
_cell_angle_alpha   89.86257413
_cell_angle_beta   89.98145804
_cell_angle_gamma   90.02077731
_symmetry_Int_Tables_number   1
_chemical_formula_structural   In2Te3
_chemical_formula_sum   'In72 Te108'
_cell_volume   6689.05100323
_cell_formula_units_Z   36
loop_
 _symmetry_equiv_pos_site_id
 _symmetry_equiv_pos_as_xyz
  1  'x, y, z'
loop_
 _atom_site_type_symbol
 _atom_site_label
 _atom_site_symmetry_multiplicity
 _atom_site_fract_x
 _atom_site_fract_y
 _atom_site_fract_z
 _atom_site_occupancy
  In  In0  1  0.50332507  0.84614682  0.65270575  1
  In  In1  1  0.29361510  0.52025901  0.15139621  1
  In  In2  1  0.85640319  0.84119968  0.00241870  1
  In  In3  1  0.50051929  0.50067884  0.67699811  1
  In  In4  1  0.84884780  0.33590722  0.80992295  1
  In  In5  1  0.69750112  0.53541169  0.85054771  1
  In  In6  1  0.64280396  0.30736232  0.34369896  1
  In  In7  1  0.28915939  0.65941540  0.36828282  1
  In  In8  1  0.34263361  0.17110121  0.84568385  1
  In  In9  1  -0.01956867  0.68506181  0.33917700  1
  In  In10  1  0.17687860  0.16514016  0.32360311  1
  In  In11  1  0.51872773  -0.01161331  0.51047674  1
  In  In12  1  -0.00065393  -0.00514574  0.65222429  1
  In  In13  1  0.31820312  0.83567460  0.81503511  1
  In  In14  1  0.14627394  0.67014683  0.82880382  1
  In  In15  1  0.50477535  0.64275537  0.15654738  1
  In  In16  1  0.34265566  0.14673870  0.19820928  1
  In  In17  1  0.19797921  0.52724059  0.00155054  1
  In  In18  1  0.51186664  0.31609525  0.16617562  1
  In  In19  1  0.51049350  0.68165745  0.50812820  1
  In  In20  1  0.32479966  0.34175935  0.32379190  1
  In  In21  1  0.00286567  0.15074168  0.17838162  1
  In  In22  1  0.31246803  0.63849507  0.01882579  1
  In  In23  1  0.65430623  0.50398852  0.49783984  1
  In  In24  1  0.50667640  -0.02019916  0.82685323  1
  In  In25  1  0.85507282  0.52715347  0.64662694  1
  In  In26  1  0.14942165  0.16533623  0.65195430  1
  In  In27  1  0.78300313  -0.02050413  0.51142135  1
  In  In28  1  0.84566861  0.01755205  0.82937372  1
  In  In29  1  0.64313081  0.14082959  0.21785199  1
  In  In30  1  0.67271026  0.84944277  0.18606716  1
  In  In31  1  0.84376778  0.68743751  0.16864544  1
  In  In32  1  0.49993447  0.84171972  0.33446739  1
  In  In33  1  0.00591990  0.33336124  -0.00336912  1
  In  In34  1  0.00373722  0.50935294  0.82595782  1
  In  In35  1  0.30747930  -0.02811948  0.65225582  1
  In  In36  1  0.83497900  0.16256604  0.00300014  1
  In  In37  1  0.84454108  -0.02142116  0.17769993  1
  In  In38  1  0.31466991  0.68272243  0.62340879  1
  In  In39  1  0.66428808  0.35274621  0.01399062  1
  In  In40  1  0.69159863  0.51134213  0.16716246  1
  In  In41  1  0.67249305  -0.01130111  -0.00096305  1
  In  In42  1  -0.02816477  0.15074454  0.83352412  1
  In  In43  1  0.33854657  0.81715392  0.19273530  1
  In  In44  1  0.84622476  0.50378163  0.31622381  1
  In  In45  1  0.52006284  0.47111251  0.01928688  1
  In  In46  1  0.50078795  0.14835338  0.65376129  1
  In  In47  1  0.68394008  0.81072107  0.78977280  1
  In  In48  1  0.17034721  0.34029159  0.17818652  1
  In  In49  1  -0.01228651  0.52044391  0.16669291  1
  In  In50  1  0.16029106  0.50987398  0.66448147  1
  In  In51  1  0.32296358  0.01346191  0.02633611  1
  In  In52  1  0.35029713  0.16163434  0.47779051  1
  In  In53  1  0.00088277  0.83502153  0.50726354  1
  In  In54  1  0.18181184  0.16155965  -0.01152391  1
  In  In55  1  0.33036286  0.48748941  0.82514012  1
  In  In56  1  0.52407723  0.83136528  -0.00517434  1
  In  In57  1  0.33001673  0.33724777  -0.01185329  1
  In  In58  1  0.66549413  0.14546977  0.83567543  1
  In  In59  1  0.12653715  0.81552473  0.00803256  1
  In  In60  1  0.66313824  0.33257452  0.65983616  1
  In  In61  1  0.31669657  0.34049323  0.65841441  1
  In  In62  1  0.48029341  0.50546017  0.33715043  1
  In  In63  1  0.84174477  0.18686203  0.66013266  1
  In  In64  1  0.00185682  0.81255951  0.83002402  1
  In  In65  1  0.00433615  -0.01504157  0.33100527  1
  In  In66  1  0.80894170  0.71171859  0.47683991  1
  In  In67  1  0.02849565  0.52687934  0.50403546  1
  In  In68  1  0.00396242  0.18534680  0.49461270  1
  In  In69  1  0.16687039  -0.01320002  0.18632545  1
  In  In70  1  0.86018932  0.35721882  0.48866918  1
  In  In71  1  0.50297878  0.65483286  0.83753783  1
  Te  Te72  1  0.09622861  0.07547452  0.08463194  1
  Te  Te73  1  0.08632003  0.08284212  0.41386857  1
  Te  Te74  1  0.07934454  0.07437792  0.75420319  1
  Te  Te75  1  0.09749469  0.42695737  0.07647495  1
  Te  Te76  1  0.11046435  0.45066466  0.40841670  1
  Te  Te77  1  0.09779207  0.41675393  0.76025979  1
  Te  Te78  1  0.06585421  0.70829049  0.08568760  1
  Te  Te79  1  0.08629069  0.73360718  0.43713599  1
  Te  Te80  1  0.08706041  0.75374635  0.71926511  1
  Te  Te81  1  0.42156548  0.10650551  0.08035973  1
  Te  Te82  1  0.43997826  0.06527776  0.40469111  1
  Te  Te83  1  0.40923486  0.05987295  0.74063988  1
  Te  Te84  1  0.40098731  0.41692859  0.10748000  1
  Te  Te85  1  0.41988732  0.40115217  0.42019750  1
  Te  Te86  1  0.42515428  0.39302906  0.75578565  1
  Te  Te87  1  0.42318014  0.74569414  0.07385814  1
  Te  Te88  1  0.41015884  0.74506500  0.41325924  1
  Te  Te89  1  0.42555516  0.74728736  0.74118643  1
  Te  Te90  1  0.75055037  0.07512240  0.09702268  1
  Te  Te91  1  0.71256121  0.08516134  0.43042299  1
  Te  Te92  1  0.75223345  0.08299299  0.72772286  1
  Te  Te93  1  0.77199809  0.41478816  0.09024019  1
  Te  Te94  1  0.73900035  0.41961422  0.40253501  1
  Te  Te95  1  0.75726282  0.43098721  0.73207301  1
  Te  Te96  1  0.74621363  0.76860944  0.08103111  1
  Te  Te97  1  0.73552486  0.80724974  0.39059358  1
  Te  Te98  1  0.79424887  0.75189201  0.71059566  1
  Te  Te99  1  0.07363052  0.25911577  0.26229363  1
  Te  Te100  1  0.10034099  0.27268632  0.56350303  1
  Te  Te101  1  0.07989536  0.23732879  0.90576794  1
  Te  Te102  1  0.07148609  0.59665468  0.26115759  1
  Te  Te103  1  0.07109373  0.61805318  0.61429159  1
  Te  Te104  1  0.07338002  0.59245509  0.93683043  1
  Te  Te105  1  0.09070667  0.88456396  0.26277789  1
  Te  Te106  1  0.10152043  0.93903749  0.55488947  1
  Te  Te107  1  0.07844506  0.91099297  0.90942576  1
  Te  Te108  1  0.43279776  0.24364293  0.27350911  1
  Te  Te109  1  0.41768541  0.25167519  0.57984716  1
  Te  Te110  1  0.43340883  0.25416405  0.92626675  1
  Te  Te111  1  0.39087674  0.59820291  0.24977343  1
  Te  Te112  1  0.41873004  0.57995619  0.57509227  1
  Te  Te113  1  0.42272092  0.56167311  0.93135549  1
  Te  Te114  1  0.42688906  0.92855896  0.23667384  1
  Te  Te115  1  0.39896657  0.89958597  0.55569781  1
  Te  Te116  1  0.41134475  0.90584402  0.92019120  1
  Te  Te117  1  0.73613615  0.25146825  0.24425499  1
  Te  Te118  1  0.75754077  0.26574897  0.56205651  1
  Te  Te119  1  0.75870696  0.24887013  0.90178660  1
  Te  Te120  1  0.75099703  0.61095373  0.26551304  1
  Te  Te121  1  0.74579701  0.60000858  0.56868974  1
  Te  Te122  1  0.79479501  0.61008571  0.93034978  1
  Te  Te123  1  0.74759914  0.93276795  0.28420762  1
  Te  Te124  1  0.73365803  0.86660240  0.59973272  1
  Te  Te125  1  0.75036934  0.91109266  0.89555703  1
  Te  Te126  1  0.25628277  0.24343167  0.09821198  1
  Te  Te127  1  0.24334591  0.25793222  0.42376254  1
  Te  Te128  1  0.24703521  0.23983651  0.74957298  1
  Te  Te129  1  0.19861618  0.64348228  0.12772335  1
  Te  Te130  1  0.21942029  0.55217658  0.44775800  1
  Te  Te131  1  0.26743219  0.60291823  0.75137843  1
  Te  Te132  1  0.24810832  0.89329118  0.08519446  1
  Te  Te133  1  0.20456069  0.88647237  0.44980465  1
  Te  Te134  1  0.21175028  0.88357284  0.72414829  1
  Te  Te135  1  0.60847735  0.23247969  0.08740047  1
  Te  Te136  1  0.60006100  0.19376067  0.42947145  1
  Te  Te137  1  0.58119913  0.23858032  0.74844021  1
  Te  Te138  1  0.60981936  0.58775364  0.06138682  1
  Te  Te139  1  0.58324228  0.59840216  0.40155091  1
  Te  Te140  1  0.60254651  0.59481385  0.73849767  1
  Te  Te141  1  0.57367064  0.92987584  0.09903729  1
  Te  Te142  1  0.60445351  0.88871008  0.43210218  1
  Te  Te143  1  0.60743491  0.93296677  0.72621480  1
  Te  Te144  1  0.92125197  0.24973337  0.09239874  1
  Te  Te145  1  0.91096233  0.25169947  0.40046815  1
  Te  Te146  1  0.95365194  0.26271923  0.72842185  1
  Te  Te147  1  0.88536996  0.57911512  0.07326894  1
  Te  Te148  1  0.90024629  0.58738031  0.43357354  1
  Te  Te149  1  0.91408828  0.60546196  0.75652560  1
  Te  Te150  1  0.94542728  0.89689770  0.10704625  1
  Te  Te151  1  0.90338020  0.92521987  0.43189013  1
  Te  Te152  1  0.91425054  0.91124222  0.74555093  1
  Te  Te153  1  0.26579050  0.04682479  0.28489737  1
  Te  Te154  1  0.25192202  0.08609354  0.56839413  1
  Te  Te155  1  0.25115152  0.05909064  0.89895671  1
  Te  Te156  1  0.22694948  0.44738493  0.27071525  1
  Te  Te157  1  0.25467010  0.44244432  0.56863405  1
  Te  Te158  1  0.22721363  0.40810501  0.90364877  1
  Te  Te159  1  0.23248969  0.77421118  0.28845548  1
  Te  Te160  1  0.22237655  0.76105507  0.52723062  1
  Te  Te161  1  0.25172586  0.74398601  0.91924194  1
  Te  Te162  1  0.54504874  0.05658506  0.28634725  1
  Te  Te163  1  0.61287106  0.09606947  0.56562369  1
  Te  Te164  1  0.56730246  0.07548326  0.92833466  1
  Te  Te165  1  0.58071755  0.43049851  0.24218491  1
  Te  Te166  1  0.56392230  0.40632107  0.57093732  1
  Te  Te167  1  0.59957469  0.42467633  0.89617560  1
  Te  Te168  1  0.57757589  0.74306103  0.24403654  1
  Te  Te169  1  0.61082881  0.76299778  0.58454292  1
  Te  Te170  1  0.60863037  0.74188940  0.90582653  1
  Te  Te171  1  0.90281629  0.08588615  0.27115553  1
  Te  Te172  1  0.90427870  0.08080391  0.56889383  1
  Te  Te173  1  0.93094920  0.05747292  0.95004201  1
  Te  Te174  1  0.93344870  0.40868731  0.24782383  1
  Te  Te175  1  0.94939330  0.42172400  0.59136546  1
  Te  Te176  1  0.90989265  0.42122807  0.91823703  1
  Te  Te177  1  0.91552744  0.78714341  0.25203914  1
  Te  Te178  1  0.89832042  0.75760938  0.58902899  1
  Te  Te179  1  0.90252867  0.73114895  0.91153328  1
