# generated using pymatgen
data_In2Te3
_symmetry_space_group_name_H-M   'P 1'
_cell_length_a   18.97894485
_cell_length_b   19.08753355
_cell_length_c   19.01965900
_cell_angle_alpha   89.99358645
_cell_angle_beta   89.83402001
_cell_angle_gamma   89.85860004
_symmetry_Int_Tables_number   1
_chemical_formula_structural   In2Te3
_chemical_formula_sum   'In72 Te108'
_cell_volume   6890.03544798
_cell_formula_units_Z   36
loop_
 _symmetry_equiv_pos_site_id
 _symmetry_equiv_pos_as_xyz
  1  'x, y, z'
loop_
 _atom_site_type_symbol
 _atom_site_label
 _atom_site_symmetry_multiplicity
 _atom_site_fract_x
 _atom_site_fract_y
 _atom_site_fract_z
 _atom_site_occupancy
  In  In0  1  0.82494362  0.15474306  -0.01689161  1
  In  In1  1  0.34551447  0.17045942  0.17060248  1
  In  In2  1  0.48575043  0.18357333  -0.02344678  1
  In  In3  1  0.04068690  0.82402654  0.50624696  1
  In  In4  1  0.88196833  0.84403237  0.65108812  1
  In  In5  1  0.23759828  0.44819929  0.66413996  1
  In  In6  1  0.32077711  0.65319902  0.67864495  1
  In  In7  1  0.49192613  0.00656174  0.16698263  1
  In  In8  1  0.81796320  0.18308696  0.31984867  1
  In  In9  1  0.01432714  -0.00387372  -0.02200586  1
  In  In10  1  0.81826103  0.52362193  0.68277133  1
  In  In11  1  0.82470041  0.82519992  -0.03285414  1
  In  In12  1  -0.01936256  0.17207987  0.17002196  1
  In  In13  1  0.04405578  0.16185189  0.80828389  1
  In  In14  1  0.66306410  -0.01494405  0.33665301  1
  In  In15  1  -0.02262998  0.36140869  0.34573068  1
  In  In16  1  0.69228147  0.83736492  0.48452146  1
  In  In17  1  0.02624185  0.33197010  0.65447955  1
  In  In18  1  0.03710104  0.83952934  0.82693688  1
  In  In19  1  0.02250038  0.83967454  0.14512696  1
  In  In20  1  0.87748499  0.84593778  0.30364534  1
  In  In21  1  0.02337641  0.51759429  0.50503387  1
  In  In22  1  0.81394355  0.47303708  -0.01306276  1
  In  In23  1  0.20987085  0.32591565  0.82805791  1
  In  In24  1  0.01121090  0.51611122  0.14680165  1
  In  In25  1  0.19118376  0.65435419  0.20965083  1
  In  In26  1  0.63043487  0.49485822  0.50879180  1
  In  In27  1  0.17434053  0.65116043  0.47938332  1
  In  In28  1  0.65238744  0.66382267  0.67394167  1
  In  In29  1  0.65561668  0.65727963  0.35454101  1
  In  In30  1  0.18201433  0.46513620  0.34131815  1
  In  In31  1  0.34088226  0.80882558  0.84388492  1
  In  In32  1  0.47614382  0.84847971  0.35519767  1
  In  In33  1  0.00920816  0.17122430  0.50315484  1
  In  In34  1  0.47866863  0.51079061  0.05365922  1
  In  In35  1  0.62440587  0.06485012  0.66154258  1
  In  In36  1  0.33165061  0.68452333  0.01627833  1
  In  In37  1  0.40290188  0.29318668  0.76764553  1
  In  In38  1  0.80831560  0.35390234  0.52476853  1
  In  In39  1  0.80326533  0.33584775  0.14850162  1
  In  In40  1  0.67170727  0.84539241  0.81798686  1
  In  In41  1  0.83246203  0.00305064  0.48983980  1
  In  In42  1  0.61422177  0.35031682  0.32157913  1
  In  In43  1  0.63706956  0.32784930  0.66076321  1
  In  In44  1  0.43223785  0.86450258  0.02686845  1
  In  In45  1  0.18225113  0.14096926  -0.01923500  1
  In  In46  1  0.65656263  0.64033870  -0.01329505  1
  In  In47  1  0.19046634  -0.02631938  0.14935726  1
  In  In48  1  0.18195295  0.30247007  0.20374437  1
  In  In49  1  0.51597858  0.14887104  0.40132220  1
  In  In50  1  0.83232149  0.18540617  0.66986963  1
  In  In51  1  0.82948427  0.51953844  0.34462523  1
  In  In52  1  0.50980179  0.83814472  0.64268174  1
  In  In53  1  0.33677948  0.02375971  0.36475450  1
  In  In54  1  0.17133442  0.82954278  0.67313778  1
  In  In55  1  0.66284220  0.17932609  0.83439538  1
  In  In56  1  0.19218500  0.00906249  0.79732490  1
  In  In57  1  0.04373228  0.64682802  0.02002174  1
  In  In58  1  0.33732170  0.84540406  0.48142992  1
  In  In59  1  0.65820605  0.46489114  0.84415960  1
  In  In60  1  0.82003393  0.66007733  0.17487193  1
  In  In61  1  0.85570478  0.03225105  0.15529210  1
  In  In62  1  0.46205131  0.66988089  0.49076513  1
  In  In63  1  0.00666775  0.36584681  -0.01663907  1
  In  In64  1  0.86252912  0.68383749  0.82634227  1
  In  In65  1  0.36454085  0.34118406  0.33175228  1
  In  In66  1  0.18330882  0.16185479  0.36673770  1
  In  In67  1  0.85114457  0.68795789  0.51092623  1
  In  In68  1  0.50407527  0.64119602  0.83698606  1
  In  In69  1  0.18549668  0.48176348  0.00690849  1
  In  In70  1  0.64855748  0.83584061  0.16663577  1
  In  In71  1  0.63902782  0.32574790  0.00008294  1
  Te  Te72  1  0.07491283  0.08956536  0.08324816  1
  Te  Te73  1  0.09439610  0.07071080  0.43756834  1
  Te  Te74  1  0.06565575  0.04463497  0.72267514  1
  Te  Te75  1  0.08940294  0.39213306  0.11259455  1
  Te  Te76  1  0.08922224  0.39717569  0.44027091  1
  Te  Te77  1  0.11055647  0.41110644  0.74934883  1
  Te  Te78  1  0.12722696  0.74330582  0.09667066  1
  Te  Te79  1  0.10503277  0.75160547  0.39010538  1
  Te  Te80  1  0.12221480  0.73255042  0.77310500  1
  Te  Te81  1  0.40707397  0.08127432  0.06817197  1
  Te  Te82  1  0.39674425  0.09822713  0.47645883  1
  Te  Te83  1  0.38088104  0.14616278  0.71930202  1
  Te  Te84  1  0.42557757  0.38944653  0.12052098  1
  Te  Te85  1  0.38641736  0.44976722  0.43071169  1
  Te  Te86  1  0.37554835  0.44086981  0.73438730  1
  Te  Te87  1  0.38244034  0.76877138  0.12733329  1
  Te  Te88  1  0.38302818  0.73152470  0.37848622  1
  Te  Te89  1  0.44246615  0.73601474  0.73241416  1
  Te  Te90  1  0.74409613  0.09671659  0.08872121  1
  Te  Te91  1  0.73834416  0.09272950  0.41369202  1
  Te  Te92  1  0.74756341  0.08679737  0.74623741  1
  Te  Te93  1  0.70838094  0.43520562  0.08620267  1
  Te  Te94  1  0.73506151  0.41764375  0.40813669  1
  Te  Te95  1  0.74768998  0.40335443  0.73723808  1
  Te  Te96  1  0.74655288  0.75225744  0.07745410  1
  Te  Te97  1  0.77624380  0.75389674  0.38804213  1
  Te  Te98  1  0.76032369  0.75218522  0.72863996  1
  Te  Te99  1  0.05933615  0.24776180  0.27751696  1
  Te  Te100  1  0.11501728  0.23582844  0.58515134  1
  Te  Te101  1  0.09485474  0.25857803  0.92022212  1
  Te  Te102  1  0.08483330  0.56083096  0.26837651  1
  Te  Te103  1  0.13712824  0.55722654  0.59209945  1
  Te  Te104  1  0.08806595  0.54973755  0.92172563  1
  Te  Te105  1  0.08216503  0.93342748  0.23851321  1
  Te  Te106  1  0.08201225  0.92623157  0.60438129  1
  Te  Te107  1  0.12483305  0.91826286  0.91857224  1
  Te  Te108  1  0.42758263  0.21189397  0.28719818  1
  Te  Te109  1  0.36631707  0.26429707  0.62274689  1
  Te  Te110  1  0.37403945  0.26080888  0.91428808  1
  Te  Te111  1  0.45875720  0.56628729  0.19597441  1
  Te  Te112  1  0.41602817  0.57951509  0.59454184  1
  Te  Te113  1  0.40829113  0.58183708  0.93353592  1
  Te  Te114  1  0.39703075  0.93336328  0.25933207  1
  Te  Te115  1  0.40902292  0.92477007  0.58286833  1
  Te  Te116  1  0.43121008  0.91262383  0.88963356  1
  Te  Te117  1  0.71351602  0.26003938  0.24313240  1
  Te  Te118  1  0.72640808  0.23891953  0.57551424  1
  Te  Te119  1  0.75454354  0.26797327  0.91439808  1
  Te  Te120  1  0.72193863  0.57169798  0.24840995  1
  Te  Te121  1  0.74955039  0.58438164  0.56104542  1
  Te  Te122  1  0.75262493  0.58560744  0.88535745  1
  Te  Te123  1  0.76118871  0.92141684  0.23810855  1
  Te  Te124  1  0.75986349  0.91732949  0.59203409  1
  Te  Te125  1  0.74339180  0.93134355  0.91201570  1
  Te  Te126  1  0.24439045  0.23881792  0.08241893  1
  Te  Te127  1  0.26618992  0.26761360  0.42288197  1
  Te  Te128  1  0.21812807  0.22425597  0.71544349  1
  Te  Te129  1  0.25825913  0.57600487  0.09755613  1
  Te  Te130  1  0.27264682  0.55969082  0.41241050  1
  Te  Te131  1  0.27380799  0.54884764  0.77445401  1
  Te  Te132  1  0.28581078  0.89627101  0.07099576  1
  Te  Te133  1  0.23664778  0.93993014  0.43134483  1
  Te  Te134  1  0.28739596  0.90032306  0.73572420  1
  Te  Te135  1  0.55872524  0.24359206  0.08886737  1
  Te  Te136  1  0.55185473  0.28999899  0.43999632  1
  Te  Te137  1  0.55709772  0.26372119  0.76843661  1
  Te  Te138  1  0.56265392  0.63216087  0.09974068  1
  Te  Te139  1  0.54817481  0.56689252  0.40552872  1
  Te  Te140  1  0.58181185  0.55105904  0.74116746  1
  Te  Te141  1  0.57355762  0.92073625  0.07213891  1
  Te  Te142  1  0.57465435  0.92386238  0.44247946  1
  Te  Te143  1  0.58337024  0.93662737  0.73034505  1
  Te  Te144  1  0.91345939  0.26543635  0.07067786  1
  Te  Te145  1  0.89530993  0.26265229  0.43039899  1
  Te  Te146  1  0.93692888  0.25670745  0.75107202  1
  Te  Te147  1  0.89445339  0.57705655  0.06875560  1
  Te  Te148  1  0.93411522  0.60222105  0.41482680  1
  Te  Te149  1  0.93438969  0.58895045  0.74124011  1
  Te  Te150  1  0.91067028  0.92135635  0.06706915  1
  Te  Te151  1  0.93075689  0.90357553  0.43119031  1
  Te  Te152  1  0.91585227  0.90523493  0.77785898  1
  Te  Te153  1  0.23785880  0.08744909  0.24604523  1
  Te  Te154  1  0.24971638  0.08054814  0.67224037  1
  Te  Te155  1  0.27958302  0.08412856  0.89017474  1
  Te  Te156  1  0.27886633  0.41459792  0.22925377  1
  Te  Te157  1  0.29729316  0.38204664  0.53994283  1
  Te  Te158  1  0.28350532  0.39415474  0.93969110  1
  Te  Te159  1  0.22116941  0.77022034  0.29131559  1
  Te  Te160  1  0.25509708  0.74563437  0.56957597  1
  Te  Te161  1  0.24010310  0.72317828  0.90527519  1
  Te  Te162  1  0.57664414  0.08208651  0.26468931  1
  Te  Te163  1  0.54727604  0.12090758  0.55126730  1
  Te  Te164  1  0.57482607  0.09000167  0.90726293  1
  Te  Te165  1  0.52566284  0.42818600  0.22832372  1
  Te  Te166  1  0.54114993  0.39836584  0.57321873  1
  Te  Te167  1  0.54673491  0.42270581  0.93165392  1
  Te  Te168  1  0.57869250  0.76365960  0.27725739  1
  Te  Te169  1  0.59546091  0.73546709  0.55279437  1
  Te  Te170  1  0.59004496  0.74699488  0.90333395  1
  Te  Te171  1  0.92297087  0.08094309  0.28063689  1
  Te  Te172  1  0.91256206  0.08804643  0.58570083  1
  Te  Te173  1  0.93384586  0.09500300  0.89795755  1
  Te  Te174  1  0.89533452  0.42654185  0.23568646  1
  Te  Te175  1  0.92160468  0.43187667  0.58589966  1
  Te  Te176  1  0.91517894  0.43009394  0.89115083  1
  Te  Te177  1  0.94146060  0.73423441  0.22554077  1
  Te  Te178  1  0.96638920  0.72972680  0.59964286  1
  Te  Te179  1  0.95021674  0.74326019  0.93673864  1
