# generated using pymatgen
data_In2Te3
_symmetry_space_group_name_H-M   'P 1'
_cell_length_a   18.94316368
_cell_length_b   18.95019022
_cell_length_c   18.93454592
_cell_angle_alpha   89.97208353
_cell_angle_beta   89.88906893
_cell_angle_gamma   89.85268129
_symmetry_Int_Tables_number   1
_chemical_formula_structural   In2Te3
_chemical_formula_sum   'In72 Te108'
_cell_volume   6797.02206885
_cell_formula_units_Z   36
loop_
 _symmetry_equiv_pos_site_id
 _symmetry_equiv_pos_as_xyz
  1  'x, y, z'
loop_
 _atom_site_type_symbol
 _atom_site_label
 _atom_site_symmetry_multiplicity
 _atom_site_fract_x
 _atom_site_fract_y
 _atom_site_fract_z
 _atom_site_occupancy
  In  In0  1  0.52128752  0.18101172  0.67153166  1
  In  In1  1  0.00658198  0.32520551  0.00778503  1
  In  In2  1  0.85708492  0.83481365  0.67249562  1
  In  In3  1  0.16788211  0.51188188  0.32218073  1
  In  In4  1  0.16758319  0.34274463  0.16640886  1
  In  In5  1  0.51924240  0.31499810  0.17598399  1
  In  In6  1  0.31528692  0.35322692  0.00256904  1
  In  In7  1  0.65894269  -0.02186668  0.32645510  1
  In  In8  1  0.52712250  0.63805726  0.80568036  1
  In  In9  1  0.14881079  0.81914085  0.69139794  1
  In  In10  1  0.15273131  0.49783223  -0.05701898  1
  In  In11  1  0.67864369  0.82655169  0.51023886  1
  In  In12  1  0.50845483  0.01829259  0.51760564  1
  In  In13  1  -0.02159059  0.66516869  -0.02056724  1
  In  In14  1  0.51397418  0.83079132  0.67950219  1
  In  In15  1  0.15680146  0.14934911  0.68867186  1
  In  In16  1  0.66843445  0.33825884  0.66567801  1
  In  In17  1  0.16663312  0.87637416  0.38018456  1
  In  In18  1  0.82868542  0.32736867  0.17530007  1
  In  In19  1  -0.01059498  0.19064667  0.17993391  1
  In  In20  1  0.66978902  0.49536970  0.17441200  1
  In  In21  1  0.00290404  0.82191474  0.51173409  1
  In  In22  1  0.38641167  0.47863791  0.48704352  1
  In  In23  1  0.49343025  0.66039212  0.50335059  1
  In  In24  1  0.66154371  0.50174090  0.51211113  1
  In  In25  1  0.65018985  0.83155607  0.84577558  1
  In  In26  1  0.19166299  0.66936567  0.51944010  1
  In  In27  1  -0.01853348  0.51266136  0.79638608  1
  In  In28  1  0.16116419  0.17482091  -0.00901929  1
  In  In29  1  0.50383069  0.67428451  0.18738030  1
  In  In30  1  0.34246245  0.34697831  0.66187859  1
  In  In31  1  0.49006698  -0.02061821  0.16826051  1
  In  In32  1  0.67949980  0.02439525  -0.01720999  1
  In  In33  1  0.65799638  0.17873727  0.49507028  1
  In  In34  1  0.81853825  0.66411830  0.81933602  1
  In  In35  1  0.84258744  0.83378329  -0.00193112  1
  In  In36  1  0.15873675  0.00507457  0.15677265  1
  In  In37  1  -0.01417891  -0.01622853  -0.02991444  1
  In  In38  1  0.50634790  0.19612209  0.34671018  1
  In  In39  1  0.47569830  0.84218184  -0.02390877  1
  In  In40  1  0.34204199  -0.00595706  -0.02207118  1
  In  In41  1  0.16354081  0.31284294  0.51736527  1
  In  In42  1  0.50765635  0.34482921  0.81961418  1
  In  In43  1  0.15209669  0.66158700  0.13535412  1
  In  In44  1  0.19125945  0.53787060  0.68856467  1
  In  In45  1  0.31554594  -0.00423185  0.66720582  1
  In  In46  1  0.67838155  0.16754373  0.16455830  1
  In  In47  1  -0.02855787  0.34740793  0.68329870  1
  In  In48  1  0.82497668  0.49040547  0.34216904  1
  In  In49  1  0.00289262  -0.00834925  0.33096225  1
  In  In50  1  0.82645835  0.16700221  0.34132330  1
  In  In51  1  0.35239315  0.67268163  -0.02240461  1
  In  In52  1  0.79510938  0.32329668  0.86480839  1
  In  In53  1  0.85069907  0.01642093  0.53367720  1
  In  In54  1  0.34285630  0.17260100  0.83726575  1
  In  In55  1  0.51536747  0.48992881  0.00074829  1
  In  In56  1  0.32891269  0.52816965  0.16993316  1
  In  In57  1  0.19225090  0.11311966  0.35756961  1
  In  In58  1  0.83198782  0.51183730  -0.02296591  1
  In  In59  1  0.16020149  0.80829355  -0.03608508  1
  In  In60  1  0.81417933  0.81960293  0.34051826  1
  In  In61  1  0.34191880  0.67676680  0.34312200  1
  In  In62  1  0.82933694  0.02686695  0.78983140  1
  In  In63  1  -0.02157567  0.32496780  0.35482544  1
  In  In64  1  0.32768583  0.16115231  0.51993269  1
  In  In65  1  -0.01401613  0.66722224  0.34057731  1
  In  In66  1  -0.00411304  0.16870123  0.83044822  1
  In  In67  1  0.01528693  0.49507538  0.53054498  1
  In  In68  1  0.31718008  0.85188910  0.18432620  1
  In  In69  1  0.52076361  0.15013721  -0.00315916  1
  In  In70  1  0.83377952  0.66817453  0.16448969  1
  In  In71  1  0.66179564  0.81681873  0.15715668  1
  Te  Te72  1  0.06468956  0.09742250  0.07930250  1
  Te  Te73  1  0.06047359  0.09296711  0.42002600  1
  Te  Te74  1  0.06613174  0.05720085  0.76056862  1
  Te  Te75  1  0.09166911  0.43248270  0.07157319  1
  Te  Te76  1  0.09068073  0.41693462  0.41570425  1
  Te  Te77  1  0.08961000  0.42732782  0.73444768  1
  Te  Te78  1  0.05984697  0.75982544  0.06834914  1
  Te  Te79  1  0.10344370  0.74051432  0.40782045  1
  Te  Te80  1  0.06194247  0.72220075  0.75980242  1
  Te  Te81  1  0.41487781  0.07844738  0.08047725  1
  Te  Te82  1  0.42234735  0.09265755  0.41873247  1
  Te  Te83  1  0.41650894  0.09025330  0.73502659  1
  Te  Te84  1  0.41856218  0.42036165  0.09787258  1
  Te  Te85  1  0.45486954  0.38509514  0.39933394  1
  Te  Te86  1  0.43115291  0.43982516  0.73486242  1
  Te  Te87  1  0.40928322  0.75416240  0.09309615  1
  Te  Te88  1  0.39445236  0.75912274  0.45055994  1
  Te  Te89  1  0.42579607  0.72551889  0.74103185  1
  Te  Te90  1  0.76006349  0.06662284  0.09669904  1
  Te  Te91  1  0.74362281  0.06482409  0.41999994  1
  Te  Te92  1  0.72487503  0.12332814  0.76075532  1
  Te  Te93  1  0.75864734  0.41992144  0.07839989  1
  Te  Te94  1  0.76405756  0.41000066  0.44924766  1
  Te  Te95  1  0.75057354  0.41905789  0.76034936  1
  Te  Te96  1  0.74618713  0.73473584  0.06016546  1
  Te  Te97  1  0.75364443  0.72536641  0.43358350  1
  Te  Te98  1  0.73655238  0.76537026  0.74080669  1
  Te  Te99  1  0.09092691  0.25841491  0.26683110  1
  Te  Te100  1  0.06650833  0.24523465  0.61061050  1
  Te  Te101  1  0.09172308  0.26879306  0.89530845  1
  Te  Te102  1  0.06743481  0.58598454  0.23763294  1
  Te  Te103  1  0.08244720  0.60894322  0.60601111  1
  Te  Te104  1  0.07905113  0.61423869  0.87083544  1
  Te  Te105  1  0.09457986  0.90175257  0.24819396  1
  Te  Te106  1  0.09401852  0.90890623  0.58310509  1
  Te  Te107  1  0.09168482  0.91779932  0.89427710  1
  Te  Te108  1  0.41493554  0.23649114  0.23990424  1
  Te  Te109  1  0.42993362  0.25649276  0.57745970  1
  Te  Te110  1  0.42485112  0.25897247  0.93121250  1
  Te  Te111  1  0.42962016  0.57339843  0.27291532  1
  Te  Te112  1  0.41094344  0.57498681  0.59314001  1
  Te  Te113  1  0.42742945  0.56499350  0.90321920  1
  Te  Te114  1  0.42714403  0.89464802  0.27056984  1
  Te  Te115  1  0.42157266  0.91874400  0.59059130  1
  Te  Te116  1  0.38714638  0.89961066  0.87208656  1
  Te  Te117  1  0.73159515  0.26303083  0.27192445  1
  Te  Te118  1  0.75127958  0.25298790  0.57903569  1
  Te  Te119  1  0.71431353  0.22674029  0.93956658  1
  Te  Te120  1  0.74558434  0.59371890  0.26254856  1
  Te  Te121  1  0.73623156  0.56521758  0.62838672  1
  Te  Te122  1  0.72946871  0.58995562  0.90925656  1
  Te  Te123  1  0.75595698  0.91040457  0.23221516  1
  Te  Te124  1  0.75324164  0.92346158  0.60104536  1
  Te  Te125  1  0.76492100  0.92142120  0.89791171  1
  Te  Te126  1  0.25358459  0.24362689  0.08864243  1
  Te  Te127  1  0.25562045  0.24754323  0.41863586  1
  Te  Te128  1  0.25459904  0.25201151  0.74303658  1
  Te  Te129  1  0.24691782  0.57573739  0.04819339  1
  Te  Te130  1  0.26213951  0.56712122  0.42714549  1
  Te  Te131  1  0.28269109  0.62795492  0.75979078  1
  Te  Te132  1  0.24328228  0.90595104  0.06115209  1
  Te  Te133  1  0.26107025  0.98407305  0.40136506  1
  Te  Te134  1  0.25510451  0.90140666  0.76331539  1
  Te  Te135  1  0.61415111  0.25743433  0.05689109  1
  Te  Te136  1  0.57398505  0.29172777  0.43996438  1
  Te  Te137  1  0.61024134  0.22684751  0.78673856  1
  Te  Te138  1  0.58597178  0.59084121  0.09100119  1
  Te  Te139  1  0.58725651  0.58593140  0.41741118  1
  Te  Te140  1  0.62721987  0.54757206  0.72801088  1
  Te  Te141  1  0.58297840  0.91415024  0.06612688  1
  Te  Te142  1  0.57688369  0.91016499  0.43313533  1
  Te  Te143  1  0.57672967  0.93324952  0.76710753  1
  Te  Te144  1  0.89690457  0.24158236  0.06958167  1
  Te  Te145  1  0.92513447  0.21602754  0.44494505  1
  Te  Te146  1  0.88697070  0.25128886  0.76440267  1
  Te  Te147  1  0.92045894  0.57229492  0.08489171  1
  Te  Te148  1  0.91983708  0.57061979  0.43287870  1
  Te  Te149  1  0.88097696  0.58025094  0.71087325  1
  Te  Te150  1  0.92608342  0.91606479  0.08517354  1
  Te  Te151  1  0.90524031  0.91529939  0.42435737  1
  Te  Te152  1  0.93787864  0.94735154  0.72753580  1
  Te  Te153  1  0.26394346  0.06803841  0.23608909  1
  Te  Te154  1  0.21915952  0.07016105  0.57607578  1
  Te  Te155  1  0.24072748  0.08097816  0.90276777  1
  Te  Te156  1  0.26598933  0.41758699  0.25483821  1
  Te  Te157  1  0.23871273  0.42607260  0.58474000  1
  Te  Te158  1  0.25936747  0.41742281  0.88420208  1
  Te  Te159  1  0.24483111  0.72889854  0.23669658  1
  Te  Te160  1  0.25470636  0.77796337  0.59219636  1
  Te  Te161  1  0.25406566  0.72648133  0.87779109  1
  Te  Te162  1  0.57934647  0.08365009  0.24993065  1
  Te  Te163  1  0.61406344  0.08001965  0.60471846  1
  Te  Te164  1  0.55987498  0.04596525  0.89863373  1
  Te  Te165  1  0.58354148  0.41429833  0.26246861  1
  Te  Te166  1  0.56826044  0.43809554  0.61534555  1
  Te  Te167  1  0.60041667  0.41367984  0.90943391  1
  Te  Te168  1  0.57748465  0.77139274  0.26908613  1
  Te  Te169  1  0.59373178  0.73339508  0.59447766  1
  Te  Te170  1  0.56578036  0.73294600  0.92324084  1
  Te  Te171  1  0.90966385  0.08137868  0.24758814  1
  Te  Te172  1  0.93462975  0.12686145  0.57507705  1
  Te  Te173  1  0.89644189  0.09171473  0.91423551  1
  Te  Te174  1  0.92521083  0.41808046  0.24784088  1
  Te  Te175  1  0.90372943  0.40476632  0.56495074  1
  Te  Te176  1  0.93138203  0.41952706  0.90840683  1
  Te  Te177  1  0.92028867  0.76334885  0.24421130  1
  Te  Te178  1  0.90532446  0.73528440  0.57511304  1
  Te  Te179  1  0.91653591  0.76449797  0.88395051  1
