# generated using pymatgen
data_In2Te3
_symmetry_space_group_name_H-M   'P 1'
_cell_length_a   18.76032729
_cell_length_b   18.75960281
_cell_length_c   18.76742169
_cell_angle_alpha   90.11517378
_cell_angle_beta   90.04872877
_cell_angle_gamma   90.00434559
_symmetry_Int_Tables_number   1
_chemical_formula_structural   In2Te3
_chemical_formula_sum   'In72 Te108'
_cell_volume   6604.92098323
_cell_formula_units_Z   36
loop_
 _symmetry_equiv_pos_site_id
 _symmetry_equiv_pos_as_xyz
  1  'x, y, z'
loop_
 _atom_site_type_symbol
 _atom_site_label
 _atom_site_symmetry_multiplicity
 _atom_site_fract_x
 _atom_site_fract_y
 _atom_site_fract_z
 _atom_site_occupancy
  In  In0  1  0.65952417  0.67708868  0.32958269  1
  In  In1  1  0.84765995  0.50349991  0.01882937  1
  In  In2  1  0.16161697  0.15745487  0.31310666  1
  In  In3  1  0.32507653  0.15384435  0.50209377  1
  In  In4  1  0.32697024  0.48028629  0.83068201  1
  In  In5  1  0.50879298  0.33504973  0.48066166  1
  In  In6  1  0.50758093  0.84034596  -0.00648086  1
  In  In7  1  0.32234517  0.11500202  0.83735179  1
  In  In8  1  0.68473129  0.16500649  0.82375111  1
  In  In9  1  0.31667926  0.33426439  0.00363669  1
  In  In10  1  0.64550598  0.51680085  0.82996378  1
  In  In11  1  0.47342489  0.50494005  0.32985499  1
  In  In12  1  0.84126232  0.51520229  0.65609417  1
  In  In13  1  0.47342147  0.81556121  0.35002196  1
  In  In14  1  0.62261766  0.12683414  0.51730181  1
  In  In15  1  -0.00135318  0.33310021  0.31822668  1
  In  In16  1  0.15678507  0.67000999  0.17341241  1
  In  In17  1  0.48244699  0.53642348  0.65574951  1
  In  In18  1  0.51265302  0.66404645  0.81997404  1
  In  In19  1  0.84896793  0.33222489  0.84635882  1
  In  In20  1  0.00294611  -0.02479027  0.65853749  1
  In  In21  1  0.48018546  0.15142313  0.00760997  1
  In  In22  1  0.17759149  -0.01770159  0.49993663  1
  In  In23  1  0.16904841  0.83356837  0.34828437  1
  In  In24  1  0.33488484  0.15764526  0.16151073  1
  In  In25  1  0.83817874  0.82110669  -0.00834641  1
  In  In26  1  0.49232122  0.66398904  0.19777178  1
  In  In27  1  0.17046666  0.49102917  0.67644906  1
  In  In28  1  0.49662867  -0.02560970  0.81836092  1
  In  In29  1  -0.00119405  0.82863101  0.15357861  1
  In  In30  1  0.85743729  0.50018668  0.34629428  1
  In  In31  1  0.17382152  0.35900313  0.48597139  1
  In  In32  1  0.19766883  0.67463369  0.48729183  1
  In  In33  1  0.02318664  0.17748406  0.15145414  1
  In  In34  1  0.81908637  -0.03371018  0.50628278  1
  In  In35  1  0.85108791  0.65969790  0.15205728  1
  In  In36  1  0.66510349  0.48830856  0.15415436  1
  In  In37  1  0.17586205  0.01194824  0.14787869  1
  In  In38  1  0.00834703  0.33786615  0.01588985  1
  In  In39  1  0.01735159  0.17653162  0.52402313  1
  In  In40  1  0.00698351  0.51456989  0.50507978  1
  In  In41  1  0.82872343  0.16432680  0.69051725  1
  In  In42  1  0.66472880  0.16846915  0.17570065  1
  In  In43  1  0.32904996  0.84005086  0.16930198  1
  In  In44  1  0.84494065  -0.00607876  0.16194051  1
  In  In45  1  0.68321354  0.52165601  0.50453219  1
  In  In46  1  0.82194008  0.35545809  0.50443453  1
  In  In47  1  0.48769425  0.46823379  -0.00382926  1
  In  In48  1  0.83147438  0.70278480  0.81246334  1
  In  In49  1  0.48940897  0.32414477  0.16246000  1
  In  In50  1  0.30589990  0.66078816  0.01196237  1
  In  In51  1  0.66697972  -0.00542556  0.00515838  1
  In  In52  1  0.16270260  0.34097903  0.83080204  1
  In  In53  1  -0.02135356  -0.03114925  0.35228680  1
  In  In54  1  0.14765816  0.15329764  0.67097351  1
  In  In55  1  0.30073805  0.86627843  0.83125812  1
  In  In56  1  -0.00468178  0.70258713  0.66814300  1
  In  In57  1  0.66670483  0.32802016  0.66701427  1
  In  In58  1  0.84122803  0.00228826  0.81436126  1
  In  In59  1  0.49396445  0.84496369  0.64748903  1
  In  In60  1  0.48712290  0.16532462  0.34755003  1
  In  In61  1  0.00517507  0.15717399  0.83681347  1
  In  In62  1  0.33588442  0.68717665  0.64971424  1
  In  In63  1  0.32247036  0.32402113  0.64332060  1
  In  In64  1  0.64797434  0.01468904  0.32740936  1
  In  In65  1  0.12776707  0.65493076  0.84011007  1
  In  In66  1  0.82470433  0.17225851  0.31906872  1
  In  In67  1  0.52095130  0.32522008  0.83668676  1
  In  In68  1  0.67845474  0.66829415  0.01086223  1
  In  In69  1  0.66118084  0.83075958  0.51614868  1
  In  In70  1  0.85209335  0.84942388  0.34216094  1
  In  In71  1  0.00740656  0.51057962  0.16498370  1
  Te  Te72  1  0.07615475  0.07512375  0.05324979  1
  Te  Te73  1  0.08230441  0.08054746  0.42197194  1
  Te  Te74  1  0.09450502  0.04718761  0.77043294  1
  Te  Te75  1  0.10336615  0.41829424  0.09986670  1
  Te  Te76  1  0.08182590  0.43830282  0.39390785  1
  Te  Te77  1  0.06758872  0.43030726  0.76140667  1
  Te  Te78  1  0.09615075  0.75807094  0.06750345  1
  Te  Te79  1  0.08304767  0.72834212  0.40776517  1
  Te  Te80  1  0.09527433  0.77127427  0.75493005  1
  Te  Te81  1  0.40118594  0.05120910  0.08027086  1
  Te  Te82  1  0.41858631  0.06074507  0.42975651  1
  Te  Te83  1  0.42533562  0.07787932  0.73791878  1
  Te  Te84  1  0.39025458  0.42612889  0.10378214  1
  Te  Te85  1  0.39483624  0.40450054  0.41258721  1
  Te  Te86  1  0.43242933  0.41373708  0.74050184  1
  Te  Te87  1  0.41972459  0.74173657  0.07749623  1
  Te  Te88  1  0.41742125  0.72325936  0.45111906  1
  Te  Te89  1  0.40766554  0.76183342  0.76402880  1
  Te  Te90  1  0.75868405  0.09112143  0.08181046  1
  Te  Te91  1  0.75499568  0.07893521  0.41940728  1
  Te  Te92  1  0.72554203  0.05818560  0.72259382  1
  Te  Te93  1  0.75525146  0.40275927  0.07455558  1
  Te  Te94  1  0.73534369  0.42224625  0.39980970  1
  Te  Te95  1  0.75297643  0.42135990  0.75184685  1
  Te  Te96  1  0.75005377  0.76561008  0.10387255  1
  Te  Te97  1  0.75368076  0.75559398  0.41793533  1
  Te  Te98  1  0.73103144  0.78152158  0.73791870  1
  Te  Te99  1  0.11242119  0.27677494  0.23278054  1
  Te  Te100  1  0.10137351  0.27968352  0.59820410  1
  Te  Te101  1  0.09482935  0.24386130  0.92551885  1
  Te  Te102  1  0.06629448  0.59827437  0.26980677  1
  Te  Te103  1  0.09901845  0.60057969  0.59352647  1
  Te  Te104  1  0.06467162  0.57158640  0.94116149  1
  Te  Te105  1  0.08461188  0.92437416  0.24675648  1
  Te  Te106  1  0.10521036  0.88718150  0.59073127  1
  Te  Te107  1  0.13850141  0.95270871  0.95318694  1
  Te  Te108  1  0.39767753  0.25527777  0.26251805  1
  Te  Te109  1  0.42985103  0.24112213  0.57573006  1
  Te  Te110  1  0.40773106  0.25134891  0.90919691  1
  Te  Te111  1  0.37405500  0.58664115  0.24967149  1
  Te  Te112  1  0.39999541  0.59579410  0.54478082  1
  Te  Te113  1  0.41990499  0.57858359  0.91309540  1
  Te  Te114  1  0.42403251  0.91630440  0.25286252  1
  Te  Te115  1  0.42641607  0.94434248  0.55814716  1
  Te  Te116  1  0.40044078  0.92925946  0.93002946  1
  Te  Te117  1  0.74418899  0.27138751  0.24749876  1
  Te  Te118  1  0.75027330  0.23850504  0.57498896  1
  Te  Te119  1  0.76180684  0.24210348  0.92291627  1
  Te  Te120  1  0.74999154  0.58283788  0.24467891  1
  Te  Te121  1  0.76688626  0.61853027  0.57982673  1
  Te  Te122  1  0.76074886  0.58607969  0.91136065  1
  Te  Te123  1  0.74874258  0.92228059  0.25425721  1
  Te  Te124  1  0.76452549  0.88050786  0.61961908  1
  Te  Te125  1  0.75121577  0.91432444  0.90811251  1
  Te  Te126  1  0.23827003  0.23576185  0.08056177  1
  Te  Te127  1  0.24389814  0.24568635  0.41043677  1
  Te  Te128  1  0.25758679  0.24194095  0.75589404  1
  Te  Te129  1  0.23063442  0.56519420  0.09353797  1
  Te  Te130  1  0.24433405  0.57063721  0.38363165  1
  Te  Te131  1  0.25966027  0.59285831  0.75217504  1
  Te  Te132  1  0.22360880  0.88843261  0.06988987  1
  Te  Te133  1  0.27683957  0.90993707  0.41688307  1
  Te  Te134  1  0.22806741  0.96083308  0.74502956  1
  Te  Te135  1  0.58240449  0.24696474  0.06961797  1
  Te  Te136  1  0.60494592  0.23882957  0.41119067  1
  Te  Te137  1  0.57412440  0.22728915  0.73267903  1
  Te  Te138  1  0.56808423  0.58363801  0.07689753  1
  Te  Te139  1  0.57529119  0.58530978  0.41639932  1
  Te  Te140  1  0.60724141  0.60676828  0.71355647  1
  Te  Te141  1  0.58059665  0.91813115  0.09611485  1
  Te  Te142  1  0.57918334  0.91197291  0.41510592  1
  Te  Te143  1  0.59615705  0.88176372  0.75327480  1
  Te  Te144  1  0.91277341  0.25186339  0.08913600  1
  Te  Te145  1  0.92150439  0.25337864  0.42471298  1
  Te  Te146  1  0.93552196  0.25852058  0.74292585  1
  Te  Te147  1  0.95654061  0.61395826  0.04786865  1
  Te  Te148  1  0.90489455  0.60261431  0.44130528  1
  Te  Te149  1  0.92579917  0.59505611  0.75398444  1
  Te  Te150  1  0.93137252  0.92661858  0.05688192  1
  Te  Te151  1  0.94463674  0.87173432  0.47125996  1
  Te  Te152  1  0.93642988  0.89656296  0.76711937  1
  Te  Te153  1  0.26658552  0.06101009  0.26255140  1
  Te  Te154  1  0.25527505  0.06524430  0.60697451  1
  Te  Te155  1  0.23580478  0.06892091  0.94689542  1
  Te  Te156  1  0.28281720  0.45343091  0.30268402  1
  Te  Te157  1  0.27029978  0.44600439  0.56938774  1
  Te  Te158  1  0.22587063  0.43825690  0.93309621  1
  Te  Te159  1  0.26081013  0.74308364  0.26355588  1
  Te  Te160  1  0.24747432  0.78485409  0.57935124  1
  Te  Te161  1  0.23982237  0.74431927  0.90499694  1
  Te  Te162  1  0.55117377  0.08451926  0.23261733  1
  Te  Te163  1  0.54448412  0.02842842  0.60091996  1
  Te  Te164  1  0.57806180  0.08219063  0.90757317  1
  Te  Te165  1  0.57303696  0.41528796  0.25270361  1
  Te  Te166  1  0.58203967  0.42498709  0.58310149  1
  Te  Te167  1  0.61126389  0.40590082  0.93039049  1
  Te  Te168  1  0.58452678  0.77458765  0.24186070  1
  Te  Te169  1  0.54978778  0.73741289  0.55736505  1
  Te  Te170  1  0.60103870  0.75245879  0.90967850  1
  Te  Te171  1  0.93565038  0.08789877  0.25311938  1
  Te  Te172  1  0.91512318  0.07848295  0.58385879  1
  Te  Te173  1  0.90186542  0.08963049  0.91776112  1
  Te  Te174  1  0.90513341  0.41456296  0.22946020  1
  Te  Te175  1  0.93313267  0.41028977  0.59129526  1
  Te  Te176  1  0.93951127  0.43394391  0.91518269  1
  Te  Te177  1  0.92575016  0.74325678  0.25709940  1
  Te  Te178  1  0.90188139  0.75562321  0.56793547  1
  Te  Te179  1  0.93817499  0.76609959  0.89592733  1
