# generated using pymatgen
data_In2Te3
_symmetry_space_group_name_H-M   'P 1'
_cell_length_a   18.96140257
_cell_length_b   18.96321434
_cell_length_c   18.96217215
_cell_angle_alpha   89.84134256
_cell_angle_beta   89.96725954
_cell_angle_gamma   89.87220789
_symmetry_Int_Tables_number   1
_chemical_formula_structural   In2Te3
_chemical_formula_sum   'In72 Te108'
_cell_volume   6818.16776433
_cell_formula_units_Z   36
loop_
 _symmetry_equiv_pos_site_id
 _symmetry_equiv_pos_as_xyz
  1  'x, y, z'
loop_
 _atom_site_type_symbol
 _atom_site_label
 _atom_site_symmetry_multiplicity
 _atom_site_fract_x
 _atom_site_fract_y
 _atom_site_fract_z
 _atom_site_occupancy
  In  In0  1  0.68007566  0.17542473  0.82826537  1
  In  In1  1  0.48415257  0.85212391  0.65739164  1
  In  In2  1  0.49636995  0.00196899  0.17784195  1
  In  In3  1  0.47620923  0.30931819  0.82113700  1
  In  In4  1  0.33052432  0.30988121  0.66856846  1
  In  In5  1  0.00918902  0.51096312  0.48361050  1
  In  In6  1  0.82540834  0.16109974  0.65017906  1
  In  In7  1  0.00696562  0.17826916  0.50322601  1
  In  In8  1  0.50544114  0.49099178  -0.00031172  1
  In  In9  1  0.82600095  0.69810495  0.49331711  1
  In  In10  1  0.50665138  0.35198891  0.50337731  1
  In  In11  1  0.03669925  0.31292246  0.31103292  1
  In  In12  1  0.50505390  0.14436497  0.66798482  1
  In  In13  1  0.64211505  0.81296755  0.16839445  1
  In  In14  1  0.68015431  0.35392623  0.01059616  1
  In  In15  1  0.67520584  0.51662640  0.15115021  1
  In  In16  1  0.16350845  0.00953713  0.50660144  1
  In  In17  1  0.82678216  0.52038819  0.68516726  1
  In  In18  1  0.67774339  0.15657304  0.18168163  1
  In  In19  1  0.65405595  -0.00274469  -0.03813725  1
  In  In20  1  0.16663119  0.49703305  0.65723202  1
  In  In21  1  0.01164758  0.33169695  0.01472100  1
  In  In22  1  0.47652851  0.33765923  0.17528740  1
  In  In23  1  0.32210899  0.15477785  0.16651319  1
  In  In24  1  0.49182407  -0.01888470  0.81794506  1
  In  In25  1  0.67451107  -0.00067165  0.35753505  1
  In  In26  1  -0.02159358  0.00090831  0.31852139  1
  In  In27  1  0.48617578  0.69138280  0.82252133  1
  In  In28  1  0.47183726  0.82167971  -0.00299484  1
  In  In29  1  0.17564870  0.49982688  0.00223901  1
  In  In30  1  0.86774561  0.33804653  0.82996347  1
  In  In31  1  0.66045008  0.83318036  0.50255225  1
  In  In32  1  0.82023741  0.83150941  0.67195645  1
  In  In33  1  0.33671654  0.14853088  0.84896855  1
  In  In34  1  0.84009016  0.33992681  0.50037328  1
  In  In35  1  0.02573514  0.02825267  0.67490324  1
  In  In36  1  0.49527047  0.50757118  0.32892177  1
  In  In37  1  0.01989502  0.00465888  0.01001130  1
  In  In38  1  0.34951162  0.02342818  0.35658823  1
  In  In39  1  0.18501339  -0.00817452  0.81626537  1
  In  In40  1  0.01449819  0.32366723  0.65698898  1
  In  In41  1  0.00184470  0.86235404  0.51317872  1
  In  In42  1  0.33231854  0.48645322  0.85091147  1
  In  In43  1  0.19701554  0.69569308  0.85991274  1
  In  In44  1  0.66411850  0.67959633  0.66729469  1
  In  In45  1  0.67386481  0.51337617  0.83343604  1
  In  In46  1  0.30617911  0.27983007  0.34193560  1
  In  In47  1  0.49422090  0.83377377  0.33163257  1
  In  In48  1  0.83073243  0.66277421  0.16919444  1
  In  In49  1  -0.00178408  0.50488545  0.81801782  1
  In  In50  1  0.84578571  0.01522735  0.84164952  1
  In  In51  1  0.66306923  0.66608399  -0.01194889  1
  In  In52  1  0.00384843  0.49790634  0.17559099  1
  In  In53  1  0.34699416  0.50056504  0.49641955  1
  In  In54  1  0.68237812  0.32317756  0.33097150  1
  In  In55  1  0.33953904  0.65803251  0.65212059  1
  In  In56  1  0.01390180  0.82258140  0.83065897  1
  In  In57  1  0.17989939  0.47839476  0.34419579  1
  In  In58  1  0.16278757  0.17770169  0.00403545  1
  In  In59  1  0.84685117  0.00136411  0.14953941  1
  In  In60  1  0.33029982  0.64024721  0.33292235  1
  In  In61  1  0.32990835  0.82407022  0.51512979  1
  In  In62  1  0.82909198  0.82660094  0.31049500  1
  In  In63  1  0.17491292  0.66762466  0.14553931  1
  In  In64  1  0.01016753  0.69132676  0.00263918  1
  In  In65  1  0.63723288  0.48332995  0.49189380  1
  In  In66  1  0.14395273  0.84265323  0.32634157  1
  In  In67  1  0.48700767  0.16432925  0.02397947  1
  In  In68  1  -0.00664758  0.68187251  0.32584867  1
  In  In69  1  0.17990924  -0.00885767  0.14382813  1
  In  In70  1  0.65678533  0.15703456  0.50768041  1
  In  In71  1  0.86763780  0.15823055  0.00830162  1
  Te  Te72  1  0.07184985  0.10662009  0.11572376  1
  Te  Te73  1  0.07316496  0.07952556  0.40675477  1
  Te  Te74  1  0.13343211  0.10742211  0.73743716  1
  Te  Te75  1  0.10409821  0.41152567  0.10441395  1
  Te  Te76  1  0.09064361  0.39607223  0.43346037  1
  Te  Te77  1  0.09454009  0.40560307  0.75622783  1
  Te  Te78  1  0.10731334  0.77923682  0.07301988  1
  Te  Te79  1  0.07425098  0.75625046  0.42983976  1
  Te  Te80  1  0.11991767  0.75704314  0.75234388  1
  Te  Te81  1  0.39651942  0.05613917  0.07673629  1
  Te  Te82  1  0.39467664  0.11172521  0.46362606  1
  Te  Te83  1  0.39294620  0.06756143  0.73365575  1
  Te  Te84  1  0.40566015  0.40994388  0.07009953  1
  Te  Te85  1  0.40330835  0.39784087  0.39697993  1
  Te  Te86  1  0.41119491  0.41846265  0.73906986  1
  Te  Te87  1  0.37153581  0.76153738  0.08740183  1
  Te  Te88  1  0.40919315  0.74026961  0.41639307  1
  Te  Te89  1  0.37974548  0.77541029  0.75268143  1
  Te  Te90  1  0.73603460  0.08637079  0.05904415  1
  Te  Te91  1  0.75724814  0.10448484  0.41375519  1
  Te  Te92  1  0.74378345  0.07038528  0.74163692  1
  Te  Te93  1  0.77450471  0.42159600  0.09770137  1
  Te  Te94  1  0.75416149  0.42874402  0.41211251  1
  Te  Te95  1  0.75480680  0.40794573  0.75645067  1
  Te  Te96  1  0.74775276  0.75435683  0.07939420  1
  Te  Te97  1  0.72587757  0.75114453  0.39073461  1
  Te  Te98  1  0.75914156  0.73432707  0.76365212  1
  Te  Te99  1  0.09957989  0.21747934  0.22141919  1
  Te  Te100  1  0.11409299  0.24522040  0.57967017  1
  Te  Te101  1  0.07156466  0.24651218  0.91141755  1
  Te  Te102  1  0.09437467  0.58686937  0.26209021  1
  Te  Te103  1  0.06214265  0.58220387  0.59875463  1
  Te  Te104  1  0.09110788  0.59160228  0.91233148  1
  Te  Te105  1  0.06775547  0.92317980  0.22421734  1
  Te  Te106  1  0.10592711  0.91505327  0.61045774  1
  Te  Te107  1  0.09901106  0.91562045  0.91479130  1
  Te  Te108  1  0.42403768  0.22223289  0.25654049  1
  Te  Te109  1  0.42660249  0.24115169  0.57207474  1
  Te  Te110  1  0.39844389  0.25465337  0.93945632  1
  Te  Te111  1  0.39418611  0.55447758  0.23228128  1
  Te  Te112  1  0.43883829  0.58174871  0.57577617  1
  Te  Te113  1  0.42179863  0.59052941  0.91639640  1
  Te  Te114  1  0.39556164  0.91863114  0.25337049  1
  Te  Te115  1  0.40280857  0.93805296  0.57010275  1
  Te  Te116  1  0.39607524  0.91685808  0.90987677  1
  Te  Te117  1  0.76825134  0.26189466  0.22797715  1
  Te  Te118  1  0.73945049  0.26593272  0.58441843  1
  Te  Te119  1  0.76931052  0.25349274  0.92209232  1
  Te  Te120  1  0.74052644  0.59135503  0.25828428  1
  Te  Te121  1  0.74881373  0.59081779  0.57376587  1
  Te  Te122  1  0.75757652  0.56467250  0.93995644  1
  Te  Te123  1  0.73534607  0.92231727  0.23522376  1
  Te  Te124  1  0.75711736  0.91704927  0.57155293  1
  Te  Te125  1  0.76602843  0.91575905  0.91584224  1
  Te  Te126  1  0.24272893  0.25782896  0.09841281  1
  Te  Te127  1  0.22020647  0.21481635  0.44192156  1
  Te  Te128  1  0.24836204  0.23577674  0.76636262  1
  Te  Te129  1  0.27064282  0.57154437  0.08976468  1
  Te  Te130  1  0.23449779  0.58439372  0.43747217  1
  Te  Te131  1  0.25194444  0.58225787  0.75807628  1
  Te  Te132  1  0.24762292  0.87140171  0.08292365  1
  Te  Te133  1  0.24396302  0.91748768  0.41327689  1
  Te  Te134  1  0.29282896  0.90552062  0.76572297  1
  Te  Te135  1  0.58869257  0.25507254  0.08988157  1
  Te  Te136  1  0.58042379  0.25196823  0.41511764  1
  Te  Te137  1  0.58845487  0.25244370  0.73575558  1
  Te  Te138  1  0.56658395  0.60024865  0.08435384  1
  Te  Te139  1  0.56752596  0.59195913  0.42278476  1
  Te  Te140  1  0.57283932  0.58890081  0.74999937  1
  Te  Te141  1  0.57717033  0.92410914  0.07364241  1
  Te  Te142  1  0.56297168  0.92604000  0.42910811  1
  Te  Te143  1  0.59017501  0.90200271  0.74568737  1
  Te  Te144  1  0.91092746  0.26316548  0.09895799  1
  Te  Te145  1  0.92112791  0.25632765  0.40663341  1
  Te  Te146  1  0.92599376  0.23107245  0.73968274  1
  Te  Te147  1  0.92833105  0.58769320  0.08077005  1
  Te  Te148  1  0.90406110  0.59545973  0.41132833  1
  Te  Te149  1  0.91424001  0.61087237  0.75940183  1
  Te  Te150  1  0.90695227  0.91725836  0.04681968  1
  Te  Te151  1  0.89764428  0.91343837  0.41276943  1
  Te  Te152  1  0.92904027  0.92948116  0.74553901  1
  Te  Te153  1  0.24074711  0.06934378  0.26072091  1
  Te  Te154  1  0.26367231  0.11266207  0.54928987  1
  Te  Te155  1  0.24380729  0.06888497  0.93789885  1
  Te  Te156  1  0.24810656  0.38432891  0.25528584  1
  Te  Te157  1  0.25704556  0.40705681  0.57563982  1
  Te  Te158  1  0.23007552  0.40055302  0.90823779  1
  Te  Te159  1  0.23813151  0.74271583  0.26379908  1
  Te  Te160  1  0.23549946  0.73397257  0.58168519  1
  Te  Te161  1  0.28083038  0.76492732  0.96082052  1
  Te  Te162  1  0.57850188  0.08603294  0.27188783  1
  Te  Te163  1  0.59782843  0.05650391  0.59664213  1
  Te  Te164  1  0.56114316  0.10581520  0.90172287  1
  Te  Te165  1  0.58918330  0.41547625  0.24256331  1
  Te  Te166  1  0.58191858  0.41895576  0.61013865  1
  Te  Te167  1  0.58009103  0.39763810  0.90139456  1
  Te  Te168  1  0.53959130  0.73407965  0.23362313  1
  Te  Te169  1  0.56196473  0.74768461  0.57857252  1
  Te  Te170  1  0.58388226  0.76867980  0.90840633  1
  Te  Te171  1  0.88949259  0.09598149  0.25040532  1
  Te  Te172  1  0.92178965  0.07351873  0.57318798  1
  Te  Te173  1  0.95773644  0.09603279  0.90332864  1
  Te  Te174  1  0.93955613  0.41981742  0.28103942  1
  Te  Te175  1  0.91906216  0.42813829  0.59712915  1
  Te  Te176  1  0.92633291  0.43216238  0.92954156  1
  Te  Te177  1  0.93210232  0.76764476  0.21761206  1
  Te  Te178  1  0.92582675  0.75584130  0.59042449  1
  Te  Te179  1  0.91388247  0.74849511  0.90824935  1
