# generated using pymatgen
data_In2Te3
_symmetry_space_group_name_H-M   'P 1'
_cell_length_a   18.76970543
_cell_length_b   18.76992906
_cell_length_c   18.76827226
_cell_angle_alpha   89.96355380
_cell_angle_beta   90.02281911
_cell_angle_gamma   89.91608706
_symmetry_Int_Tables_number   1
_chemical_formula_structural   In2Te3
_chemical_formula_sum   'In72 Te108'
_cell_volume   6612.16671186
_cell_formula_units_Z   36
loop_
 _symmetry_equiv_pos_site_id
 _symmetry_equiv_pos_as_xyz
  1  'x, y, z'
loop_
 _atom_site_type_symbol
 _atom_site_label
 _atom_site_symmetry_multiplicity
 _atom_site_fract_x
 _atom_site_fract_y
 _atom_site_fract_z
 _atom_site_occupancy
  In  In0  1  0.84705825  0.66822095  0.15903010  1
  In  In1  1  0.33838581  0.66472527  0.68147525  1
  In  In2  1  -0.02239990  -0.01510484  0.00988908  1
  In  In3  1  0.32139612  0.31825192  0.66876173  1
  In  In4  1  0.82772124  0.17945661  0.01126244  1
  In  In5  1  0.29287662  0.46445331  0.19051775  1
  In  In6  1  0.14791025  0.67051564  0.80944385  1
  In  In7  1  0.32308442  0.51170957  0.83256226  1
  In  In8  1  0.32370272  0.83335256  0.17323514  1
  In  In9  1  -0.01005849  0.83065079  0.17828423  1
  In  In10  1  0.83682148  0.00063655  0.50346243  1
  In  In11  1  -0.01537755  0.64617794  0.65602320  1
  In  In12  1  0.17645215  0.00586764  0.83017910  1
  In  In13  1  0.68797253  0.16309048  0.50081677  1
  In  In14  1  0.67684701  0.34540930  0.33915008  1
  In  In15  1  0.69557186  0.64636507  0.62708139  1
  In  In16  1  0.67886486  0.83232667  0.82590420  1
  In  In17  1  0.19088790  0.84042396  0.01785299  1
  In  In18  1  -0.00689674  0.16855525  0.20093045  1
  In  In19  1  0.15744091  0.32056681  0.47657857  1
  In  In20  1  0.16066467  0.34486999  0.81193121  1
  In  In21  1  0.33622930  0.83879909  0.48819363  1
  In  In22  1  0.50633175  0.50618996  0.33090353  1
  In  In23  1  0.49310501  0.17092899  0.66110496  1
  In  In24  1  0.69165117  0.69734979  0.36322804  1
  In  In25  1  0.31872414  0.49419147  0.48688141  1
  In  In26  1  0.15200448  0.64953085  0.50040582  1
  In  In27  1  0.65698760  0.50069718  0.17612016  1
  In  In28  1  0.84679477  0.50422798  -0.01457546  1
  In  In29  1  0.48779427  0.47677297  -0.02425319  1
  In  In30  1  0.48106248  0.16745436  0.33074522  1
  In  In31  1  0.66003916  0.17353340  0.16263864  1
  In  In32  1  0.33082924  0.16135846  0.16673333  1
  In  In33  1  0.16526742  0.00275481  0.17991205  1
  In  In34  1  0.34930562  0.84353076  0.80718626  1
  In  In35  1  0.71210909  0.35087741  0.65604854  1
  In  In36  1  0.48727712  0.33710561  0.52101076  1
  In  In37  1  -0.00908706  0.65825823  -0.01929811  1
  In  In38  1  0.67686772  0.66933217  -0.00658893  1
  In  In39  1  0.52024208  -0.03009246  0.47328352  1
  In  In40  1  -0.00369419  0.00650213  0.35790879  1
  In  In41  1  0.83436222  0.84371701  0.01263488  1
  In  In42  1  -0.02424388  0.20483851  0.79787424  1
  In  In43  1  0.85256533  0.83413593  0.64719106  1
  In  In44  1  0.03324440  -0.01904535  0.62174698  1
  In  In45  1  0.65695651  0.31606092  -0.00395526  1
  In  In46  1  0.50701376  0.01163633  0.84734707  1
  In  In47  1  0.32087061  -0.00501958  0.33609244  1
  In  In48  1  0.82741421  0.00821109  0.82863844  1
  In  In49  1  0.52103249  0.67749271  0.49453408  1
  In  In50  1  0.13393597  0.46305023  0.03262212  1
  In  In51  1  0.32174567  0.00698636  0.63882520  1
  In  In52  1  0.65850423  0.16750448  0.83585861  1
  In  In53  1  0.16412019  0.17022101  -0.01578106  1
  In  In54  1  0.16690929  0.66169971  0.18360784  1
  In  In55  1  0.51837995  0.85460364  0.01957848  1
  In  In56  1  -0.00044793  0.80907977  0.82975484  1
  In  In57  1  0.52119197  0.51606767  0.67172592  1
  In  In58  1  -0.01651979  0.48467851  0.81667651  1
  In  In59  1  -0.00034977  0.33142288  0.35411898  1
  In  In60  1  0.34268793  0.65540909  -0.00984293  1
  In  In61  1  0.85064270  0.50151150  0.35072007  1
  In  In62  1  0.34461063  0.31604517  0.00364969  1
  In  In63  1  0.32879536  0.66325323  0.35588946  1
  In  In64  1  0.00310840  0.66108628  0.34178049  1
  In  In65  1  0.51028021  0.00501645  0.17610872  1
  In  In66  1  -0.01103275  0.16853785  0.49495167  1
  In  In67  1  0.52312082  0.66554900  0.19306528  1
  In  In68  1  0.83423371  0.32241709  0.16977249  1
  In  In69  1  0.68177310  0.00356721  0.68007916  1
  In  In70  1  0.49744550  0.33080207  0.84741529  1
  In  In71  1  0.15736426  0.17542653  0.65820594  1
  Te  Te72  1  0.07393324  0.08089270  0.08315450  1
  Te  Te73  1  0.09556774  0.09952075  0.41941283  1
  Te  Te74  1  0.07151526  0.08517906  0.75110171  1
  Te  Te75  1  0.05878341  0.37789479  0.12326986  1
  Te  Te76  1  0.05412060  0.42949213  0.45393677  1
  Te  Te77  1  0.07685678  0.42276482  0.71901197  1
  Te  Te78  1  0.07614878  0.75209707  0.07663808  1
  Te  Te79  1  0.08516935  0.75951337  0.42230767  1
  Te  Te80  1  0.08134264  0.76315666  0.71037319  1
  Te  Te81  1  0.43436841  0.09351423  0.08431147  1
  Te  Te82  1  0.41392104  0.07273637  0.42994554  1
  Te  Te83  1  0.40900702  0.07707350  0.74565392  1
  Te  Te84  1  0.40876552  0.42269681  0.09236447  1
  Te  Te85  1  0.41467723  0.40789516  0.40475867  1
  Te  Te86  1  0.41451296  0.41761895  0.74119440  1
  Te  Te87  1  0.41956309  0.74681738  0.08798317  1
  Te  Te88  1  0.43663418  0.76226431  0.39980354  1
  Te  Te89  1  0.44165913  0.74790877  0.74423732  1
  Te  Te90  1  0.74897351  0.08129169  0.08618054  1
  Te  Te91  1  0.75175145  0.07104397  0.40436702  1
  Te  Te92  1  0.76598312  0.11510049  0.73755846  1
  Te  Te93  1  0.74669984  0.41855200  0.08340965  1
  Te  Te94  1  0.75747734  0.42307446  0.43607601  1
  Te  Te95  1  0.79049819  0.43147938  0.75478660  1
  Te  Te96  1  0.73935099  0.75805288  0.09908462  1
  Te  Te97  1  0.76225761  0.79585881  0.44779057  1
  Te  Te98  1  0.76098167  0.74655825  0.73257937  1
  Te  Te99  1  0.09535744  0.26566787  0.25602472  1
  Te  Te100  1  0.06006557  0.26730853  0.58841607  1
  Te  Te101  1  0.07034169  0.26272067  0.90499715  1
  Te  Te102  1  0.07546235  0.56910660  0.25165137  1
  Te  Te103  1  0.06590441  0.55038177  0.57277818  1
  Te  Te104  1  0.09769434  0.57109158  0.91554117  1
  Te  Te105  1  0.08524222  0.90874551  0.26571659  1
  Te  Te106  1  0.08998687  0.89220482  0.52008606  1
  Te  Te107  1  0.08234732  0.90822569  0.92187204  1
  Te  Te108  1  0.40316269  0.26261399  0.24962616  1
  Te  Te109  1  0.38876564  0.22887468  0.56484336  1
  Te  Te110  1  0.42196460  0.22561878  0.91573802  1
  Te  Te111  1  0.40246425  0.58373249  0.24220130  1
  Te  Te112  1  0.41863358  0.57927054  0.56798847  1
  Te  Te113  1  0.43898366  0.59389313  0.88809175  1
  Te  Te114  1  0.42228814  0.91082555  0.26077052  1
  Te  Te115  1  0.43060369  0.91020521  0.58443476  1
  Te  Te116  1  0.41267937  0.91687543  0.92466145  1
  Te  Te117  1  0.75654534  0.23714933  0.26650480  1
  Te  Te118  1  0.78682153  0.25343849  0.56731567  1
  Te  Te119  1  0.76271093  0.26212097  0.90049249  1
  Te  Te120  1  0.75090729  0.58804697  0.25654471  1
  Te  Te121  1  0.79191857  0.55435979  0.55539811  1
  Te  Te122  1  0.74851790  0.57869244  0.90260926  1
  Te  Te123  1  0.69912440  0.89826021  0.25770693  1
  Te  Te124  1  0.73228564  0.90303043  0.57812310  1
  Te  Te125  1  0.74052694  0.93055232  0.92595622  1
  Te  Te126  1  0.23336106  0.25632955  0.08888509  1
  Te  Te127  1  0.27141947  0.28019184  0.39192901  1
  Te  Te128  1  0.25096150  0.22890192  0.76914968  1
  Te  Te129  1  0.24523488  0.57888957  0.08097000  1
  Te  Te130  1  0.22077805  0.56197572  0.39175854  1
  Te  Te131  1  0.22879162  0.56824115  0.72736536  1
  Te  Te132  1  0.27364359  0.94908558  0.08578058  1
  Te  Te133  1  0.22794561  0.92693045  0.43193921  1
  Te  Te134  1  0.23776528  0.91091673  0.72682709  1
  Te  Te135  1  0.55996505  0.25248570  0.08577582  1
  Te  Te136  1  0.58022397  0.25323431  0.42745494  1
  Te  Te137  1  0.58882498  0.26604495  0.73260084  1
  Te  Te138  1  0.57021290  0.57863779  0.07397049  1
  Te  Te139  1  0.60725629  0.57737980  0.41711400  1
  Te  Te140  1  0.62468227  0.58787911  0.74638485  1
  Te  Te141  1  0.61767277  0.92075155  0.10940139  1
  Te  Te142  1  0.63912611  0.90369805  0.39444327  1
  Te  Te143  1  0.57680860  0.91739651  0.74880115  1
  Te  Te144  1  0.94230303  0.25648825  0.08157250  1
  Te  Te145  1  0.89126842  0.25444403  0.42120959  1
  Te  Te146  1  0.89765280  0.30438490  0.71908605  1
  Te  Te147  1  0.93903928  0.56799915  0.09284724  1
  Te  Te148  1  0.90123307  0.60994295  0.44411355  1
  Te  Te149  1  0.90083077  0.59802450  0.76804511  1
  Te  Te150  1  0.88943816  0.93374576  0.12452196  1
  Te  Te151  1  0.90259201  0.90168338  0.41311106  1
  Te  Te152  1  0.92713774  0.92290162  0.74962607  1
  Te  Te153  1  0.23381211  0.10207367  0.27222477  1
  Te  Te154  1  0.22754487  0.09075949  0.55842592  1
  Te  Te155  1  0.26312705  0.07834631  0.92398086  1
  Te  Te156  1  0.21552961  0.37859292  0.28587785  1
  Te  Te157  1  0.23700163  0.40801287  0.58111543  1
  Te  Te158  1  0.25115338  0.41378660  0.92384039  1
  Te  Te159  1  0.23798182  0.75984906  0.27554485  1
  Te  Te160  1  0.25920500  0.73612215  0.57204617  1
  Te  Te161  1  0.25006675  0.74605700  0.90549774  1
  Te  Te162  1  0.59618265  0.08655079  0.27405981  1
  Te  Te163  1  0.58177954  0.07477490  0.57994469  1
  Te  Te164  1  0.59469182  0.08574642  0.94012535  1
  Te  Te165  1  0.56940235  0.39625904  0.24216941  1
  Te  Te166  1  0.59907429  0.42459592  0.57692074  1
  Te  Te167  1  0.60687855  0.42418463  0.89666113  1
  Te  Te168  1  0.60027462  0.77180217  0.26449534  1
  Te  Te169  1  0.59720003  0.75410254  0.59321310  1
  Te  Te170  1  0.57901269  0.75815594  0.91682843  1
  Te  Te171  1  0.90112355  0.07182618  0.26202678  1
  Te  Te172  1  0.92107882  0.08064906  0.60222216  1
  Te  Te173  1  0.92436885  0.09350344  0.91333848  1
  Te  Te174  1  0.92417506  0.41989657  0.24582807  1
  Te  Te175  1  0.87166498  0.43881270  0.62743510  1
  Te  Te176  1  0.93328691  0.39982415  0.92722161  1
  Te  Te177  1  0.89866193  0.75448587  0.27309722  1
  Te  Te178  1  0.92313756  0.74009286  0.55502749  1
  Te  Te179  1  0.88610529  0.74370150  0.90924971  1
