# generated using pymatgen
data_In2Te3
_symmetry_space_group_name_H-M   'P 1'
_cell_length_a   18.88908233
_cell_length_b   18.89035368
_cell_length_c   18.87728370
_cell_angle_alpha   89.97877455
_cell_angle_beta   90.13417591
_cell_angle_gamma   90.17023566
_symmetry_Int_Tables_number   1
_chemical_formula_structural   In2Te3
_chemical_formula_sum   'In72 Te108'
_cell_volume   6735.77101798
_cell_formula_units_Z   36
loop_
 _symmetry_equiv_pos_site_id
 _symmetry_equiv_pos_as_xyz
  1  'x, y, z'
loop_
 _atom_site_type_symbol
 _atom_site_label
 _atom_site_symmetry_multiplicity
 _atom_site_fract_x
 _atom_site_fract_y
 _atom_site_fract_z
 _atom_site_occupancy
  In  In0  1  0.66003599  0.85308267  0.50173103  1
  In  In1  1  0.35101308  0.16065905  0.50829237  1
  In  In2  1  0.19060037  0.84608037  0.35161178  1
  In  In3  1  -0.00823481  0.51638891  0.49167516  1
  In  In4  1  -0.01711964  0.33209352  0.67090328  1
  In  In5  1  0.83320196  0.01211316  0.83429582  1
  In  In6  1  0.16914606  0.62795045  0.17521876  1
  In  In7  1  0.33573166  0.66624942  0.33725938  1
  In  In8  1  0.16782523  0.84607177  0.65187440  1
  In  In9  1  0.82699592  0.50350223  0.66088741  1
  In  In10  1  0.34925402  0.51375246  0.86099617  1
  In  In11  1  0.65679241  0.31585586  0.67161075  1
  In  In12  1  0.64879831  0.85743534  0.80756277  1
  In  In13  1  0.83862876  0.17920261  0.32690968  1
  In  In14  1  0.85284689  0.49206726  0.33336547  1
  In  In15  1  0.69461144  0.18379674  0.15421393  1
  In  In16  1  0.33979205  0.14589559  0.83721910  1
  In  In17  1  0.33142541  -0.01831964  0.65114741  1
  In  In18  1  0.69791031  0.49327989  0.49349069  1
  In  In19  1  0.84490415  0.83208399  0.64629026  1
  In  In20  1  0.15544774  0.19277184  0.00550377  1
  In  In21  1  0.50599812  0.69539878  0.47916569  1
  In  In22  1  0.36508144  0.81868008  0.16151794  1
  In  In23  1  0.16173785  0.16035524  0.35253288  1
  In  In24  1  0.52088566  0.32021702  0.80681715  1
  In  In25  1  0.00450639  0.15156996  0.49236162  1
  In  In26  1  0.16520345  0.33261644  0.49757106  1
  In  In27  1  0.49184561  0.50560622  0.01384538  1
  In  In28  1  0.83268383  0.01429753  0.17767797  1
  In  In29  1  0.49559991  0.66490675  0.82925339  1
  In  In30  1  0.51604778  0.14300721  -0.00845510  1
  In  In31  1  0.17029125  0.83607317  -0.00925811  1
  In  In32  1  0.64614056  0.15045122  0.52082705  1
  In  In33  1  0.16466914  0.66523742  0.84557309  1
  In  In34  1  0.69982462  0.47261108  0.86112576  1
  In  In35  1  0.14659771  0.00089437  0.80874777  1
  In  In36  1  0.32630929  0.68781861  0.68992561  1
  In  In37  1  0.50752404  0.35253235  0.47990421  1
  In  In38  1  0.01028620  0.83121448  0.82801141  1
  In  In39  1  0.49341497  0.01083924  0.82557201  1
  In  In40  1  0.00913147  0.83711525  0.50359292  1
  In  In41  1  0.83344461  0.17479990  -0.00178714  1
  In  In42  1  -0.00262872  0.63052652  0.02860773  1
  In  In43  1  0.84071213  0.83186722  0.01252064  1
  In  In44  1  0.64222522  0.83744525  0.16123258  1
  In  In45  1  0.83075169  0.65740698  0.83075544  1
  In  In46  1  0.68698458  0.46683706  0.14782154  1
  In  In47  1  0.50038030  0.32427099  0.15861754  1
  In  In48  1  0.49190671  0.52290120  0.67710202  1
  In  In49  1  0.67064416  -0.01137256  0.31856050  1
  In  In50  1  0.67556984  0.69635623  0.32879317  1
  In  In51  1  0.00284139  0.34288751  0.31186569  1
  In  In52  1  0.15361977  0.66050060  0.50443598  1
  In  In53  1  0.84492854  -0.00650694  0.49572273  1
  In  In54  1  0.49752640  0.52017667  0.31116831  1
  In  In55  1  0.33685448  0.33202567  0.62667744  1
  In  In56  1  -0.03454582  0.46527539  0.85264510  1
  In  In57  1  0.16804778  0.14456568  0.69218853  1
  In  In58  1  0.33073746  0.49788919  0.49576187  1
  In  In59  1  0.49607101  -0.01018413  0.16450070  1
  In  In60  1  0.49069085  0.16299984  0.33785460  1
  In  In61  1  0.84364816  0.64476975  0.16969124  1
  In  In62  1  0.16852960  0.01567612  0.18564344  1
  In  In63  1  0.29571798  0.17561925  0.17828990  1
  In  In64  1  0.65931396  0.65499402  0.64712993  1
  In  In65  1  -0.00949711  0.82569449  0.17981845  1
  In  In66  1  -0.00904382  0.16535018  0.18007141  1
  In  In67  1  0.34710165  -0.00374607  -0.00129378  1
  In  In68  1  0.34057338  0.35037361  0.00180113  1
  In  In69  1  0.83315618  0.18081761  0.67146689  1
  In  In70  1  0.14915371  0.31576173  0.83407010  1
  In  In71  1  0.65106401  0.65488061  -0.01258596  1
  Te  Te72  1  0.07982198  0.08607754  0.08505014  1
  Te  Te73  1  0.08984770  0.05400656  0.42488776  1
  Te  Te74  1  0.05351726  0.11358018  0.78140997  1
  Te  Te75  1  0.11041053  0.46626601  0.10211460  1
  Te  Te76  1  0.08576759  0.42514274  0.40964350  1
  Te  Te77  1  0.07575021  0.42064515  0.75173318  1
  Te  Te78  1  0.07947847  0.74906439  0.08078714  1
  Te  Te79  1  0.08709670  0.74666524  0.39996935  1
  Te  Te80  1  0.09041953  0.74266096  0.73624442  1
  Te  Te81  1  0.40082002  0.10808105  0.09040509  1
  Te  Te82  1  0.44605654  0.06765990  0.44240646  1
  Te  Te83  1  0.41361222  0.09256468  0.71957409  1
  Te  Te84  1  0.40247722  0.43314431  0.11383329  1
  Te  Te85  1  0.40631655  0.42165605  0.38893030  1
  Te  Te86  1  0.40905872  0.41680432  0.74890158  1
  Te  Te87  1  0.43144699  0.72333495  0.07616660  1
  Te  Te88  1  0.40274849  0.77716100  0.41196267  1
  Te  Te89  1  0.43379793  0.76894973  0.74615055  1
  Te  Te90  1  0.74097547  0.06731781  0.07068257  1
  Te  Te91  1  0.74631071  0.08597966  0.41248780  1
  Te  Te92  1  0.74163372  0.09466893  0.75043191  1
  Te  Te93  1  0.74810722  0.38205867  0.03955193  1
  Te  Te94  1  0.75879394  0.39867474  0.40158919  1
  Te  Te95  1  0.76385514  0.39566048  0.74730948  1
  Te  Te96  1  0.74650490  0.73772935  0.08675320  1
  Te  Te97  1  0.75507771  0.76438270  0.43107630  1
  Te  Te98  1  0.74418499  0.74810211  0.74535061  1
  Te  Te99  1  0.10247652  0.25046938  0.24503226  1
  Te  Te100  1  0.08990065  0.24292665  0.59395912  1
  Te  Te101  1  0.05973016  0.28857590  0.94750163  1
  Te  Te102  1  0.06085993  0.54681396  0.23502488  1
  Te  Te103  1  0.07715767  0.57583867  0.59657943  1
  Te  Te104  1  0.06690047  0.56470810  0.91176686  1
  Te  Te105  1  0.08387753  0.91557588  0.26153108  1
  Te  Te106  1  0.07356859  0.93977680  0.59007661  1
  Te  Te107  1  0.07304639  0.93077340  0.92410661  1
  Te  Te108  1  0.40367525  0.25549324  0.25412004  1
  Te  Te109  1  0.45483205  0.25172234  0.58269699  1
  Te  Te110  1  0.42038052  0.24943838  0.91584643  1
  Te  Te111  1  0.41220885  0.60632347  0.22557203  1
  Te  Te112  1  0.41305313  0.60051254  0.57303468  1
  Te  Te113  1  0.40774772  0.62262178  0.95647278  1
  Te  Te114  1  0.40740389  0.92117173  0.25730403  1
  Te  Te115  1  0.39637667  0.90339131  0.54381597  1
  Te  Te116  1  0.42296626  0.91133039  0.90902298  1
  Te  Te117  1  0.75499101  0.27494327  0.25271035  1
  Te  Te118  1  0.74823175  0.25412769  0.56716971  1
  Te  Te119  1  0.75424006  0.27656252  0.92046897  1
  Te  Te120  1  0.73336623  0.57446924  0.25841782  1
  Te  Te121  1  0.77400382  0.60703560  0.56149430  1
  Te  Te122  1  0.77394704  0.57634615  0.94509366  1
  Te  Te123  1  0.76145988  0.89568944  0.24160429  1
  Te  Te124  1  0.74633879  0.93649026  0.59705508  1
  Te  Te125  1  0.75358865  0.90381150  0.91153755  1
  Te  Te126  1  0.23633888  0.28750478  0.09434872  1
  Te  Te127  1  0.26622711  0.25255822  0.41895291  1
  Te  Te128  1  0.26536383  0.25452532  0.74310475  1
  Te  Te129  1  0.22444652  0.55293495  0.05878794  1
  Te  Te130  1  0.23572505  0.57524533  0.40655356  1
  Te  Te131  1  0.25430075  0.57442283  0.75655799  1
  Te  Te132  1  0.25027485  0.92262430  0.09207900  1
  Te  Te133  1  0.26849193  0.91117119  0.46174687  1
  Te  Te134  1  0.25574014  0.90892837  0.76217755  1
  Te  Te135  1  0.59322514  0.25359862  0.06224365  1
  Te  Te136  1  0.59297297  0.24937313  0.41045546  1
  Te  Te137  1  0.60357375  0.20694799  0.75901603  1
  Te  Te138  1  0.59096360  0.57836403  0.10321329  1
  Te  Te139  1  0.58335231  0.57681302  0.42556832  1
  Te  Te140  1  0.60929908  0.57139565  0.77103208  1
  Te  Te141  1  0.57598910  0.92387656  0.06277314  1
  Te  Te142  1  0.57268061  0.92623117  0.40779547  1
  Te  Te143  1  0.57304571  0.94615160  0.71255710  1
  Te  Te144  1  0.91203905  0.25621187  0.09663874  1
  Te  Te145  1  0.92907752  0.25953749  0.41976447  1
  Te  Te146  1  0.93212753  0.23450161  0.77019486  1
  Te  Te147  1  0.90783562  0.53191225  0.09590240  1
  Te  Te148  1  0.91917002  0.60706995  0.39880924  1
  Te  Te149  1  0.92687264  0.57625466  0.74933249  1
  Te  Te150  1  0.92631179  0.93053497  0.08932818  1
  Te  Te151  1  0.90263230  0.88856496  0.41253975  1
  Te  Te152  1  0.92061846  0.91993723  0.74518552  1
  Te  Te153  1  0.26955618  0.07116605  0.28502410  1
  Te  Te154  1  0.23988994  0.07961358  0.57656894  1
  Te  Te155  1  0.23488915  0.08425408  0.92587132  1
  Te  Te156  1  0.20539578  0.48384696  0.22516338  1
  Te  Te157  1  0.23131379  0.43385274  0.59210527  1
  Te  Te158  1  0.24125528  0.41817723  0.91009526  1
  Te  Te159  1  0.24046084  0.75368097  0.23881252  1
  Te  Te160  1  0.25641154  0.75161957  0.57144513  1
  Te  Te161  1  0.26122677  0.75562518  0.91021515  1
  Te  Te162  1  0.59061721  0.09673057  0.23537067  1
  Te  Te163  1  0.58017310  0.03796482  0.58573957  1
  Te  Te164  1  0.60586025  0.08024014  0.89559561  1
  Te  Te165  1  0.58593439  0.41032121  0.25031512  1
  Te  Te166  1  0.58540771  0.43407782  0.59360233  1
  Te  Te167  1  0.56836737  0.41772132  0.91576743  1
  Te  Te168  1  0.56435107  0.75554685  0.25523479  1
  Te  Te169  1  0.56992594  0.76449169  0.59846666  1
  Te  Te170  1  0.58129136  0.76377528  0.91121031  1
  Te  Te171  1  0.93113009  0.06845896  0.28097451  1
  Te  Te172  1  0.92091236  0.08008087  0.59561331  1
  Te  Te173  1  0.92138851  0.07609670  0.93369728  1
  Te  Te174  1  0.90789722  0.41104346  0.21935707  1
  Te  Te175  1  0.90580321  0.41243372  0.56853050  1
  Te  Te176  1  0.86748559  0.38643373  0.93484715  1
  Te  Te177  1  0.92014498  0.72725359  0.26554376  1
  Te  Te178  1  0.94046803  0.73793019  0.59077947  1
  Te  Te179  1  0.92699477  0.74107643  0.92212395  1
