# generated using pymatgen
data_In2Te3
_symmetry_space_group_name_H-M   'P 1'
_cell_length_a   19.03796186
_cell_length_b   19.00512462
_cell_length_c   18.95673056
_cell_angle_alpha   90.13745470
_cell_angle_beta   90.00651981
_cell_angle_gamma   90.04770000
_symmetry_Int_Tables_number   1
_chemical_formula_structural   In2Te3
_chemical_formula_sum   'In72 Te108'
_cell_volume   6858.88005651
_cell_formula_units_Z   36
loop_
 _symmetry_equiv_pos_site_id
 _symmetry_equiv_pos_as_xyz
  1  'x, y, z'
loop_
 _atom_site_type_symbol
 _atom_site_label
 _atom_site_symmetry_multiplicity
 _atom_site_fract_x
 _atom_site_fract_y
 _atom_site_fract_z
 _atom_site_occupancy
  In  In0  1  0.51130051  0.68458342  0.46787041  1
  In  In1  1  -0.01757586  0.83068787  0.87139364  1
  In  In2  1  0.65787261  0.50317965  0.47181965  1
  In  In3  1  0.34793639  0.15977159  0.87847726  1
  In  In4  1  0.20814373  0.31713565  0.46245583  1
  In  In5  1  0.64796118  -0.02492170  -0.01795818  1
  In  In6  1  0.78931972  0.32012824  0.49029165  1
  In  In7  1  -0.02146288  0.32782180  0.02081042  1
  In  In8  1  0.83031277  0.01698493  0.85709866  1
  In  In9  1  0.78366286  0.84250582  0.33883942  1
  In  In10  1  0.34993470  0.51498500  0.20728264  1
  In  In11  1  0.17493267  0.82167343  0.31925723  1
  In  In12  1  0.18033824  0.48689389  0.68922720  1
  In  In13  1  0.51385400  0.51564643  0.02718785  1
  In  In14  1  0.33240560  0.82223065  0.83645177  1
  In  In15  1  0.65647678  0.31390611  0.31005714  1
  In  In16  1  0.82791746  -0.02217852  0.18857691  1
  In  In17  1  0.81553851  0.68255050  0.16872532  1
  In  In18  1  0.80662954  0.00944498  0.47193540  1
  In  In19  1  0.85188590  0.87521943  0.65350851  1
  In  In20  1  0.50302093  0.17390420  0.67736284  1
  In  In21  1  0.18854537  -0.01273177  0.49246814  1
  In  In22  1  0.14649807  0.64866181  0.49625828  1
  In  In23  1  0.17642077  0.66747134  0.86020751  1
  In  In24  1  0.17988948  0.82514717  0.03538550  1
  In  In25  1  0.47295226  0.83394823  0.01550122  1
  In  In26  1  0.17001728  0.32861332  0.83543934  1
  In  In27  1  0.18966540  0.51726500  0.03395635  1
  In  In28  1  0.36196152  0.83688656  0.19653845  1
  In  In29  1  0.33852319  0.51257888  0.82676942  1
  In  In30  1  0.66620809  0.01736566  0.63366730  1
  In  In31  1  0.34403219  0.51330320  0.45885974  1
  In  In32  1  0.01052896  -0.01150900  0.33784667  1
  In  In33  1  -0.01305349  0.36235654  0.31490583  1
  In  In34  1  0.68648845  0.49808889  0.85494242  1
  In  In35  1  0.82117474  0.50264619  0.04091978  1
  In  In36  1  0.69332043  0.64714512  0.66297392  1
  In  In37  1  0.65319035  0.80328663  0.81050040  1
  In  In38  1  0.00443121  0.18986879  0.82382370  1
  In  In39  1  0.04200336  0.00551629  0.01335020  1
  In  In40  1  0.35146028  0.35620252  0.67009589  1
  In  In41  1  0.67539818  0.34358930  0.03622207  1
  In  In42  1  0.41414713  0.88790935  0.42657345  1
  In  In43  1  0.03337731  0.83304096  0.49747936  1
  In  In44  1  0.17648350  0.80833545  0.67387051  1
  In  In45  1  0.83423328  0.17354452  0.03238207  1
  In  In46  1  -0.01835519  0.49615274  0.49249924  1
  In  In47  1  0.49806843  0.66107125  0.84961397  1
  In  In48  1  0.81154735  0.65553489  0.85246094  1
  In  In49  1  0.20038422  0.15085978  0.26847588  1
  In  In50  1  0.81522844  0.81313420  0.02317004  1
  In  In51  1  0.14272011  0.32284374  0.17185201  1
  In  In52  1  0.66165566  0.51160120  0.17907641  1
  In  In53  1  0.65847055  0.14740572  0.82489175  1
  In  In54  1  0.63469891  0.14436374  0.47202848  1
  In  In55  1  -0.00511863  0.34035978  0.66796868  1
  In  In56  1  0.35337107  0.68759227  0.62913556  1
  In  In57  1  0.82640706  0.33307811  0.84138387  1
  In  In58  1  -0.00371463  0.82201713  0.15826544  1
  In  In59  1  -0.00600143  0.03860360  0.65443535  1
  In  In60  1  0.48835420  -0.01123550  0.83454518  1
  In  In61  1  0.64826440  0.14710682  0.16067037  1
  In  In62  1  0.50980932  0.84786083  0.62462729  1
  In  In63  1  0.50610587  0.35042594  0.49834323  1
  In  In64  1  -0.02986354  0.65514663  0.68929081  1
  In  In65  1  -0.00660311  0.19292906  0.49250113  1
  In  In66  1  0.23633964  0.11658205  0.06241107  1
  In  In67  1  0.34554237  0.29411164  0.28814413  1
  In  In68  1  0.83864544  0.67222795  0.47072687  1
  In  In69  1  0.18084231  0.15863093  0.64454587  1
  In  In70  1  0.12827445  0.51490087  0.28906440  1
  In  In71  1  0.36391644  0.34104123  0.00677355  1
  Te  Te72  1  0.09804100  0.09494152  0.11422427  1
  Te  Te73  1  0.08116146  0.07858167  0.43817834  1
  Te  Te74  1  0.09610156  0.09233812  0.75326167  1
  Te  Te75  1  0.07693376  0.42487832  0.08421698  1
  Te  Te76  1  0.08832734  0.42024933  0.41611266  1
  Te  Te77  1  0.06918063  0.42255517  0.77127841  1
  Te  Te78  1  0.08053651  0.72482429  0.08378681  1
  Te  Te79  1  0.07292988  0.73339405  0.39260658  1
  Te  Te80  1  0.06652452  0.74471078  0.76782174  1
  Te  Te81  1  0.38341023  0.12703054  0.08916399  1
  Te  Te82  1  0.46257178  0.02567887  0.36804138  1
  Te  Te83  1  0.40564528  0.08599499  0.75542060  1
  Te  Te84  1  0.43199207  0.42204422  0.11573292  1
  Te  Te85  1  0.40546458  0.39384932  0.39138405  1
  Te  Te86  1  0.43783425  0.44829710  0.74269187  1
  Te  Te87  1  0.44854773  0.73735262  0.12435247  1
  Te  Te88  1  0.38743852  0.73205423  0.39441488  1
  Te  Te89  1  0.43931033  0.75402916  0.74320590  1
  Te  Te90  1  0.74649659  0.05519372  0.06989757  1
  Te  Te91  1  0.73528693  0.09292622  0.37426672  1
  Te  Te92  1  0.76248146  0.07916143  0.73821932  1
  Te  Te93  1  0.78624525  0.38488987  0.13111516  1
  Te  Te94  1  0.74624884  0.41654155  0.38366953  1
  Te  Te95  1  0.74721583  0.41559420  0.75054512  1
  Te  Te96  1  0.71466399  0.78217905  0.12383772  1
  Te  Te97  1  0.72322891  0.71788087  0.38896058  1
  Te  Te98  1  0.77770961  0.75824015  0.73525826  1
  Te  Te99  1  0.08245675  0.24194497  0.28279686  1
  Te  Te100  1  0.09770131  0.27102283  0.58020313  1
  Te  Te101  1  0.08408470  0.25487674  0.93389180  1
  Te  Te102  1  0.06189224  0.61002477  0.20050217  1
  Te  Te103  1  0.07567815  0.57189130  0.60723885  1
  Te  Te104  1  0.09583330  0.57193506  0.93312117  1
  Te  Te105  1  0.09047184  0.91476934  0.23331650  1
  Te  Te106  1  0.08517772  0.92458169  0.60679948  1
  Te  Te107  1  0.10525005  0.90186403  0.92312260  1
  Te  Te108  1  0.44060036  0.21557823  0.20428149  1
  Te  Te109  1  0.41792923  0.25611055  0.57959375  1
  Te  Te110  1  0.43060369  0.27806051  0.89343189  1
  Te  Te111  1  0.42305859  0.59997509  0.30646574  1
  Te  Te112  1  0.43233711  0.58083392  0.56180563  1
  Te  Te113  1  0.40832269  0.58457527  0.94240439  1
  Te  Te114  1  0.46425183  0.94649942  0.22088761  1
  Te  Te115  1  0.38724229  0.90339177  0.57421106  1
  Te  Te116  1  0.38928904  0.92854325  0.93073110  1
  Te  Te117  1  0.74637556  0.20931529  0.25313603  1
  Te  Te118  1  0.71293210  0.22501904  0.56913385  1
  Te  Te119  1  0.74321063  0.24003105  0.92984479  1
  Te  Te120  1  0.74394401  0.59682536  0.26702214  1
  Te  Te121  1  0.76994265  0.57111457  0.56069763  1
  Te  Te122  1  0.72965539  0.59518763  0.96459679  1
  Te  Te123  1  0.70451254  0.92305875  0.24649121  1
  Te  Te124  1  0.73717845  0.90546908  0.55914234  1
  Te  Te125  1  0.75426409  0.89281652  0.89893443  1
  Te  Te126  1  0.24960990  0.27242497  0.07584486  1
  Te  Te127  1  0.28105707  0.20003123  0.38880577  1
  Te  Te128  1  0.25704073  0.25669237  0.73728447  1
  Te  Te129  1  0.26870249  0.60581259  0.12293699  1
  Te  Te130  1  0.22590287  0.57886225  0.38870392  1
  Te  Te131  1  0.25982576  0.61258949  0.73397933  1
  Te  Te132  1  0.26855106  0.91748014  0.10909556  1
  Te  Te133  1  0.26188502  0.92975375  0.37707167  1
  Te  Te134  1  0.25695546  0.90649987  0.74469023  1
  Te  Te135  1  0.57517449  0.24832641  0.08280133  1
  Te  Te136  1  0.55240710  0.24644691  0.39796298  1
  Te  Te137  1  0.59223545  0.25736832  0.75712649  1
  Te  Te138  1  0.56575028  0.61219289  0.12706126  1
  Te  Te139  1  0.55720435  0.56703683  0.38172614  1
  Te  Te140  1  0.59799533  0.58569634  0.76326545  1
  Te  Te141  1  0.54746889  0.94480255  0.08699290  1
  Te  Te142  1  0.56340003  0.92109309  0.42873056  1
  Te  Te143  1  0.59585719  0.92684148  0.74334929  1
  Te  Te144  1  0.93752857  0.22731203  0.11957479  1
  Te  Te145  1  0.90286212  0.26638004  0.39893552  1
  Te  Te146  1  0.89785590  0.24573585  0.73463948  1
  Te  Te147  1  0.92155598  0.57844593  0.12638876  1
  Te  Te148  1  0.92631790  0.58487528  0.39237833  1
  Te  Te149  1  0.89038847  0.56375765  0.76925957  1
  Te  Te150  1  0.91846293  0.92211022  0.06702427  1
  Te  Te151  1  0.91962178  0.91036569  0.43246605  1
  Te  Te152  1  0.93598597  0.93666104  0.76918236  1
  Te  Te153  1  0.29915788  0.06128815  0.20295698  1
  Te  Te154  1  0.27464568  0.07692836  0.56923814  1
  Te  Te155  1  0.23110562  0.08496686  0.91610958  1
  Te  Te156  1  0.24176219  0.40914921  0.25058103  1
  Te  Te157  1  0.25846870  0.43545917  0.57032610  1
  Te  Te158  1  0.25356964  0.42592247  0.91766451  1
  Te  Te159  1  0.25406287  0.73586720  0.22799882  1
  Te  Te160  1  0.24269744  0.75373776  0.54888991  1
  Te  Te161  1  0.27362507  0.73942985  0.94883796  1
  Te  Te162  1  0.54306901  0.09707798  0.25677546  1
  Te  Te163  1  0.54207973  0.07010015  0.57136898  1
  Te  Te164  1  0.56239163  0.08681407  0.92473421  1
  Te  Te165  1  0.57337647  0.40817160  0.23264834  1
  Te  Te166  1  0.60121416  0.42315963  0.58049736  1
  Te  Te167  1  0.58758116  0.41875463  0.93709402  1
  Te  Te168  1  0.52806409  0.79355527  0.35234536  1
  Te  Te169  1  0.60258546  0.74059547  0.58054627  1
  Te  Te170  1  0.58072857  0.75688682  0.93289425  1
  Te  Te171  1  0.91316990  0.06846104  0.26376994  1
  Te  Te172  1  0.89459493  0.10078620  0.56202201  1
  Te  Te173  1  0.93622096  0.09754490  0.92835013  1
  Te  Te174  1  0.90784561  0.43560778  0.21556889  1
  Te  Te175  1  0.89621696  0.40255364  0.57302362  1
  Te  Te176  1  0.90080922  0.42568194  0.93581654  1
  Te  Te177  1  0.89826464  0.77480193  0.26030181  1
  Te  Te178  1  0.92982056  0.75031129  0.57838853  1
  Te  Te179  1  0.91225131  0.72169986  0.94665899  1
