# generated using pymatgen
data_In2Te3
_symmetry_space_group_name_H-M   'P 1'
_cell_length_a   18.86800752
_cell_length_b   18.86309867
_cell_length_c   18.85951335
_cell_angle_alpha   90.04379343
_cell_angle_beta   89.97123940
_cell_angle_gamma   89.97160763
_symmetry_Int_Tables_number   1
_chemical_formula_structural   In2Te3
_chemical_formula_sum   'In72 Te108'
_cell_volume   6712.26855809
_cell_formula_units_Z   36
loop_
 _symmetry_equiv_pos_site_id
 _symmetry_equiv_pos_as_xyz
  1  'x, y, z'
loop_
 _atom_site_type_symbol
 _atom_site_label
 _atom_site_symmetry_multiplicity
 _atom_site_fract_x
 _atom_site_fract_y
 _atom_site_fract_z
 _atom_site_occupancy
  In  In0  1  0.51734626  0.83632093  0.00763022  1
  In  In1  1  0.32297552  -0.00554708  0.66081660  1
  In  In2  1  0.16306802  0.82790756  0.35789987  1
  In  In3  1  0.67487657  0.67380967  -0.04385666  1
  In  In4  1  0.34040381  0.16637996  0.15771094  1
  In  In5  1  -0.03336464  0.35300864  0.64008123  1
  In  In6  1  0.50739712  0.00398805  0.50206543  1
  In  In7  1  0.65914581  0.18522886  0.50378514  1
  In  In8  1  -0.02697389  0.69229429  -0.00243128  1
  In  In9  1  0.00842162  0.50237714  0.20769461  1
  In  In10  1  0.14332479  0.68061929  0.49571999  1
  In  In11  1  0.18645976  0.83988098  0.03328992  1
  In  In12  1  -0.00207072  0.16868431  0.50047230  1
  In  In13  1  0.37432014  0.82362735  0.81501164  1
  In  In14  1  0.84595830  -0.00981787  0.82003209  1
  In  In15  1  0.13264359  0.48330482  0.38426943  1
  In  In16  1  0.35692300  0.83085142  0.18984282  1
  In  In17  1  0.79658826  -0.00950484  0.17553303  1
  In  In18  1  0.18250243  0.16734403  0.01634586  1
  In  In19  1  0.16519961  0.01568595  0.82196292  1
  In  In20  1  0.51824019  0.16612365  0.34065731  1
  In  In21  1  0.66477571  -0.00900530  0.00432256  1
  In  In22  1  0.51664144  -0.02663092  0.82031247  1
  In  In23  1  0.34006428  0.48698769  0.15686809  1
  In  In24  1  0.81898750  0.52251505  -0.01484654  1
  In  In25  1  0.18311347  -0.00788911  0.19987087  1
  In  In26  1  0.00090542  0.32611540  0.00713525  1
  In  In27  1  0.69578292  0.52803894  0.50569423  1
  In  In28  1  0.53863439  0.76041401  0.67467288  1
  In  In29  1  0.13217196  0.15134298  0.68485481  1
  In  In30  1  -0.01194768  0.01098939  0.36307384  1
  In  In31  1  0.51729299  0.49919800  0.34355020  1
  In  In32  1  0.84199361  0.18175178  0.32763650  1
  In  In33  1  0.14524063  0.62843042  0.18234275  1
  In  In34  1  0.81521360  0.17472845  0.66493641  1
  In  In35  1  0.34682619  0.34812468  0.67005794  1
  In  In36  1  0.34963718  0.83817242  0.48423633  1
  In  In37  1  0.67026199  0.16557713  0.17180338  1
  In  In38  1  0.34123946  0.18901802  0.84903026  1
  In  In39  1  0.67118450  -0.01931586  0.33155461  1
  In  In40  1  0.32796430  0.65101666  0.33431325  1
  In  In41  1  0.36808787  0.52215530  0.79057074  1
  In  In42  1  0.81434092  0.65596727  0.17318813  1
  In  In43  1  0.31214754  0.19356409  0.51060459  1
  In  In44  1  0.00830976  0.18639689  0.17725534  1
  In  In45  1  0.65180879  0.48924881  0.16594160  1
  In  In46  1  -0.03983184  0.82456971  0.17687528  1
  In  In47  1  -0.01535474  0.52738319  0.82106656  1
  In  In48  1  0.34405605  0.65272143  -0.02249317  1
  In  In49  1  0.17278470  0.46882198  -0.03172505  1
  In  In50  1  0.83954272  0.81955496  -0.02761698  1
  In  In51  1  -0.04565997  0.67418509  0.66101000  1
  In  In52  1  0.71080724  0.80317822  0.49488562  1
  In  In53  1  0.50218556  0.16577029  0.65952845  1
  In  In54  1  0.67031550  0.17123758  0.85379554  1
  In  In55  1  0.00184712  0.16975819  0.79714374  1
  In  In56  1  0.34865548  0.35509778  0.34988482  1
  In  In57  1  0.00023485  0.01420628  -0.01919430  1
  In  In58  1  0.66975256  0.32131816  0.00815548  1
  In  In59  1  0.51700355  0.48596420  0.00124918  1
  In  In60  1  0.13848094  0.46664594  0.63314545  1
  In  In61  1  0.83763818  0.49866739  0.34554489  1
  In  In62  1  -0.01699375  0.84005725  0.82376666  1
  In  In63  1  0.17636163  0.66055653  0.81801325  1
  In  In64  1  0.81599266  -0.02113601  0.50461618  1
  In  In65  1  0.15003132  0.84310235  0.62981314  1
  In  In66  1  0.18516427  0.34935880  0.84533042  1
  In  In67  1  0.33530135  0.00550439  0.31513703  1
  In  In68  1  0.54123064  0.68989025  0.19658596  1
  In  In69  1  0.17991500  0.32757578  0.18984779  1
  In  In70  1  0.51193976  0.31708197  0.83679183  1
  In  In71  1  0.69311659  0.37703108  0.65301049  1
  Te  Te72  1  0.09205030  0.06952914  0.09075553  1
  Te  Te73  1  0.09430619  0.09506868  0.41534074  1
  Te  Te74  1  0.04268184  0.02920759  0.72722858  1
  Te  Te75  1  0.08994764  0.41691321  0.09270075  1
  Te  Te76  1  0.01831765  0.40843396  0.44549656  1
  Te  Te77  1  0.06933880  0.41089267  0.76361542  1
  Te  Te78  1  0.07816037  0.74810066  0.09721268  1
  Te  Te79  1  0.05510713  0.79152086  0.45254336  1
  Te  Te80  1  0.07740356  0.74661686  0.73880490  1
  Te  Te81  1  0.40367079  0.04715267  0.10656035  1
  Te  Te82  1  0.40735145  0.09349050  0.43092805  1
  Te  Te83  1  0.41151722  0.08295897  0.75028544  1
  Te  Te84  1  0.44765853  0.40058096  0.10154920  1
  Te  Te85  1  0.41182190  0.45582964  0.43683805  1
  Te  Te86  1  0.46602501  0.41938405  0.73189062  1
  Te  Te87  1  0.41735839  0.73927939  0.08165228  1
  Te  Te88  1  0.42284731  0.72991476  0.41481455  1
  Te  Te89  1  0.38735295  0.72299871  0.70709900  1
  Te  Te90  1  0.75888477  0.09120135  0.06929619  1
  Te  Te91  1  0.74483815  0.08926259  0.41113931  1
  Te  Te92  1  0.73993994  0.07774168  0.75393805  1
  Te  Te93  1  0.76013094  0.42219035  0.08317884  1
  Te  Te94  1  0.73073017  0.41955473  0.40961615  1
  Te  Te95  1  0.77829800  0.44225888  0.75387133  1
  Te  Te96  1  0.74870289  0.74803225  0.07107515  1
  Te  Te97  1  0.79814393  0.70393070  0.41777357  1
  Te  Te98  1  0.71391669  0.70681407  0.74857553  1
  Te  Te99  1  0.07406228  0.27199091  0.27532853  1
  Te  Te100  1  0.07880063  0.26278856  0.59197908  1
  Te  Te101  1  0.09296918  0.23541360  0.91040234  1
  Te  Te102  1  0.06585974  0.60065993  0.30927638  1
  Te  Te103  1  0.06464388  0.59198713  0.59019330  1
  Te  Te104  1  0.08566744  0.59487276  0.92374397  1
  Te  Te105  1  0.07099559  0.90373779  0.25284031  1
  Te  Te106  1  0.05794974  0.94814063  0.59500389  1
  Te  Te107  1  0.08821667  0.90392898  0.92278418  1
  Te  Te108  1  0.41561416  0.24881471  0.26230527  1
  Te  Te109  1  0.43273068  0.26578622  0.56994683  1
  Te  Te110  1  0.44195662  0.24086616  0.94224756  1
  Te  Te111  1  0.42646973  0.58818132  0.23233651  1
  Te  Te112  1  0.45436851  0.59327166  0.65138029  1
  Te  Te113  1  0.45421360  0.58585279  0.90077811  1
  Te  Te114  1  0.43497729  0.89880168  0.29357821  1
  Te  Te115  1  0.42907980  0.91006268  0.59435497  1
  Te  Te116  1  0.41491737  0.91940214  0.92104485  1
  Te  Te117  1  0.73677247  0.26021960  0.26292825  1
  Te  Te118  1  0.76674859  0.27579748  0.56268564  1
  Te  Te119  1  0.76475591  0.26932828  0.90675756  1
  Te  Te120  1  0.72601533  0.57520670  0.26504119  1
  Te  Te121  1  0.72103923  0.63154510  0.62332097  1
  Te  Te122  1  0.73927596  0.57070803  0.86643824  1
  Te  Te123  1  0.75878532  0.87512930  0.26457290  1
  Te  Te124  1  0.74325671  0.89804107  0.60690987  1
  Te  Te125  1  0.74204718  0.90988701  0.90007279  1
  Te  Te126  1  0.26522490  0.27904307  0.07405839  1
  Te  Te127  1  0.23838916  0.28684708  0.42351368  1
  Te  Te128  1  0.24838192  0.24525170  0.73999457  1
  Te  Te129  1  0.24776109  0.58063495  0.07128018  1
  Te  Te130  1  0.24162369  0.57928907  0.43704667  1
  Te  Te131  1  0.23121185  0.55286013  0.72794438  1
  Te  Te132  1  0.28784059  0.94398430  0.09536786  1
  Te  Te133  1  0.24800344  0.93413340  0.42409252  1
  Te  Te134  1  0.24421086  0.90075842  0.75174745  1
  Te  Te135  1  0.57599235  0.23006622  0.07676611  1
  Te  Te136  1  0.57682316  0.27362528  0.42106985  1
  Te  Te137  1  0.60498216  0.25214426  0.73194393  1
  Te  Te138  1  0.59314977  0.60004726  0.07403998  1
  Te  Te139  1  0.59108561  0.60368216  0.42130246  1
  Te  Te140  1  0.58256824  0.62233034  0.73021905  1
  Te  Te141  1  0.60130795  0.90501660  0.10704881  1
  Te  Te142  1  0.59774352  0.90164430  0.43754183  1
  Te  Te143  1  0.59482889  0.89001558  0.72801329  1
  Te  Te144  1  0.90954936  0.24318952  0.08581969  1
  Te  Te145  1  0.92584083  0.26938392  0.41567362  1
  Te  Te146  1  0.89808838  0.27177161  0.74994306  1
  Te  Te147  1  0.92535254  0.57923833  0.08893139  1
  Te  Te148  1  0.89997431  0.58626496  0.45358374  1
  Te  Te149  1  0.88728932  0.54202792  0.70430896  1
  Te  Te150  1  0.91004483  0.92329559  0.06683238  1
  Te  Te151  1  0.89702734  0.90460302  0.40560127  1
  Te  Te152  1  0.87991233  0.88068655  0.72439391  1
  Te  Te153  1  0.24024092  0.11614414  0.26353905  1
  Te  Te154  1  0.23075728  0.08618157  0.58503651  1
  Te  Te155  1  0.26281577  0.07976030  0.92144020  1
  Te  Te156  1  0.23846951  0.44753878  0.26475171  1
  Te  Te157  1  0.25796720  0.40917018  0.56705399  1
  Te  Te158  1  0.30331829  0.42622203  0.90259438  1
  Te  Te159  1  0.23990086  0.74827390  0.24622793  1
  Te  Te160  1  0.25533186  0.75194173  0.57237412  1
  Te  Te161  1  0.25284078  0.75613752  0.91259108  1
  Te  Te162  1  0.57913262  0.06507290  0.24511544  1
  Te  Te163  1  0.60541921  0.07449553  0.59446749  1
  Te  Te164  1  0.57019827  0.07556253  0.91950248  1
  Te  Te165  1  0.55690832  0.40144601  0.23761486  1
  Te  Te166  1  0.59012307  0.44774147  0.57553408  1
  Te  Te167  1  0.60766388  0.41601489  0.90272309  1
  Te  Te168  1  0.63211623  0.78183875  0.26235662  1
  Te  Te169  1  0.58696500  0.72236232  0.53451462  1
  Te  Te170  1  0.57984611  0.76727198  0.89320262  1
  Te  Te171  1  0.91209693  0.06936077  0.23739788  1
  Te  Te172  1  0.90081240  0.08240878  0.58073705  1
  Te  Te173  1  0.90993068  0.10476663  0.90232185  1
  Te  Te174  1  0.90131324  0.41105935  0.24251557  1
  Te  Te175  1  0.90872479  0.45653998  0.54621712  1
  Te  Te176  1  0.92462437  0.43031904  0.92248670  1
  Te  Te177  1  0.91349202  0.71755679  0.26623214  1
  Te  Te178  1  0.87232875  0.73256610  0.54916622  1
  Te  Te179  1  0.89517951  0.72021301  0.87115857  1
