# generated using pymatgen
data_In2Te3
_symmetry_space_group_name_H-M   'P 1'
_cell_length_a   18.93929736
_cell_length_b   18.93408133
_cell_length_c   18.93481379
_cell_angle_alpha   90.09006847
_cell_angle_beta   90.02534792
_cell_angle_gamma   90.09710517
_symmetry_Int_Tables_number   1
_chemical_formula_structural   In2Te3
_chemical_formula_sum   'In72 Te108'
_cell_volume   6789.97126429
_cell_formula_units_Z   36
loop_
 _symmetry_equiv_pos_site_id
 _symmetry_equiv_pos_as_xyz
  1  'x, y, z'
loop_
 _atom_site_type_symbol
 _atom_site_label
 _atom_site_symmetry_multiplicity
 _atom_site_fract_x
 _atom_site_fract_y
 _atom_site_fract_z
 _atom_site_occupancy
  In  In0  1  0.03521416  0.85718266  0.19323799  1
  In  In1  1  0.85446330  0.47653308  -0.01251463  1
  In  In2  1  0.30027466  0.49691960  0.15105190  1
  In  In3  1  0.16489056  0.30117627  0.84671283  1
  In  In4  1  0.50186305  0.83583536  0.32526292  1
  In  In5  1  0.82580318  0.65867605  0.47323856  1
  In  In6  1  0.31185521  0.33159977  0.66218032  1
  In  In7  1  0.85292181  -0.01258505  0.51700916  1
  In  In8  1  0.47814783  0.46698367  0.32063048  1
  In  In9  1  0.02193541  0.03233059  0.00448076  1
  In  In10  1  0.48896301  0.17173574  -0.00644607  1
  In  In11  1  0.67371278  0.83708911  0.84129000  1
  In  In12  1  0.83980028  0.31304758  0.16908796  1
  In  In13  1  0.29912135  0.01895320  0.33704170  1
  In  In14  1  0.66240895  0.17026842  0.84032179  1
  In  In15  1  0.15271994  0.17629206  0.32116783  1
  In  In16  1  0.84751183  0.17890199  -0.00709894  1
  In  In17  1  -0.01682045  0.64622653  -0.00902563  1
  In  In18  1  0.01284438  0.17330742  0.49044294  1
  In  In19  1  0.18116653  0.83138305  -0.00296006  1
  In  In20  1  0.01916962  0.49855196  0.82352361  1
  In  In21  1  0.68136466  -0.01229310  0.67425383  1
  In  In22  1  0.83456909  0.20006831  0.68108496  1
  In  In23  1  0.31182718  0.04321044  0.69003486  1
  In  In24  1  0.83615945  0.34815760  0.51818443  1
  In  In25  1  0.32958153  0.66676978  0.64037088  1
  In  In26  1  0.49580305  0.48793556  -0.00114818  1
  In  In27  1  0.68944121  0.81618654  0.16643659  1
  In  In28  1  0.33729637  0.82739214  0.16155703  1
  In  In29  1  0.83796908  0.81787905  0.33368541  1
  In  In30  1  0.48739553  0.17069339  0.68324815  1
  In  In31  1  0.48814443  0.65062769  0.49640370  1
  In  In32  1  0.85376537  0.82398743  0.66542196  1
  In  In33  1  0.01285340  0.82322668  0.47933434  1
  In  In34  1  0.63290336  0.16544791  0.47793432  1
  In  In35  1  0.82740740  0.58475808  0.81423456  1
  In  In36  1  0.47136026  -0.00559801  0.50727031  1
  In  In37  1  0.17596187  0.83713393  0.65460270  1
  In  In38  1  0.00462750  0.17498421  0.16272048  1
  In  In39  1  0.17294144  0.66921176  0.15689425  1
  In  In40  1  0.66357414  0.64576398  0.66711302  1
  In  In41  1  0.02454963  0.01623055  0.69240912  1
  In  In42  1  0.49194212  0.51617559  0.67058236  1
  In  In43  1  0.30087869  0.02604521  -0.02050115  1
  In  In44  1  0.83792472  0.49197871  0.32128235  1
  In  In45  1  0.14882806  0.47118929  0.33945191  1
  In  In46  1  0.32459082  0.48525787  0.83967839  1
  In  In47  1  0.13713269  0.66331041  0.81341840  1
  In  In48  1  0.31286915  0.85039422  0.48608562  1
  In  In49  1  0.34676071  0.84716373  0.84047152  1
  In  In50  1  0.49606613  0.67743717  0.14501152  1
  In  In51  1  0.49327522  0.02023324  0.15190569  1
  In  In52  1  0.69353830  0.36425893  0.67901602  1
  In  In53  1  0.51797707  0.66973699  0.84711468  1
  In  In54  1  0.84256290  0.15276859  0.33007746  1
  In  In55  1  0.67430921  0.16043842  0.15826184  1
  In  In56  1  0.15434356  0.33203607  0.50787103  1
  In  In57  1  -0.00407915  0.85685480  0.85429339  1
  In  In58  1  -0.00721761  0.65424256  0.31877030  1
  In  In59  1  0.32546766  0.16501474  0.51573914  1
  In  In60  1  0.52586204  0.82919041  0.67287425  1
  In  In61  1  0.66309875  0.50605186  0.49374606  1
  In  In62  1  0.66274418  0.51274907  0.19186264  1
  In  In63  1  0.01348760  0.31713524  0.67193474  1
  In  In64  1  0.30775808  0.63895513  0.33186004  1
  In  In65  1  0.44159837  0.24756878  0.34098555  1
  In  In66  1  0.66457710  -0.01549546  0.32615319  1
  In  In67  1  0.85075225  0.83513424  0.01028229  1
  In  In68  1  0.14755245  0.35546691  0.15137839  1
  In  In69  1  0.68815779  -0.01196323  0.02749344  1
  In  In70  1  0.32276809  0.30689340  0.00530202  1
  In  In71  1  0.65270803  0.33533177  0.00917420  1
  Te  Te72  1  0.11721603  0.10372464  0.09457495  1
  Te  Te73  1  0.06718845  0.07752681  0.39250973  1
  Te  Te74  1  0.11463642  0.09693574  0.78050301  1
  Te  Te75  1  0.07683062  0.47138909  0.09503222  1
  Te  Te76  1  0.05369171  0.40899925  0.43277720  1
  Te  Te77  1  0.11301197  0.40424784  0.74872422  1
  Te  Te78  1  0.07420920  0.75114357  0.07101374  1
  Te  Te79  1  0.09079006  0.73427636  0.39290763  1
  Te  Te80  1  0.06526376  0.77965932  0.74173522  1
  Te  Te81  1  0.38828144  0.10387224  0.08442246  1
  Te  Te82  1  0.42019131  0.09673061  0.41019003  1
  Te  Te83  1  0.42733496  0.07312588  0.77346015  1
  Te  Te84  1  0.40980114  0.40535438  0.09377944  1
  Te  Te85  1  0.41796937  0.37427960  0.41854652  1
  Te  Te86  1  0.41534241  0.40976662  0.74621401  1
  Te  Te87  1  0.41235689  0.75893529  0.05627518  1
  Te  Te88  1  0.40728035  0.74981388  0.41129652  1
  Te  Te89  1  0.42596745  0.73425106  0.74120980  1
  Te  Te90  1  0.78655971  0.08267361  0.09465552  1
  Te  Te91  1  0.74947025  0.06980263  0.43079494  1
  Te  Te92  1  0.75924665  0.08914050  0.75594648  1
  Te  Te93  1  0.74982693  0.41343248  0.09678406  1
  Te  Te94  1  0.74628950  0.40982270  0.41260334  1
  Te  Te95  1  0.76506020  0.44898550  0.77288003  1
  Te  Te96  1  0.76214768  0.73533005  0.06934792  1
  Te  Te97  1  0.73217592  0.74845254  0.40670839  1
  Te  Te98  1  0.74940291  0.74527655  0.74590897  1
  Te  Te99  1  0.06326595  0.28167312  0.25602417  1
  Te  Te100  1  0.10562351  0.22004602  0.59996440  1
  Te  Te101  1  0.07202145  0.19233173  0.89534289  1
  Te  Te102  1  0.09000183  0.56441779  0.23146023  1
  Te  Te103  1  0.09480533  0.60505723  0.68072034  1
  Te  Te104  1  0.10002441  0.57224459  0.93046476  1
  Te  Te105  1  0.12456700  0.94335315  0.27081458  1
  Te  Te106  1  0.07313545  0.92457274  0.58286670  1
  Te  Te107  1  0.10591938  0.93705943  0.91746829  1
  Te  Te108  1  0.37554894  0.29593578  0.21763416  1
  Te  Te109  1  0.42310040  0.26047179  0.58178546  1
  Te  Te110  1  0.42686724  0.27201772  0.90535744  1
  Te  Te111  1  0.41003574  0.58371248  0.23446282  1
  Te  Te112  1  0.39356395  0.55238427  0.56031563  1
  Te  Te113  1  0.41181524  0.58377251  0.91635870  1
  Te  Te114  1  0.40879339  0.93450693  0.25746664  1
  Te  Te115  1  0.40583786  0.89428382  0.59985531  1
  Te  Te116  1  0.40938878  0.93521436  0.93833362  1
  Te  Te117  1  0.74166218  0.24510065  0.26473973  1
  Te  Te118  1  0.73218938  0.24221237  0.57501365  1
  Te  Te119  1  0.75171367  0.26742784  0.91489018  1
  Te  Te120  1  0.75963358  0.59938339  0.25929160  1
  Te  Te121  1  0.76561317  0.57138290  0.58426969  1
  Te  Te122  1  0.74685741  0.56182654  0.93299342  1
  Te  Te123  1  0.77025745  0.92161058  0.24059107  1
  Te  Te124  1  0.74978830  0.89330342  0.57705948  1
  Te  Te125  1  0.77082367  0.92639263  0.91686198  1
  Te  Te126  1  0.20348522  0.24340668  0.07083500  1
  Te  Te127  1  0.24536899  0.24980387  0.41998323  1
  Te  Te128  1  0.26713597  0.22887592  0.76161560  1
  Te  Te129  1  0.27424800  0.61324066  0.06628452  1
  Te  Te130  1  0.23555080  0.55442613  0.42569608  1
  Te  Te131  1  0.25593916  0.58214881  0.74292551  1
  Te  Te132  1  0.24878682  0.92807564  0.09143012  1
  Te  Te133  1  0.20859777  0.91793853  0.40104640  1
  Te  Te134  1  0.24505913  0.92461561  0.75849070  1
  Te  Te135  1  0.56691331  0.24911325  0.10001896  1
  Te  Te136  1  0.57334858  0.28018856  0.40891681  1
  Te  Te137  1  0.59377480  0.26124095  0.74163642  1
  Te  Te138  1  0.58890228  0.58041475  0.07535659  1
  Te  Te139  1  0.56790772  0.57129415  0.39643047  1
  Te  Te140  1  0.59475137  0.56228128  0.77289079  1
  Te  Te141  1  0.58221379  0.90975245  0.10231950  1
  Te  Te142  1  0.57740446  0.91470015  0.43090978  1
  Te  Te143  1  0.57722266  0.93245276  0.77069274  1
  Te  Te144  1  0.94309324  0.27283518  0.06343900  1
  Te  Te145  1  0.90969372  0.25623292  0.41887720  1
  Te  Te146  1  0.91820870  0.27345487  0.77855056  1
  Te  Te147  1  0.93250967  0.54961560  0.09325366  1
  Te  Te148  1  0.93099804  0.56248267  0.42192009  1
  Te  Te149  1  0.94565293  0.58795150  0.72480550  1
  Te  Te150  1  0.94859821  0.92398002  0.08567836  1
  Te  Te151  1  0.92632743  0.92189952  0.40262186  1
  Te  Te152  1  0.91115246  0.93445735  0.75286990  1
  Te  Te153  1  0.26413561  0.12220818  0.24047903  1
  Te  Te154  1  0.23721837  0.05915611  0.56636735  1
  Te  Te155  1  0.23264061  0.12205499  0.88592315  1
  Te  Te156  1  0.26193828  0.39257605  0.25813361  1
  Te  Te157  1  0.23112200  0.42909593  0.58890551  1
  Te  Te158  1  0.23476511  0.40834307  0.93336025  1
  Te  Te159  1  0.24491360  0.75619162  0.25938737  1
  Te  Te160  1  0.23000855  0.73899235  0.55143173  1
  Te  Te161  1  0.24620538  0.74678924  0.89047096  1
  Te  Te162  1  0.58008248  0.08914366  0.25625798  1
  Te  Te163  1  0.57991313  0.07414225  0.59136735  1
  Te  Te164  1  0.59770223  0.07875255  0.94227049  1
  Te  Te165  1  0.58171952  0.40128753  0.23982265  1
  Te  Te166  1  0.58356420  0.42223829  0.59107450  1
  Te  Te167  1  0.55917272  0.38951578  0.90795773  1
  Te  Te168  1  0.58800741  0.73793095  0.25072820  1
  Te  Te169  1  0.58940763  0.73651352  0.57049182  1
  Te  Te170  1  0.58977173  0.76218123  0.93419199  1
  Te  Te171  1  0.93122707  0.07621732  0.24369750  1
  Te  Te172  1  0.92011030  0.09814470  0.59738727  1
  Te  Te173  1  0.92946904  0.09261838  0.90429915  1
  Te  Te174  1  0.92811920  0.40105796  0.24752685  1
  Te  Te175  1  0.93359283  0.41918884  0.60055747  1
  Te  Te176  1  0.94133064  0.39590787  0.89780405  1
  Te  Te177  1  0.92613957  0.75432455  0.22741764  1
  Te  Te178  1  0.92371359  0.73555205  0.56518529  1
  Te  Te179  1  0.90840105  0.74061302  0.89920635  1
