# generated using pymatgen
data_In2Te3
_symmetry_space_group_name_H-M   'P 1'
_cell_length_a   18.90884482
_cell_length_b   18.91280078
_cell_length_c   18.90384555
_cell_angle_alpha   90.00246951
_cell_angle_beta   89.96775636
_cell_angle_gamma   90.04840341
_symmetry_Int_Tables_number   1
_chemical_formula_structural   In2Te3
_chemical_formula_sum   'In72 Te108'
_cell_volume   6760.37491413
_cell_formula_units_Z   36
loop_
 _symmetry_equiv_pos_site_id
 _symmetry_equiv_pos_as_xyz
  1  'x, y, z'
loop_
 _atom_site_type_symbol
 _atom_site_label
 _atom_site_symmetry_multiplicity
 _atom_site_fract_x
 _atom_site_fract_y
 _atom_site_fract_z
 _atom_site_occupancy
  In  In0  1  0.28680035  0.33705980  0.00461569  1
  In  In1  1  0.66708278  0.65281962  0.32563569  1
  In  In2  1  0.32283274  0.65114552  0.67214207  1
  In  In3  1  0.31117102  0.81411235  0.82758379  1
  In  In4  1  0.50160407  0.83689911  0.34435013  1
  In  In5  1  0.30457442  0.84403949  0.15719231  1
  In  In6  1  0.67272816  0.85696806  0.48699563  1
  In  In7  1  0.50442045  0.16422422  0.64435136  1
  In  In8  1  0.85128116  0.84820130  0.00784482  1
  In  In9  1  0.15475701  0.84618747  0.32938999  1
  In  In10  1  0.82029167  0.31504515  0.48247827  1
  In  In11  1  0.30717084  0.15272830  0.84296285  1
  In  In12  1  0.67387636  0.69786630  0.66267930  1
  In  In13  1  0.15048992  0.33169969  0.84540893  1
  In  In14  1  0.71056081  0.87627397  0.18182429  1
  In  In15  1  0.84562763  0.29935701  0.81717267  1
  In  In16  1  0.32251795  0.48112363  0.85836638  1
  In  In17  1  0.87083787  0.15610133  0.03508342  1
  In  In18  1  0.65323079  0.50836422  0.16689721  1
  In  In19  1  0.32042993  -0.01607628  0.69637379  1
  In  In20  1  0.65624848  0.51191455  0.49494096  1
  In  In21  1  0.86607046  0.48202097  0.29282190  1
  In  In22  1  0.50056353  0.63993557  0.83844096  1
  In  In23  1  -0.01653152  0.00875803  0.67237286  1
  In  In24  1  0.12932485  0.66598505  0.86583641  1
  In  In25  1  -0.00954714  0.49411576  0.46340801  1
  In  In26  1  0.33397888  0.32965356  0.33107514  1
  In  In27  1  0.17227725  0.67602546  0.46756544  1
  In  In28  1  0.70280434  0.12977477  0.47988768  1
  In  In29  1  0.85476160  0.00750810  0.86825337  1
  In  In30  1  0.50974281  0.32589810  0.18020984  1
  In  In31  1  0.35456529  0.82353037  0.50551029  1
  In  In32  1  0.83258682  0.83913075  0.66518257  1
  In  In33  1  0.93849319  0.71910579  0.12533538  1
  In  In34  1  0.30905715  0.50916118  0.50362582  1
  In  In35  1  0.30365066  0.52057017  0.15962242  1
  In  In36  1  -0.02168130  0.15036995  0.46765891  1
  In  In37  1  0.67828776  0.83387368  0.84071043  1
  In  In38  1  0.14295626  0.48822683  0.68034818  1
  In  In39  1  0.66946949  0.29309876  0.65050616  1
  In  In40  1  0.52588410  0.84506438  0.03079422  1
  In  In41  1  0.49072260  0.16853650  -0.02226114  1
  In  In42  1  0.16066162  0.16985412  0.67093272  1
  In  In43  1  -0.00447902  -0.01203807  0.32963619  1
  In  In44  1  0.50099807  0.36549034  0.83910554  1
  In  In45  1  0.01477461  0.66842266  0.66036465  1
  In  In46  1  0.18256518  0.17872467  0.30882498  1
  In  In47  1  0.84727359  0.64891457  0.47186345  1
  In  In48  1  0.12826686  0.33137876  0.15410984  1
  In  In49  1  -0.00235644  0.35208020  0.00047907  1
  In  In50  1  0.15207729  0.00587550  0.53011524  1
  In  In51  1  0.51235246  0.52661569  0.67346568  1
  In  In52  1  0.49950400  0.32453739  0.48538205  1
  In  In53  1  0.49444003  0.50595753  0.03152614  1
  In  In54  1  0.33248702  0.18098110  0.16495687  1
  In  In55  1  0.67654037  0.34050360  0.00441382  1
  In  In56  1  0.72406095  0.66103137  -0.01556230  1
  In  In57  1  0.12892593  0.01834153  0.14382095  1
  In  In58  1  0.67503486  0.13962525  0.82201474  1
  In  In59  1  0.16324866  0.86574365  0.67281588  1
  In  In60  1  0.00431295  0.49495032  0.84278016  1
  In  In61  1  0.68102149  0.32939829  0.33494667  1
  In  In62  1  0.83884238  0.47620326  0.67115356  1
  In  In63  1  0.12625058  0.66010652  0.18537626  1
  In  In64  1  0.50873209  -0.03184508  0.82094764  1
  In  In65  1  0.34729704  0.00118019  0.35068337  1
  In  In66  1  0.14591954  0.33582026  0.49040932  1
  In  In67  1  0.48860240  0.67894452  0.18074783  1
  In  In68  1  0.71258506  0.12345470  0.21508644  1
  In  In69  1  0.51315224  -0.00645931  0.48862887  1
  In  In70  1  0.32651205  0.00400544  -0.00185927  1
  In  In71  1  0.53874275  0.83300095  0.67716921  1
  Te  Te72  1  0.01041076  0.09133371  0.08959949  1
  Te  Te73  1  0.10600561  0.07405422  0.40217572  1
  Te  Te74  1  0.08585913  0.07500995  0.75438369  1
  Te  Te75  1  0.06155623  0.45384947  0.09537893  1
  Te  Te76  1  0.09195922  0.42207052  0.38013830  1
  Te  Te77  1  0.04379160  0.38271892  0.73638448  1
  Te  Te78  1  0.07555590  0.76577914  0.08741037  1
  Te  Te79  1  0.06776526  0.76361985  0.41540958  1
  Te  Te80  1  0.08383221  0.76178747  0.75741613  1
  Te  Te81  1  0.42095289  0.08570417  0.08503421  1
  Te  Te82  1  0.42383467  0.09499786  0.43241066  1
  Te  Te83  1  0.42404084  0.08370923  0.76211759  1
  Te  Te84  1  0.40970788  0.39156305  0.08532459  1
  Te  Te85  1  0.41028388  0.42691420  0.41844986  1
  Te  Te86  1  0.40808071  0.43525331  0.74071055  1
  Te  Te87  1  0.40907030  0.76015829  0.08026632  1
  Te  Te88  1  0.40401015  0.73980768  0.39674019  1
  Te  Te89  1  0.42653450  0.74441208  0.74441595  1
  Te  Te90  1  0.75337291  0.07976699  0.07974340  1
  Te  Te91  1  0.78781879  0.09192612  0.36222726  1
  Te  Te92  1  0.79081918  0.08058494  0.75523793  1
  Te  Te93  1  0.75319759  0.43745222  0.08510977  1
  Te  Te94  1  0.76353333  0.44467341  0.40937642  1
  Te  Te95  1  0.73894999  0.38995669  0.74541357  1
  Te  Te96  1  0.75985707  0.75794289  0.09665345  1
  Te  Te97  1  0.75076063  0.74844850  0.40976553  1
  Te  Te98  1  0.77385923  0.74101551  0.77006818  1
  Te  Te99  1  0.06190684  0.23748092  0.24876701  1
  Te  Te100  1  0.06777484  0.22986150  0.56692764  1
  Te  Te101  1  0.06141498  0.24198062  0.92263915  1
  Te  Te102  1  0.09513512  0.55868330  0.28915595  1
  Te  Te103  1  0.08601733  0.57166158  0.56331328  1
  Te  Te104  1  0.02151804  0.60111793  0.95082940  1
  Te  Te105  1  0.06377534  0.90153367  0.22012637  1
  Te  Te106  1  0.05375824  0.90278688  0.57663511  1
  Te  Te107  1  0.00359082  0.87331790  0.98201752  1
  Te  Te108  1  0.43280286  0.22995176  0.26944764  1
  Te  Te109  1  0.41476924  0.26395503  0.58853277  1
  Te  Te110  1  0.39588539  0.26853121  0.91241042  1
  Te  Te111  1  0.41903861  0.56431672  0.23942285  1
  Te  Te112  1  0.42031675  0.59421694  0.57228527  1
  Te  Te113  1  0.39950138  0.58394948  0.93829653  1
  Te  Te114  1  0.41085056  0.91158247  0.24675427  1
  Te  Te115  1  0.42584658  0.91902838  0.60317073  1
  Te  Te116  1  0.41181804  0.90277406  0.91869364  1
  Te  Te117  1  0.75232144  0.26623434  0.22456357  1
  Te  Te118  1  0.77903644  0.21275235  0.58758038  1
  Te  Te119  1  0.74691674  0.23660302  0.91654156  1
  Te  Te120  1  0.76814030  0.58506310  0.23515255  1
  Te  Te121  1  0.75657721  0.58596836  0.58597018  1
  Te  Te122  1  0.79714794  0.54855516  0.93360961  1
  Te  Te123  1  0.80369717  0.95080113  0.27521456  1
  Te  Te124  1  0.77787060  0.93092935  0.56083233  1
  Te  Te125  1  0.74086115  0.92916985  0.93744730  1
  Te  Te126  1  0.21614537  0.22599967  0.07851934  1
  Te  Te127  1  0.25192527  0.24431298  0.42677267  1
  Te  Te128  1  0.25047681  0.26251814  0.75411575  1
  Te  Te129  1  0.22004469  0.60750516  0.07955904  1
  Te  Te130  1  0.23635751  0.56918102  0.38791965  1
  Te  Te131  1  0.23003402  0.57950114  0.76850577  1
  Te  Te132  1  0.21469496  0.92040481  0.06160929  1
  Te  Te133  1  0.25126620  0.91431783  0.44007009  1
  Te  Te134  1  0.21969169  0.93333062  0.79801599  1
  Te  Te135  1  0.58220488  0.24279209  0.07570180  1
  Te  Te136  1  0.60390275  0.23290195  0.42275776  1
  Te  Te137  1  0.57127794  0.25114984  0.76706331  1
  Te  Te138  1  0.59162754  0.61642938  0.07379597  1
  Te  Te139  1  0.56611609  0.58865351  0.41000851  1
  Te  Te140  1  0.62023436  0.58850367  0.76057250  1
  Te  Te141  1  0.58956832  0.94383350  0.12241847  1
  Te  Te142  1  0.60943896  0.95251153  0.37505147  1
  Te  Te143  1  0.63229016  0.93508418  0.73556736  1
  Te  Te144  1  0.89921936  0.29095802  0.09991677  1
  Te  Te145  1  0.92215170  0.26241271  0.39105376  1
  Te  Te146  1  0.95671737  0.25759218  0.73321733  1
  Te  Te147  1  0.96035885  0.57325095  0.10502006  1
  Te  Te148  1  0.94302203  0.60157197  0.36174564  1
  Te  Te149  1  0.92297770  0.58010313  0.74415130  1
  Te  Te150  1  0.92351910  0.96015813  0.08229745  1
  Te  Te151  1  0.90917639  0.87761013  0.38229079  1
  Te  Te152  1  0.92023501  0.90734397  0.76841201  1
  Te  Te153  1  0.25294707  0.06147041  0.23589821  1
  Te  Te154  1  0.26558254  0.08273643  0.59533900  1
  Te  Te155  1  0.21975555  0.09195788  0.94307962  1
  Te  Te156  1  0.24501470  0.39832008  0.23021510  1
  Te  Te157  1  0.23670486  0.40843084  0.59158376  1
  Te  Te158  1  0.20036316  0.44234488  0.93900140  1
  Te  Te159  1  0.24136108  0.74761718  0.25357574  1
  Te  Te160  1  0.23907074  0.75173932  0.59448555  1
  Te  Te161  1  0.23314753  0.74697009  0.93175678  1
  Te  Te162  1  0.59009976  0.05255651  0.25722567  1
  Te  Te163  1  0.60482613  0.07019121  0.58555747  1
  Te  Te164  1  0.58175252  0.06325741  0.91698430  1
  Te  Te165  1  0.57968395  0.42433670  0.27094270  1
  Te  Te166  1  0.58677317  0.41401327  0.59148927  1
  Te  Te167  1  0.59077317  0.44532168  0.92847224  1
  Te  Te168  1  0.59925247  0.76689337  0.24470720  1
  Te  Te169  1  0.58115042  0.75356272  0.55553246  1
  Te  Te170  1  0.57101839  0.75606486  0.91452292  1
  Te  Te171  1  0.90185466  0.07865947  0.25595620  1
  Te  Te172  1  0.90760711  0.04862068  0.54934626  1
  Te  Te173  1  0.94503890  0.11966734  0.90906145  1
  Te  Te174  1  0.94222898  0.37587020  0.22463690  1
  Te  Te175  1  0.91783325  0.40477064  0.56343056  1
  Te  Te176  1  0.88642600  0.42167572  0.91161782  1
  Te  Te177  1  0.92597369  0.78996697  0.25489883  1
  Te  Te178  1  0.91138879  0.74096976  0.57582496  1
  Te  Te179  1  0.92966793  0.74089968  0.93616480  1
