# generated using pymatgen
data_In2Te3
_symmetry_space_group_name_H-M   'P 1'
_cell_length_a   18.97124623
_cell_length_b   18.98446050
_cell_length_c   18.95705315
_cell_angle_alpha   90.00532092
_cell_angle_beta   90.06103112
_cell_angle_gamma   89.93696266
_symmetry_Int_Tables_number   1
_chemical_formula_structural   In2Te3
_chemical_formula_sum   'In72 Te108'
_cell_volume   6827.54289768
_cell_formula_units_Z   36
loop_
 _symmetry_equiv_pos_site_id
 _symmetry_equiv_pos_as_xyz
  1  'x, y, z'
loop_
 _atom_site_type_symbol
 _atom_site_label
 _atom_site_symmetry_multiplicity
 _atom_site_fract_x
 _atom_site_fract_y
 _atom_site_fract_z
 _atom_site_occupancy
  In  In0  1  0.01409463  0.83935639  0.83274931  1
  In  In1  1  0.84569386  0.49034783  0.32704508  1
  In  In2  1  0.82805160  -0.01093507  0.16862203  1
  In  In3  1  0.67616614  0.69254010  0.33580685  1
  In  In4  1  -0.01527194  0.67203939  0.35646076  1
  In  In5  1  0.36890433  0.78506041  0.81663267  1
  In  In6  1  0.33447059  0.84852745  0.49213624  1
  In  In7  1  0.18555377  0.66182512  0.16448136  1
  In  In8  1  0.32104695  -0.01648322  0.26878691  1
  In  In9  1  0.33001151  0.67110265  0.35783717  1
  In  In10  1  0.14068485  0.85318871  0.31890164  1
  In  In11  1  0.49351757  0.82684962  0.01062070  1
  In  In12  1  0.51389563  0.51607069  -0.01754604  1
  In  In13  1  0.50984000  0.33638109  0.14692411  1
  In  In14  1  0.65714788  0.82597450  0.50324011  1
  In  In15  1  0.65723946  0.51026051  0.80315234  1
  In  In16  1  -0.01291139  0.00476308  0.33743457  1
  In  In17  1  0.33872399  0.49096328  0.81881723  1
  In  In18  1  0.00768547  0.50307866  0.15004211  1
  In  In19  1  0.01826316  0.68064526  -0.01828189  1
  In  In20  1  0.15938321  0.66744535  0.51391846  1
  In  In21  1  0.16958965  0.14215859  0.03271530  1
  In  In22  1  0.13342147  0.48058005  0.34934093  1
  In  In23  1  0.66041555  0.83275312  0.82675041  1
  In  In24  1  0.33026182  0.01107378  0.67764740  1
  In  In25  1  0.14785516  0.19914364  0.65883376  1
  In  In26  1  0.02482388  0.33458928  0.33690318  1
  In  In27  1  0.65673785  0.00282380  0.68055969  1
  In  In28  1  0.84698493  0.16929623  0.00405655  1
  In  In29  1  0.67118949  0.49043137  0.13385327  1
  In  In30  1  0.51080785  -0.01745645  0.50307840  1
  In  In31  1  0.67758917  0.32679187  -0.00996788  1
  In  In32  1  0.33917586  0.18224255  0.49528804  1
  In  In33  1  -0.07107350  0.63499837  0.65280515  1
  In  In34  1  0.66477502  0.15212869  0.84779939  1
  In  In35  1  0.49532260  0.15223498  0.34518053  1
  In  In36  1  0.82423946  0.33600194  0.51610903  1
  In  In37  1  0.66862570  0.68162891  0.02082775  1
  In  In38  1  0.65400885  0.85623818  0.17082853  1
  In  In39  1  0.21509195  0.45671722  0.65105397  1
  In  In40  1  0.47388362  0.50237006  0.64931470  1
  In  In41  1  0.85827098  0.47997382  -0.02586494  1
  In  In42  1  0.15714136  0.84851489  0.64619353  1
  In  In43  1  0.84269836  0.03194917  0.51167027  1
  In  In44  1  0.49559406  0.48872086  0.35375578  1
  In  In45  1  0.16970519  0.01635514  0.84153878  1
  In  In46  1  0.49908018  0.14542546  -0.01153958  1
  In  In47  1  0.82846238  0.66593156  0.84365545  1
  In  In48  1  0.82306285  0.15920240  0.34286074  1
  In  In49  1  0.34297897  0.16465735  0.16211065  1
  In  In50  1  0.65606890  0.55559793  0.56635052  1
  In  In51  1  0.34290525  0.51398369  0.15738904  1
  In  In52  1  0.82268008  0.00562429  0.83715452  1
  In  In53  1  0.67399139  0.32798183  0.66684146  1
  In  In54  1  0.66756672  0.13101068  0.19053478  1
  In  In55  1  0.00612467  0.31483631  -0.01325073  1
  In  In56  1  0.17194694  0.64741957  0.82900905  1
  In  In57  1  -0.01067570  0.85568797  0.17178454  1
  In  In58  1  0.66246625  0.30635840  0.34913711  1
  In  In59  1  0.83632572  0.68808508  0.17234397  1
  In  In60  1  -0.00597068  0.47458079  0.50959061  1
  In  In61  1  0.33770508  0.68119712  0.00331030  1
  In  In62  1  0.49584261  0.67237073  0.50428858  1
  In  In63  1  0.16127393  0.32223903  0.15923231  1
  In  In64  1  0.33318678  0.17220127  0.85514041  1
  In  In65  1  0.19740751  0.86170915  0.02775280  1
  In  In66  1  0.13022829  0.01193304  0.50378510  1
  In  In67  1  0.83163875  0.83075066  0.68398442  1
  In  In68  1  0.48581006  0.16769535  0.67728312  1
  In  In69  1  0.16816754  0.33936362  0.82780165  1
  In  In70  1  -0.00798189  0.18438437  0.80165245  1
  In  In71  1  0.31344314  0.33635568  0.33679415  1
  Te  Te72  1  0.07772902  0.04617769  0.09206176  1
  Te  Te73  1  0.05824159  0.10885837  0.41769244  1
  Te  Te74  1  0.08425491  0.08174952  0.73625004  1
  Te  Te75  1  0.09356657  0.41804796  0.06262348  1
  Te  Te76  1  0.10607842  0.38503646  0.46205392  1
  Te  Te77  1  0.09633369  0.40192548  0.71542404  1
  Te  Te78  1  0.09007977  0.76120503  0.09275937  1
  Te  Te79  1  0.08000664  0.76468967  0.42780573  1
  Te  Te80  1  0.09378365  0.74760247  0.74368264  1
  Te  Te81  1  0.43593033  0.07178893  0.09828352  1
  Te  Te82  1  0.40385880  0.06295242  0.42750611  1
  Te  Te83  1  0.42305265  0.07442265  0.77823440  1
  Te  Te84  1  0.42085464  0.42469251  0.06311103  1
  Te  Te85  1  0.38987192  0.42103025  0.43445271  1
  Te  Te86  1  0.42607195  0.40107682  0.74369096  1
  Te  Te87  1  0.40874676  0.75311013  0.11149508  1
  Te  Te88  1  0.43255125  0.77186670  0.40602008  1
  Te  Te89  1  0.45841896  0.72151521  0.72104173  1
  Te  Te90  1  0.74770288  0.07780268  0.07340934  1
  Te  Te91  1  0.73128043  0.10331896  0.44306087  1
  Te  Te92  1  0.75749043  0.10008212  0.73840937  1
  Te  Te93  1  0.77881052  0.40044779  0.07669974  1
  Te  Te94  1  0.74381396  0.41785180  0.41230177  1
  Te  Te95  1  0.75654790  0.41963509  0.74848411  1
  Te  Te96  1  0.76327037  0.78056162  0.08113501  1
  Te  Te97  1  0.75924563  0.73823660  0.44409931  1
  Te  Te98  1  0.73535212  0.72869834  0.74182970  1
  Te  Te99  1  0.08160782  0.23580099  0.24402243  1
  Te  Te100  1  0.05210475  0.21705240  0.54719338  1
  Te  Te101  1  0.10234350  0.22195293  0.91259853  1
  Te  Te102  1  0.07258206  0.59883035  0.25368972  1
  Te  Te103  1  0.06412971  0.58226628  0.59233744  1
  Te  Te104  1  0.06941697  0.56829930  0.90130028  1
  Te  Te105  1  0.09440255  0.96189564  0.22278385  1
  Te  Te106  1  0.04588983  0.91818703  0.57873850  1
  Te  Te107  1  0.09389774  0.92253836  0.93272337  1
  Te  Te108  1  0.42573799  0.26839007  0.25284086  1
  Te  Te109  1  0.41064704  0.26831498  0.59398392  1
  Te  Te110  1  0.42810227  0.25670195  0.92682776  1
  Te  Te111  1  0.41904994  0.58728462  0.26607062  1
  Te  Te112  1  0.39392056  0.57948345  0.55176841  1
  Te  Te113  1  0.41440586  0.59771708  0.90404430  1
  Te  Te114  1  0.41207357  0.88459773  0.21111018  1
  Te  Te115  1  0.41745476  0.91325428  0.60183780  1
  Te  Te116  1  0.40124859  0.88902651  0.91198130  1
  Te  Te117  1  0.74685014  0.25047529  0.23963467  1
  Te  Te118  1  0.72872449  0.23493000  0.56477063  1
  Te  Te119  1  0.77059009  0.24970180  0.89941166  1
  Te  Te120  1  0.75562238  0.57562308  0.23619981  1
  Te  Te121  1  0.78340136  0.58816306  0.62687495  1
  Te  Te122  1  0.74010077  0.57534797  0.93209228  1
  Te  Te123  1  0.74790881  0.91662279  0.26695688  1
  Te  Te124  1  0.75091088  0.92304293  0.59019252  1
  Te  Te125  1  0.75002060  0.90745810  0.91617236  1
  Te  Te126  1  0.26583522  0.25837236  0.07159376  1
  Te  Te127  1  0.23842546  0.22214421  0.39268079  1
  Te  Te128  1  0.26104869  0.24986107  0.74646072  1
  Te  Te129  1  0.24296602  0.57395788  0.05789175  1
  Te  Te130  1  0.23239633  0.57346701  0.42082115  1
  Te  Te131  1  0.25983104  0.58173303  0.72385250  1
  Te  Te132  1  0.28635618  0.93020516  0.12587813  1
  Te  Te133  1  0.23077885  0.92981516  0.41657837  1
  Te  Te134  1  0.24359606  0.91354435  0.75495707  1
  Te  Te135  1  0.60227892  0.23474336  0.08509984  1
  Te  Te136  1  0.55072523  0.25936381  0.42821508  1
  Te  Te137  1  0.58358102  0.24679215  0.76137441  1
  Te  Te138  1  0.56877926  0.59634817  0.09865769  1
  Te  Te139  1  0.59759733  0.58063207  0.42228725  1
  Te  Te140  1  0.55255486  0.59669744  0.74055008  1
  Te  Te141  1  0.58675287  0.93010590  0.06138659  1
  Te  Te142  1  0.59063310  0.91139102  0.40328288  1
  Te  Te143  1  0.56482506  0.91637529  0.75280061  1
  Te  Te144  1  0.94145102  0.23771549  0.09312005  1
  Te  Te145  1  0.90499679  0.26876786  0.40616153  1
  Te  Te146  1  0.92080343  0.24891510  0.68885642  1
  Te  Te147  1  0.91471812  0.59857976  0.07415464  1
  Te  Te148  1  0.90227441  0.57634926  0.43759220  1
  Te  Te149  1  0.93821505  0.58126251  0.79115871  1
  Te  Te150  1  0.92945969  0.94175809  0.07007581  1
  Te  Te151  1  0.89714851  0.92879922  0.42206079  1
  Te  Te152  1  0.92480046  0.93052759  0.75104808  1
  Te  Te153  1  0.24923369  0.11168388  0.26416247  1
  Te  Te154  1  0.24216243  0.09241309  0.58581916  1
  Te  Te155  1  0.26858824  0.06715594  0.94406232  1
  Te  Te156  1  0.23818705  0.43850964  0.24144167  1
  Te  Te157  1  0.29334126  0.37508332  0.55858338  1
  Te  Te158  1  0.25065108  0.42294147  0.91371268  1
  Te  Te159  1  0.24606636  0.75707385  0.26407584  1
  Te  Te160  1  0.26135017  0.75398285  0.58550069  1
  Te  Te161  1  0.23738147  0.75646459  0.91598586  1
  Te  Te162  1  0.56862418  0.05413379  0.26480543  1
  Te  Te163  1  0.57730847  0.09123259  0.58457211  1
  Te  Te164  1  0.59240888  0.04951448  0.92473570  1
  Te  Te165  1  0.58919329  0.42347051  0.24469618  1
  Te  Te166  1  0.58896573  0.42378492  0.57996009  1
  Te  Te167  1  0.58930566  0.41291753  0.90235082  1
  Te  Te168  1  0.58451435  0.74408153  0.23710775  1
  Te  Te169  1  0.56770862  0.75902085  0.60229943  1
  Te  Te170  1  0.57824212  0.73879891  0.91650580  1
  Te  Te171  1  0.91176425  0.09397072  0.24053164  1
  Te  Te172  1  0.92926642  0.13061921  0.58548853  1
  Te  Te173  1  0.93038799  0.08987254  0.90438461  1
  Te  Te174  1  0.92998687  0.40641454  0.23556749  1
  Te  Te175  1  0.91764952  0.40049890  0.61403814  1
  Te  Te176  1  0.92771126  0.38826664  0.88544684  1
  Te  Te177  1  0.90922747  0.77416149  0.27301052  1
  Te  Te178  1  0.93037262  0.76888058  0.59405134  1
  Te  Te179  1  0.91175085  0.76830658  0.92034593  1
