# generated using pymatgen
data_In2Te3
_symmetry_space_group_name_H-M   'P 1'
_cell_length_a   18.76962731
_cell_length_b   18.77504854
_cell_length_c   18.77864252
_cell_angle_alpha   90.02840715
_cell_angle_beta   89.99976807
_cell_angle_gamma   90.01126475
_symmetry_Int_Tables_number   1
_chemical_formula_structural   In2Te3
_chemical_formula_sum   'In72 Te108'
_cell_volume   6617.60514613
_cell_formula_units_Z   36
loop_
 _symmetry_equiv_pos_site_id
 _symmetry_equiv_pos_as_xyz
  1  'x, y, z'
loop_
 _atom_site_type_symbol
 _atom_site_label
 _atom_site_symmetry_multiplicity
 _atom_site_fract_x
 _atom_site_fract_y
 _atom_site_fract_z
 _atom_site_occupancy
  In  In0  1  0.00938730  -0.00555502  -0.00907839  1
  In  In1  1  -0.02752489  0.34373208  0.64258893  1
  In  In2  1  0.49203869  0.32855172  0.48380690  1
  In  In3  1  0.48975691  0.85315460  0.00543085  1
  In  In4  1  -0.00370151  0.67295884  0.01884394  1
  In  In5  1  -0.00146851  0.84379900  0.50103039  1
  In  In6  1  0.32638623  -0.00213299  0.32817962  1
  In  In7  1  0.85233997  0.64865481  0.48256215  1
  In  In8  1  0.66741522  0.83857498  0.15352645  1
  In  In9  1  0.33088833  0.14979414  0.53372429  1
  In  In10  1  0.83793699  0.50250928  0.02589528  1
  In  In11  1  0.46988532  0.85969525  0.68183633  1
  In  In12  1  0.02070843  0.17952330  0.48422578  1
  In  In13  1  0.15915661  -0.00266828  0.15819122  1
  In  In14  1  0.33373462  0.66727690  0.66005679  1
  In  In15  1  0.51739113  0.66928647  0.48106749  1
  In  In16  1  0.84188449  0.16858094  0.32933515  1
  In  In17  1  0.69370851  0.64052863  0.33861533  1
  In  In18  1  0.17153131  0.32855707  0.84668758  1
  In  In19  1  0.51084519  0.66035112  0.16604796  1
  In  In20  1  0.65691029  0.32317281  0.67006568  1
  In  In21  1  0.15640318  0.65013081  0.14928423  1
  In  In22  1  0.52289863  0.33909793  0.18368283  1
  In  In23  1  0.49048027  0.17828638  0.32807754  1
  In  In24  1  0.82415613  -0.00398675  0.82592317  1
  In  In25  1  0.50348742  0.49905949  0.66588843  1
  In  In26  1  0.15717767  0.50486943  0.32558582  1
  In  In27  1  0.68706895  0.66817740  0.65339091  1
  In  In28  1  0.66991352  0.17982774  0.16564486  1
  In  In29  1  0.33613449  0.34267385  0.31594598  1
  In  In30  1  0.83076839  0.17169818  0.66530734  1
  In  In31  1  0.02497136  0.85305786  0.82029233  1
  In  In32  1  0.83427430  -0.01920791  0.48914958  1
  In  In33  1  0.84712406  0.18565791  0.00419315  1
  In  In34  1  0.14949608  0.16838175  0.32290001  1
  In  In35  1  0.16854057  0.50712166  0.65394386  1
  In  In36  1  -0.00156175  0.67967626  0.67451005  1
  In  In37  1  0.83687032  0.32288209  0.82531963  1
  In  In38  1  0.66162379  0.67529091  0.02702198  1
  In  In39  1  0.46574364  0.11983335  0.01488666  1
  In  In40  1  0.18336610  0.14839338  -0.01415351  1
  In  In41  1  0.64308387  0.84077675  0.82712291  1
  In  In42  1  0.17383726  0.33262948  0.48031515  1
  In  In43  1  0.67321906  0.46859267  0.83789734  1
  In  In44  1  0.18368200  0.02927258  0.51274924  1
  In  In45  1  -0.00912734  0.80163061  0.17739201  1
  In  In46  1  0.48666588  0.83547251  0.33569228  1
  In  In47  1  0.34074918  0.67349036  0.33994043  1
  In  In48  1  0.47010803  0.65513552  0.82249339  1
  In  In49  1  0.67029834  0.82233900  0.51538514  1
  In  In50  1  0.47469050  0.00223859  0.82413969  1
  In  In51  1  0.17162772  0.69625546  0.86322283  1
  In  In52  1  0.32805951  0.48503712  0.85638354  1
  In  In53  1  0.66174761  -0.00897630  0.32729702  1
  In  In54  1  -0.01260259  0.34910681  0.32305816  1
  In  In55  1  0.32779252  0.84597414  0.15979230  1
  In  In56  1  0.15054104  0.83628794  0.34608947  1
  In  In57  1  0.01356324  0.00892295  0.67399046  1
  In  In58  1  0.63603899  0.14332015  0.53164053  1
  In  In59  1  0.81872442  0.81974752  -0.00976290  1
  In  In60  1  0.17757506  0.13819865  0.67610143  1
  In  In61  1  0.83330347  0.65824547  0.81947884  1
  In  In62  1  -0.00182762  0.51403463  0.82914033  1
  In  In63  1  0.31787455  0.50647725  0.17305045  1
  In  In64  1  0.51274159  0.31041863  0.83770816  1
  In  In65  1  0.83896257  0.01562246  0.17285414  1
  In  In66  1  0.31830433  0.31635079  0.65488325  1
  In  In67  1  0.16905432  0.68316136  0.50740747  1
  In  In68  1  0.67443457  0.33747189  -0.00906268  1
  In  In69  1  0.34370663  0.32182480  0.01261260  1
  In  In70  1  0.69991496  0.36375460  0.34739192  1
  In  In71  1  0.02331971  0.33928974  0.03356207  1
  Te  Te72  1  0.07037854  0.09711221  0.08443969  1
  Te  Te73  1  0.07753227  0.06209079  0.40574606  1
  Te  Te74  1  0.08745020  0.08157235  0.77945153  1
  Te  Te75  1  0.11078336  0.45280648  0.06184031  1
  Te  Te76  1  0.07073343  0.42870303  0.42810740  1
  Te  Te77  1  0.08744459  0.41246761  0.74615158  1
  Te  Te78  1  0.09968126  0.77188000  0.07365341  1
  Te  Te79  1  0.05966122  0.73277936  0.41077108  1
  Te  Te80  1  0.11290787  0.75971342  0.73634043  1
  Te  Te81  1  0.38375847  0.03961800  0.10649943  1
  Te  Te82  1  0.41610558  0.08284276  0.41973413  1
  Te  Te83  1  0.41289956  0.08516220  0.71544726  1
  Te  Te84  1  0.42236761  0.42077448  0.09823033  1
  Te  Te85  1  0.40930411  0.42664773  0.41140554  1
  Te  Te86  1  0.41316506  0.40745460  0.75100511  1
  Te  Te87  1  0.41412328  0.74448328  0.08344671  1
  Te  Te88  1  0.40386533  0.76633649  0.44308737  1
  Te  Te89  1  0.38109781  0.77173135  0.77402196  1
  Te  Te90  1  0.74945031  0.08741445  0.07314570  1
  Te  Te91  1  0.74061584  0.08919317  0.41579084  1
  Te  Te92  1  0.73920730  0.08643740  0.74319047  1
  Te  Te93  1  0.73658872  0.42042805  0.09565804  1
  Te  Te94  1  0.78512207  0.44640254  0.44059963  1
  Te  Te95  1  0.76488101  0.41670970  0.72840048  1
  Te  Te96  1  0.77997696  0.72897064  0.11090265  1
  Te  Te97  1  0.76262678  0.75478123  0.41386385  1
  Te  Te98  1  0.75453267  0.76741290  0.74814462  1
  Te  Te99  1  0.07517804  0.26356010  0.23764273  1
  Te  Te100  1  0.10255037  0.25269971  0.59246098  1
  Te  Te101  1  0.07233718  0.24444127  0.92493853  1
  Te  Te102  1  0.06634868  0.59708900  0.25305750  1
  Te  Te103  1  0.06684580  0.58557256  0.57341634  1
  Te  Te104  1  0.08914508  0.58424246  0.92836389  1
  Te  Te105  1  0.06545937  0.91606821  0.24780080  1
  Te  Te106  1  0.09996378  0.91938441  0.58646619  1
  Te  Te107  1  0.11886910  0.91645194  0.92043676  1
  Te  Te108  1  0.40600158  0.24510168  0.22158471  1
  Te  Te109  1  0.43870283  0.24240450  0.59791355  1
  Te  Te110  1  0.41059272  0.22699703  0.91402702  1
  Te  Te111  1  0.42469625  0.57596879  0.26084914  1
  Te  Te112  1  0.41909867  0.58074322  0.56911234  1
  Te  Te113  1  0.41705007  0.57488816  0.93386044  1
  Te  Te114  1  0.43447872  0.93247211  0.23085310  1
  Te  Te115  1  0.42846116  0.94606664  0.56759776  1
  Te  Te116  1  0.38684740  0.92395932  0.92058625  1
  Te  Te117  1  0.76499880  0.26934472  0.24339571  1
  Te  Te118  1  0.74428516  0.24949065  0.56792484  1
  Te  Te119  1  0.74054757  0.23328025  0.90168269  1
  Te  Te120  1  0.79118571  0.56728243  0.24976628  1
  Te  Te121  1  0.74333322  0.57225840  0.55659546  1
  Te  Te122  1  0.74668827  0.58443276  0.92040779  1
  Te  Te123  1  0.76434267  0.90787625  0.25184092  1
  Te  Te124  1  0.74552276  0.92439252  0.59149127  1
  Te  Te125  1  0.72969363  0.92290787  0.92471429  1
  Te  Te126  1  0.24423655  0.24059976  0.08540603  1
  Te  Te127  1  0.26560978  0.22977093  0.41471126  1
  Te  Te128  1  0.26244543  0.23403482  0.76869127  1
  Te  Te129  1  0.26870565  0.60010595  0.06889236  1
  Te  Te130  1  0.24835457  0.58342333  0.42093258  1
  Te  Te131  1  0.24887062  0.58071054  0.76212007  1
  Te  Te132  1  0.26060188  0.93975613  0.06296249  1
  Te  Te133  1  0.25066916  0.91463862  0.43000080  1
  Te  Te134  1  0.23381697  0.93899911  0.81393766  1
  Te  Te135  1  0.57165095  0.24462133  0.06780002  1
  Te  Te136  1  0.60043720  0.25061293  0.40514779  1
  Te  Te137  1  0.59358884  0.21963301  0.75419730  1
  Te  Te138  1  0.59966585  0.56246025  0.09821934  1
  Te  Te139  1  0.58846840  0.56168190  0.40836494  1
  Te  Te140  1  0.59730581  0.58248799  0.75694836  1
  Te  Te141  1  0.58891625  0.93631721  0.07709957  1
  Te  Te142  1  0.57959094  0.91412082  0.42966738  1
  Te  Te143  1  0.59193038  0.94229277  0.72885534  1
  Te  Te144  1  0.90710583  0.27914618  0.10107592  1
  Te  Te145  1  0.90956368  0.26548808  0.42785859  1
  Te  Te146  1  0.94003377  0.23992364  0.74844511  1
  Te  Te147  1  0.94802556  0.56299042  0.10739156  1
  Te  Te148  1  0.89540361  0.55491449  0.36991942  1
  Te  Te149  1  0.90357284  0.56665253  0.72054288  1
  Te  Te150  1  0.91340284  0.90825057  0.07529557  1
  Te  Te151  1  0.91908865  0.90898527  0.39357197  1
  Te  Te152  1  0.91272128  0.91009219  0.73420406  1
  Te  Te153  1  0.25104943  0.09400590  0.23662685  1
  Te  Te154  1  0.28825911  0.03000584  0.63562733  1
  Te  Te155  1  0.25989783  0.07121408  0.87597279  1
  Te  Te156  1  0.22227422  0.40158589  0.23350831  1
  Te  Te157  1  0.26311031  0.42582224  0.56475107  1
  Te  Te158  1  0.22698288  0.42122411  0.95695375  1
  Te  Te159  1  0.24411968  0.75467634  0.25218652  1
  Te  Te160  1  0.25558247  0.77097730  0.58982723  1
  Te  Te161  1  0.28950603  0.77385063  0.90436195  1
  Te  Te162  1  0.57715277  0.08504216  0.24129456  1
  Te  Te163  1  0.53201840  0.05435332  0.59854468  1
  Te  Te164  1  0.56718794  0.07020878  0.92043811  1
  Te  Te165  1  0.59175935  0.43590445  0.27291860  1
  Te  Te166  1  0.58706757  0.41604121  0.57015257  1
  Te  Te167  1  0.56030583  0.42353509  0.92858849  1
  Te  Te168  1  0.59202800  0.75029406  0.26301177  1
  Te  Te169  1  0.56149261  0.74659644  0.61024629  1
  Te  Te170  1  0.57166032  0.74052721  0.91868529  1
  Te  Te171  1  0.93878656  0.09717889  0.24404605  1
  Te  Te172  1  0.92775804  0.08758115  0.57015906  1
  Te  Te173  1  0.91665950  0.08417798  0.90975594  1
  Te  Te174  1  0.89155630  0.44381345  0.25595147  1
  Te  Te175  1  0.89503605  0.42434439  0.55132237  1
  Te  Te176  1  0.91638316  0.41693095  0.91637515  1
  Te  Te177  1  0.88177488  0.71819987  0.23158547  1
  Te  Te178  1  0.90310910  0.75541835  0.58295189  1
  Te  Te179  1  0.92933480  0.75110449  0.89796571  1
