# generated using pymatgen
data_In2Te3
_symmetry_space_group_name_H-M   'P 1'
_cell_length_a   18.82411854
_cell_length_b   18.81813338
_cell_length_c   18.81357047
_cell_angle_alpha   89.98891435
_cell_angle_beta   90.00185702
_cell_angle_gamma   89.98332217
_symmetry_Int_Tables_number   1
_chemical_formula_structural   In2Te3
_chemical_formula_sum   'In72 Te108'
_cell_volume   6664.42046159
_cell_formula_units_Z   36
loop_
 _symmetry_equiv_pos_site_id
 _symmetry_equiv_pos_as_xyz
  1  'x, y, z'
loop_
 _atom_site_type_symbol
 _atom_site_label
 _atom_site_symmetry_multiplicity
 _atom_site_fract_x
 _atom_site_fract_y
 _atom_site_fract_z
 _atom_site_occupancy
  In  In0  1  0.36160892  0.69206871  0.36361151  1
  In  In1  1  0.35971088  0.33106152  0.67850057  1
  In  In2  1  0.19900998  0.52135030  -0.00740947  1
  In  In3  1  0.81766619  0.50988837  0.66840933  1
  In  In4  1  0.65368124  -0.00536048  0.34397987  1
  In  In5  1  0.82981519  0.15343315  -0.01291203  1
  In  In6  1  0.84722019  0.80738418  0.64268530  1
  In  In7  1  -0.01046952  0.83797655  0.84781812  1
  In  In8  1  0.36178889  0.51046917  0.50965478  1
  In  In9  1  0.18466119  0.50084770  0.65347736  1
  In  In10  1  0.82781465  0.83092630  -0.01169238  1
  In  In11  1  -0.00931605  0.51235591  0.81530088  1
  In  In12  1  0.00998296  0.33875229  0.67591913  1
  In  In13  1  0.00473183  0.00374778  0.00835061  1
  In  In14  1  0.85347135  0.51427739  0.33731738  1
  In  In15  1  0.82021062  0.51788709  0.01573998  1
  In  In16  1  0.36298475  0.47589900  0.82568519  1
  In  In17  1  0.65261352  0.81697905  0.51301416  1
  In  In18  1  0.15856851  0.83497046  0.64544364  1
  In  In19  1  0.82682450  0.14985257  0.32488524  1
  In  In20  1  0.37023991  0.31654921  0.00064574  1
  In  In21  1  0.00641405  0.35232109  0.35222879  1
  In  In22  1  0.49175252  0.68153312  0.17896610  1
  In  In23  1  0.50906496  0.16275208  0.33890445  1
  In  In24  1  0.15995874  0.70157311  0.21547029  1
  In  In25  1  0.63194151  -0.02721894  0.01630821  1
  In  In26  1  0.17258500  0.14475817  0.32132621  1
  In  In27  1  0.15514072  0.14876620  -0.02180795  1
  In  In28  1  0.32198835  0.68126981  0.63602311  1
  In  In29  1  0.48031950  0.16117220  -0.00390335  1
  In  In30  1  0.66075916  -0.00295328  0.66897415  1
  In  In31  1  0.67359668  0.67360600  -0.01419394  1
  In  In32  1  0.34897039  0.12985375  0.15429467  1
  In  In33  1  0.81357233  0.32703764  0.51653357  1
  In  In34  1  -0.01324938  -0.01638219  0.65093419  1
  In  In35  1  0.79667263  0.37126995  0.12589204  1
  In  In36  1  0.50305777  0.16361610  0.65974827  1
  In  In37  1  0.66064521  0.33694170  0.32925884  1
  In  In38  1  0.65271184  0.66439047  0.35182839  1
  In  In39  1  0.00110662  0.52889875  0.19137433  1
  In  In40  1  0.65873543  0.16194938  0.81474023  1
  In  In41  1  0.33764865  0.82699941  0.17985497  1
  In  In42  1  0.18473274  0.33411953  0.16642243  1
  In  In43  1  0.63330917  0.49657541  0.52676948  1
  In  In44  1  0.17162015  -0.01934134  0.16472356  1
  In  In45  1  0.31821187  0.12808979  0.49312786  1
  In  In46  1  0.01034989  0.34006356  0.01092130  1
  In  In47  1  0.33846408  0.66215629  -0.00040390  1
  In  In48  1  0.34142190  0.47804360  0.17155721  1
  In  In49  1  0.35540202  0.85151258  0.85872387  1
  In  In50  1  0.66052841  0.84587345  0.81329418  1
  In  In51  1  0.67131210  0.16082012  0.49873556  1
  In  In52  1  0.33428683  0.34495671  0.34262293  1
  In  In53  1  0.66884739  0.66595345  0.66663836  1
  In  In54  1  0.34292505  0.16001745  0.84245124  1
  In  In55  1  0.66244797  0.48495079  0.14901991  1
  In  In56  1  0.81407984  -0.01873502  0.19547091  1
  In  In57  1  -0.01460348  0.18359147  0.84167268  1
  In  In58  1  0.82964324  0.68794253  0.16604552  1
  In  In59  1  0.15078095  0.67451725  0.49408439  1
  In  In60  1  0.83371060  0.34622386  0.80683467  1
  In  In61  1  0.50810615  0.67459309  0.81084392  1
  In  In62  1  -0.03999921  0.15722299  0.19931283  1
  In  In63  1  0.16341547  0.00604194  0.82462815  1
  In  In64  1  0.01624046  0.83419709  0.19760950  1
  In  In65  1  0.51503428  0.32912464  0.15631490  1
  In  In66  1  0.00819485  0.15553432  0.51167886  1
  In  In67  1  0.64491599  0.15160662  0.17867480  1
  In  In68  1  0.16218600  0.67515242  0.82269886  1
  In  In69  1  0.00709056  0.52317761  0.49134212  1
  In  In70  1  0.18193851  0.17121824  0.65408213  1
  In  In71  1  0.34579659  -0.01183302  0.63299942  1
  Te  Te72  1  0.07794519  0.10076385  0.10173339  1
  Te  Te73  1  0.07416995  0.07426008  0.40612350  1
  Te  Te74  1  0.07288059  0.09559696  0.74142761  1
  Te  Te75  1  0.09437659  0.43861339  0.09205692  1
  Te  Te76  1  0.10315474  0.42771422  0.43190444  1
  Te  Te77  1  0.10373423  0.42444713  0.75988637  1
  Te  Te78  1  0.08881976  0.75347057  0.09742228  1
  Te  Te79  1  0.06096532  0.77810664  0.42541479  1
  Te  Te80  1  0.06567260  0.75848150  0.73968232  1
  Te  Te81  1  0.41525660  0.03603256  0.05654894  1
  Te  Te82  1  0.43183502  0.06002503  0.41391923  1
  Te  Te83  1  0.41623194  0.07001259  0.74387642  1
  Te  Te84  1  0.44535199  0.44074136  0.06093899  1
  Te  Te85  1  0.43586317  0.41781559  0.41915989  1
  Te  Te86  1  0.46030606  0.43877478  0.71562078  1
  Te  Te87  1  0.42842111  0.76426040  0.06654231  1
  Te  Te88  1  0.45462306  0.78646429  0.43432274  1
  Te  Te89  1  0.39995483  0.76015259  0.74538002  1
  Te  Te90  1  0.74731313  0.07269356  0.08989282  1
  Te  Te91  1  0.76299335  0.05902459  0.43010358  1
  Te  Te92  1  0.75739965  0.08029520  0.74313878  1
  Te  Te93  1  0.69310389  0.41866613  0.01012673  1
  Te  Te94  1  0.75070762  0.42576909  0.41552459  1
  Te  Te95  1  0.72464317  0.43095133  0.75317220  1
  Te  Te96  1  0.72985057  0.77223357  0.08950684  1
  Te  Te97  1  0.74921720  0.75663836  0.41649826  1
  Te  Te98  1  0.76151303  0.74796813  0.75510503  1
  Te  Te99  1  0.07978692  0.25800210  0.24803014  1
  Te  Te100  1  0.09522919  0.26640759  0.57146849  1
  Te  Te101  1  0.09516618  0.26889624  0.90569979  1
  Te  Te102  1  0.07548910  0.60603541  0.29088779  1
  Te  Te103  1  0.07848739  0.59725632  0.60590617  1
  Te  Te104  1  0.08280196  0.58656418  0.91839428  1
  Te  Te105  1  0.10289189  0.92117512  0.28167063  1
  Te  Te106  1  0.07126784  0.91220617  0.55075166  1
  Te  Te107  1  0.09644476  0.91356567  0.92734548  1
  Te  Te108  1  0.41440837  0.24631740  0.24020546  1
  Te  Te109  1  0.40276364  0.23422771  0.56994427  1
  Te  Te110  1  0.44967041  0.26525145  0.88001372  1
  Te  Te111  1  0.40700390  0.58468192  0.26093245  1
  Te  Te112  1  0.44369969  0.60785506  0.59005727  1
  Te  Te113  1  0.43221329  0.58294968  0.90959365  1
  Te  Te114  1  0.45778628  0.89400680  0.23696184  1
  Te  Te115  1  0.40940035  0.88022195  0.55289257  1
  Te  Te116  1  0.44190090  0.94578896  0.93000333  1
  Te  Te117  1  0.74711074  0.25271204  0.23513454  1
  Te  Te118  1  0.73101487  0.24525456  0.60653513  1
  Te  Te119  1  0.75383659  0.24981830  0.90019345  1
  Te  Te120  1  0.74954789  0.57778052  0.24124978  1
  Te  Te121  1  0.74844559  0.59120111  0.55954108  1
  Te  Te122  1  0.75285375  0.58195691  0.90092687  1
  Te  Te123  1  0.72784479  0.88891542  0.26958296  1
  Te  Te124  1  0.75401339  0.90952673  0.58138403  1
  Te  Te125  1  0.73978238  0.93027198  0.91503440  1
  Te  Te126  1  0.25787903  0.23343674  0.07683266  1
  Te  Te127  1  0.24696906  0.24152940  0.41253026  1
  Te  Te128  1  0.25287547  0.25246782  0.75932825  1
  Te  Te129  1  0.25516574  0.59872540  0.11316188  1
  Te  Te130  1  0.26222180  0.59240217  0.42626450  1
  Te  Te131  1  0.26824321  0.58415696  0.75513335  1
  Te  Te132  1  0.25021693  0.89270094  0.07833284  1
  Te  Te133  1  0.29848082  0.97893315  0.45901745  1
  Te  Te134  1  0.25241871  0.91221730  0.74407484  1
  Te  Te135  1  0.59555198  0.23898146  0.06454401  1
  Te  Te136  1  0.57670833  0.26223856  0.43162775  1
  Te  Te137  1  0.59242524  0.26465533  0.72487775  1
  Te  Te138  1  0.58295658  0.59970038  0.08497886  1
  Te  Te139  1  0.56047314  0.57170628  0.42119152  1
  Te  Te140  1  0.61072484  0.57406658  0.76940198  1
  Te  Te141  1  0.55871214  0.89503207  0.11799629  1
  Te  Te142  1  0.56392465  0.90940760  0.43070199  1
  Te  Te143  1  0.55722347  0.91512084  0.73557386  1
  Te  Te144  1  0.90747653  0.25005247  0.07950867  1
  Te  Te145  1  0.90568719  0.25235731  0.41355017  1
  Te  Te146  1  0.90551652  0.23885655  0.72413134  1
  Te  Te147  1  0.92745372  0.60555337  0.08239590  1
  Te  Te148  1  0.90646247  0.61444941  0.43148956  1
  Te  Te149  1  0.91163218  0.60401242  0.73282516  1
  Te  Te150  1  0.91379140  0.91571239  0.09229445  1
  Te  Te151  1  0.92344133  0.84851923  0.41034783  1
  Te  Te152  1  0.89807048  0.90873598  0.74875825  1
  Te  Te153  1  0.27665865  0.05054877  0.25928457  1
  Te  Te154  1  0.20752013  0.04398138  0.57517591  1
  Te  Te155  1  0.26460917  0.05864201  0.92752529  1
  Te  Te156  1  0.23248454  0.43493159  0.27025597  1
  Te  Te157  1  0.27044489  0.40444837  0.57640114  1
  Te  Te158  1  0.26701925  0.40597726  0.92358701  1
  Te  Te159  1  0.25491506  0.78413987  0.30262865  1
  Te  Te160  1  0.25533825  0.77923280  0.53980812  1
  Te  Te161  1  0.24832485  0.75584206  0.91882400  1
  Te  Te162  1  0.54794581  0.05298931  0.23634948  1
  Te  Te163  1  0.57128504  0.06681678  0.56486770  1
  Te  Te164  1  0.57909896  0.07416985  0.91318287  1
  Te  Te165  1  0.56601481  0.43140229  0.25721512  1
  Te  Te166  1  0.56862144  0.39350359  0.60895430  1
  Te  Te167  1  0.54809071  0.39974670  0.95224771  1
  Te  Te168  1  0.57823690  0.76606236  0.26696806  1
  Te  Te169  1  0.55689645  0.72971679  0.59054618  1
  Te  Te170  1  0.57607188  0.76585059  0.91272464  1
  Te  Te171  1  0.92427157  0.03598097  0.28625418  1
  Te  Te172  1  0.90111809  0.07817476  0.57528162  1
  Te  Te173  1  0.91445668  0.06133595  0.89958430  1
  Te  Te174  1  0.90895313  0.40845596  0.23504136  1
  Te  Te175  1  0.91978417  0.41933228  0.57979538  1
  Te  Te176  1  0.91423657  0.41947302  0.92203264  1
  Te  Te177  1  0.90868854  0.75687649  0.27128725  1
  Te  Te178  1  0.94188766  0.76016670  0.53453676  1
  Te  Te179  1  0.91388805  0.73414780  0.91998599  1
