# generated using pymatgen
data_In2Te3
_symmetry_space_group_name_H-M   'P 1'
_cell_length_a   19.02449918
_cell_length_b   19.03614353
_cell_length_c   19.03685027
_cell_angle_alpha   89.77807212
_cell_angle_beta   89.95747457
_cell_angle_gamma   89.98409232
_symmetry_Int_Tables_number   1
_chemical_formula_structural   In2Te3
_chemical_formula_sum   'In72 Te108'
_cell_volume   6894.20040729
_cell_formula_units_Z   36
loop_
 _symmetry_equiv_pos_site_id
 _symmetry_equiv_pos_as_xyz
  1  'x, y, z'
loop_
 _atom_site_type_symbol
 _atom_site_label
 _atom_site_symmetry_multiplicity
 _atom_site_fract_x
 _atom_site_fract_y
 _atom_site_fract_z
 _atom_site_occupancy
  In  In0  1  0.52193615  0.49767682  0.35247717  1
  In  In1  1  0.14566743  0.17113781  -0.01559865  1
  In  In2  1  0.78861988  0.65880958  0.16683105  1
  In  In3  1  0.85607739  0.31626240  0.21893243  1
  In  In4  1  0.50545722  0.53850779  0.73430359  1
  In  In5  1  0.33459898  0.35390254  0.65912754  1
  In  In6  1  0.18374951  0.33767226  0.18545607  1
  In  In7  1  -0.02057005  0.80745248  0.53006193  1
  In  In8  1  0.32170079  0.31343319  0.01809175  1
  In  In9  1  0.34953710  0.68595738  0.70743768  1
  In  In10  1  0.17385453  0.52396396  0.65911174  1
  In  In11  1  0.65483209  0.67007758  0.35199753  1
  In  In12  1  0.65139537  0.46217934  0.15845076  1
  In  In13  1  0.02133885  0.00230264  0.32967393  1
  In  In14  1  0.33008582  0.13477521  0.20702739  1
  In  In15  1  0.17587912  0.16871644  0.61399484  1
  In  In16  1  -0.02143820  0.52098009  0.83050940  1
  In  In17  1  0.52052245  0.66770766  0.15370439  1
  In  In18  1  0.47061669  0.16526485  0.34919699  1
  In  In19  1  0.81076110  -0.01106432  0.50355012  1
  In  In20  1  0.67920360  0.52229296  0.80686684  1
  In  In21  1  0.03348539  0.50017959  0.16005498  1
  In  In22  1  0.50703672  0.33209281  0.87590285  1
  In  In23  1  0.84680139  0.02257695  0.13643336  1
  In  In24  1  0.16977592  0.82442696  0.33130196  1
  In  In25  1  0.67685675  0.02391232  0.31147389  1
  In  In26  1  -0.00954189  0.00793672  -0.04397527  1
  In  In27  1  0.64123758  0.82603030  0.51334299  1
  In  In28  1  0.34121493  0.00222789  0.01172192  1
  In  In29  1  -0.00506386  0.00791468  0.63949741  1
  In  In30  1  0.36896169  -0.03705743  0.37088798  1
  In  In31  1  0.36085538  -0.05305123  0.66834944  1
  In  In32  1  0.17173748  -0.00414616  0.79514833  1
  In  In33  1  0.35341332  0.50300529  0.17937904  1
  In  In34  1  -0.02531189  0.65832998  -0.00088723  1
  In  In35  1  0.16150761  0.66914080  0.17637112  1
  In  In36  1  0.17568857  0.68199785  0.51377158  1
  In  In37  1  0.33719744  0.51672081  0.50729417  1
  In  In38  1  0.49996386  0.34122331  0.53007807  1
  In  In39  1  0.83427205  0.85411858  0.32630348  1
  In  In40  1  0.38645602  0.68389710  -0.06060506  1
  In  In41  1  0.13909526  0.33448495  0.84884266  1
  In  In42  1  0.65972056  0.66296574  -0.01791138  1
  In  In43  1  0.84492291  0.48616460  0.33495387  1
  In  In44  1  0.50463225  0.13430618  0.65905332  1
  In  In45  1  0.54360200  0.83951686  -0.03405471  1
  In  In46  1  0.20972669  0.15993181  0.37732747  1
  In  In47  1  0.83687956  0.17118278  -0.01052088  1
  In  In48  1  -0.02840582  0.19472527  0.46468297  1
  In  In49  1  0.83653115  0.33868923  0.81635557  1
  In  In50  1  0.67292762  0.33096073  0.33316726  1
  In  In51  1  0.18662671  0.47997858  0.01446919  1
  In  In52  1  0.53511129  -0.00895566  0.83544358  1
  In  In53  1  0.81186830  0.48090089  0.00227288  1
  In  In54  1  0.49387453  -0.00310217  0.20414576  1
  In  In55  1  0.66002108  0.82818170  0.13133807  1
  In  In56  1  0.16177420  0.53400894  0.36085635  1
  In  In57  1  -0.01023742  0.49899158  0.48495018  1
  In  In58  1  0.66265338  0.15994950  0.52443449  1
  In  In59  1  -0.01998878  0.34222892  0.65881211  1
  In  In60  1  0.78623769  -0.04262206  0.82134758  1
  In  In61  1  0.01743407  0.83920488  0.80296672  1
  In  In62  1  0.82688649  0.70567046  0.79779502  1
  In  In63  1  0.17179254  0.00095029  0.15739108  1
  In  In64  1  0.32018066  0.17999557  0.81141278  1
  In  In65  1  -0.03386231  0.82304520  0.13916278  1
  In  In66  1  0.68114466  0.54009703  0.51808093  1
  In  In67  1  0.18211947  -0.02798235  0.49862126  1
  In  In68  1  0.17106480  0.66323112  0.83762937  1
  In  In69  1  0.66570400  0.34005226  0.68531592  1
  In  In70  1  0.68105422  0.15099755  0.81896051  1
  In  In71  1  0.01374725  0.17401878  0.19250282  1
  Te  Te72  1  0.06270193  0.07231919  0.08074979  1
  Te  Te73  1  0.08609896  0.08267557  0.43869747  1
  Te  Te74  1  0.08348890  0.09397752  0.72494264  1
  Te  Te75  1  0.08796876  0.38453386  0.07769874  1
  Te  Te76  1  0.09595695  0.41942072  0.42198755  1
  Te  Te77  1  0.07980651  0.43439467  0.74882252  1
  Te  Te78  1  0.07565916  0.74357949  0.07237996  1
  Te  Te79  1  0.07341648  0.75162698  0.42285673  1
  Te  Te80  1  0.07590110  0.71958726  0.74092482  1
  Te  Te81  1  0.42364471  0.09213526  0.09915033  1
  Te  Te82  1  0.43437835  0.06573843  0.44848241  1
  Te  Te83  1  0.40845797  0.06849230  0.75857060  1
  Te  Te84  1  0.41441304  0.41393969  0.07710346  1
  Te  Te85  1  0.41738551  0.41652291  0.42758569  1
  Te  Te86  1  0.43515207  0.40144631  0.75651561  1
  Te  Te87  1  0.44102127  0.75373492  0.06061247  1
  Te  Te88  1  0.50741812  0.81793154  0.43665700  1
  Te  Te89  1  0.45375917  0.78377324  0.75510493  1
  Te  Te90  1  0.74008920  0.08994851  0.06497560  1
  Te  Te91  1  0.75367839  0.09949285  0.41583329  1
  Te  Te92  1  0.72458782  0.05046908  0.71995699  1
  Te  Te93  1  0.76445283  0.38212403  0.10400378  1
  Te  Te94  1  0.73736612  0.42917381  0.42634605  1
  Te  Te95  1  0.77489803  0.44191768  0.72397136  1
  Te  Te96  1  0.76173591  0.75164941  0.05072405  1
  Te  Te97  1  0.74988041  0.76653852  0.41484755  1
  Te  Te98  1  0.72481160  0.81613560  0.79346418  1
  Te  Te99  1  0.11917879  0.23773894  0.28018099  1
  Te  Te100  1  0.06371662  0.26189000  0.56236648  1
  Te  Te101  1  0.04777054  0.23113851  0.89515834  1
  Te  Te102  1  0.06282789  0.60228025  0.26760350  1
  Te  Te103  1  0.07147588  0.59469107  0.57740006  1
  Te  Te104  1  0.08234805  0.56732888  0.93928220  1
  Te  Te105  1  0.06465022  0.89626603  0.23209279  1
  Te  Te106  1  0.08571971  0.89780454  0.58903317  1
  Te  Te107  1  0.09788093  0.91664174  0.90569078  1
  Te  Te108  1  0.37998695  0.25326808  0.27446155  1
  Te  Te109  1  0.40965663  0.23715979  0.59325775  1
  Te  Te110  1  0.40464575  0.22630277  0.92561839  1
  Te  Te111  1  0.44267607  0.59218369  0.26115326  1
  Te  Te112  1  0.41587429  0.58235576  0.61574400  1
  Te  Te113  1  0.46007571  0.57464682  0.87699251  1
  Te  Te114  1  0.40412696  0.89167944  0.24929756  1
  Te  Te115  1  0.43978560  0.88213054  0.56107915  1
  Te  Te116  1  0.42229258  0.92201448  0.91543557  1
  Te  Te117  1  0.73852911  0.23234219  0.24922058  1
  Te  Te118  1  0.74772995  0.25608535  0.59622129  1
  Te  Te119  1  0.74531692  0.26004696  0.90669988  1
  Te  Te120  1  0.71646449  0.56263766  0.25873482  1
  Te  Te121  1  0.74564482  0.64441870  0.60051134  1
  Te  Te122  1  0.77747063  0.59426468  0.90488990  1
  Te  Te123  1  0.75025469  0.92035303  0.21900093  1
  Te  Te124  1  0.76252068  0.87912566  0.59115349  1
  Te  Te125  1  0.67807936  0.90482835  0.91505781  1
  Te  Te126  1  0.23624226  0.21604191  0.09852700  1
  Te  Te127  1  0.25730721  0.22488472  0.49741973  1
  Te  Te128  1  0.22469959  0.26672101  0.73227658  1
  Te  Te129  1  0.25901123  0.58486053  0.09260526  1
  Te  Te130  1  0.27514498  0.62054002  0.41768908  1
  Te  Te131  1  0.26529872  0.56827977  0.76776173  1
  Te  Te132  1  0.24899833  0.90952305  0.07699909  1
  Te  Te133  1  0.27060646  0.86733470  0.43693554  1
  Te  Te134  1  0.24990699  0.88264952  0.74214142  1
  Te  Te135  1  0.55425627  0.34047396  0.01711270  1
  Te  Te136  1  0.57750723  0.25369266  0.43380549  1
  Te  Te137  1  0.56991610  0.23774203  0.74816523  1
  Te  Te138  1  0.58373300  0.56221429  0.06719103  1
  Te  Te139  1  0.56087024  0.60582818  0.45199492  1
  Te  Te140  1  0.63010014  0.62205329  0.70646113  1
  Te  Te141  1  0.56706218  0.93605822  0.08680601  1
  Te  Te142  1  0.60626018  0.93424585  0.40589864  1
  Te  Te143  1  0.57013435  0.88510677  0.73623711  1
  Te  Te144  1  0.92172878  0.24216120  0.09727256  1
  Te  Te145  1  0.90288703  0.26935938  0.35972314  1
  Te  Te146  1  0.88787769  0.24324016  0.71751048  1
  Te  Te147  1  0.90075752  0.56557399  0.10193015  1
  Te  Te148  1  0.89614379  0.59193873  0.41826250  1
  Te  Te149  1  0.92154364  0.61207638  0.73164878  1
  Te  Te150  1  0.90041714  0.91807702  0.04183478  1
  Te  Te151  1  0.93075020  0.91996904  0.42482298  1
  Te  Te152  1  0.91439535  0.92392072  0.73462039  1
  Te  Te153  1  0.24315215  0.03839567  0.28507624  1
  Te  Te154  1  0.26629433  0.04728433  0.59597379  1
  Te  Te155  1  0.24097468  0.08294943  0.90733321  1
  Te  Te156  1  0.24826168  0.44301343  0.26922864  1
  Te  Te157  1  0.23523633  0.42222534  0.56647969  1
  Te  Te158  1  0.26018894  0.40185617  0.90886107  1
  Te  Te159  1  0.26035994  0.75502302  0.24070732  1
  Te  Te160  1  0.25181424  0.75395191  0.61878882  1
  Te  Te161  1  0.25922794  0.74959234  0.91475110  1
  Te  Te162  1  0.57515087  0.11651896  0.24936170  1
  Te  Te163  1  0.60790262  0.04519361  0.60167256  1
  Te  Te164  1  0.59159750  0.09454539  0.92031562  1
  Te  Te165  1  0.55804115  0.38966734  0.25191030  1
  Te  Te166  1  0.59115243  0.43879684  0.59612972  1
  Te  Te167  1  0.62450768  0.42413746  0.90902740  1
  Te  Te168  1  0.59077721  0.76266568  0.24792891  1
  Te  Te169  1  0.54255927  0.77650791  0.62530508  1
  Te  Te170  1  0.55863726  0.71117131  0.88371022  1
  Te  Te171  1  0.91403468  0.08063435  0.25999846  1
  Te  Te172  1  0.90184870  0.09668958  0.56081224  1
  Te  Te173  1  0.87922384  0.07259076  0.88238180  1
  Te  Te174  1  0.96287832  0.41701623  0.26476931  1
  Te  Te175  1  0.89749872  0.42567014  0.57285428  1
  Te  Te176  1  0.91980539  0.41406306  0.92093013  1
  Te  Te177  1  0.89232544  0.74018599  0.24262311  1
  Te  Te178  1  0.85968243  0.75516997  0.60016842  1
  Te  Te179  1  0.92660458  0.76042520  0.90008863  1
