# generated using pymatgen
data_In2Te3
_symmetry_space_group_name_H-M   'P 1'
_cell_length_a   18.80561090
_cell_length_b   18.80954367
_cell_length_c   18.80744663
_cell_angle_alpha   90.10609196
_cell_angle_beta   89.94987852
_cell_angle_gamma   89.93390555
_symmetry_Int_Tables_number   1
_chemical_formula_structural   In2Te3
_chemical_formula_sum   'In72 Te108'
_cell_volume   6652.64490935
_cell_formula_units_Z   36
loop_
 _symmetry_equiv_pos_site_id
 _symmetry_equiv_pos_as_xyz
  1  'x, y, z'
loop_
 _atom_site_type_symbol
 _atom_site_label
 _atom_site_symmetry_multiplicity
 _atom_site_fract_x
 _atom_site_fract_y
 _atom_site_fract_z
 _atom_site_occupancy
  In  In0  1  0.30006386  0.52140509  0.12877103  1
  In  In1  1  0.15206443  -0.00642596  0.81661622  1
  In  In2  1  0.67844540  0.82593519  0.16222102  1
  In  In3  1  -0.01200300  0.18357414  0.17215933  1
  In  In4  1  0.15970851  0.65941079  0.52174597  1
  In  In5  1  0.32774842  0.49860249  0.50372764  1
  In  In6  1  0.66699733  0.33759932  0.66198604  1
  In  In7  1  -0.02556626  0.66072795  0.30640215  1
  In  In8  1  0.13904158  0.75900937  0.01950844  1
  In  In9  1  -0.00485736  -0.00003500  -0.02037954  1
  In  In10  1  0.83094215  0.33968288  0.15346664  1
  In  In11  1  0.53909400  0.47992637  0.29918553  1
  In  In12  1  0.49690679  0.65346525  0.82651048  1
  In  In13  1  0.67245802  0.18806458  0.48362156  1
  In  In14  1  0.83500063  0.80328204  0.00613121  1
  In  In15  1  0.66498442  0.84402205  0.81938647  1
  In  In16  1  0.35262384  0.68161691  0.33022265  1
  In  In17  1  0.13966653  0.16065318  0.67680731  1
  In  In18  1  -0.00720939  0.32133374  0.32788350  1
  In  In19  1  0.33106549  -0.02795186  0.33637523  1
  In  In20  1  0.15300793  -0.01535765  0.18729194  1
  In  In21  1  0.49929432  0.65898455  0.17119432  1
  In  In22  1  0.47514704  0.48930673  0.70379970  1
  In  In23  1  0.83414349  0.15753708  0.32252601  1
  In  In24  1  0.49289099  0.84553031  0.01642863  1
  In  In25  1  0.50025070  0.17125868  0.67792928  1
  In  In26  1  0.82977889  0.00073734  0.16556617  1
  In  In27  1  0.68645844  0.16242547  0.80707246  1
  In  In28  1  0.30981855  0.18472250  0.15498535  1
  In  In29  1  0.68490787  -0.00722014  0.65657823  1
  In  In30  1  0.33196370  0.18421651  0.85329179  1
  In  In31  1  0.34211056  0.81379739  0.16088335  1
  In  In32  1  0.84882212  0.30795333  0.81754616  1
  In  In33  1  -0.00391138  0.83276804  0.50598459  1
  In  In34  1  0.15036079  0.19531978  0.00292860  1
  In  In35  1  0.13914682  0.50683984  0.31999975  1
  In  In36  1  0.15248251  0.50744668  0.68582146  1
  In  In37  1  0.51994472  0.21445766  0.00475923  1
  In  In38  1  0.17342738  0.83069573  0.33603752  1
  In  In39  1  0.33546946  0.32304242  0.32930059  1
  In  In40  1  0.32676174  0.66111250  0.68494284  1
  In  In41  1  0.00119156  0.67829975  0.66518545  1
  In  In42  1  0.51051285  -0.02143773  0.49593370  1
  In  In43  1  0.86136090  0.00826293  0.53419781  1
  In  In44  1  -0.01139755  0.84921943  0.80882770  1
  In  In45  1  0.34280552  0.17189585  0.52694371  1
  In  In46  1  0.49307436  0.49365121  0.00244591  1
  In  In47  1  0.52205231  0.69371390  0.51301340  1
  In  In48  1  0.16664736  0.33947740  0.51021435  1
  In  In49  1  0.82780166  0.49800077  0.64730874  1
  In  In50  1  0.47682963  0.01805348  0.17860400  1
  In  In51  1  0.50685350  0.16572491  0.32349598  1
  In  In52  1  0.83439758  0.32157630  0.50537612  1
  In  In53  1  0.85185568  0.17514802  -0.00871660  1
  In  In54  1  0.86517576  0.51972226  0.01828196  1
  In  In55  1  0.32809063  -0.00880587  0.66450188  1
  In  In56  1  0.33870292  -0.01075485  -0.01306360  1
  In  In57  1  0.12645451  0.12567762  0.36571591  1
  In  In58  1  0.14944906  0.83182625  0.66203815  1
  In  In59  1  0.65158650  -0.01262502  0.33560045  1
  In  In60  1  0.84707845  0.50072846  0.32399129  1
  In  In61  1  0.64472665  0.51064369  0.84808954  1
  In  In62  1  0.01606354  0.50298488  0.85000774  1
  In  In63  1  0.14378296  0.36741347  0.13870306  1
  In  In64  1  0.70275470  0.67559994  0.34416155  1
  In  In65  1  0.51309252  -0.01408200  0.85510296  1
  In  In66  1  0.67546652  0.50912487  0.48576461  1
  In  In67  1  0.70870433  0.00742604  -0.00746487  1
  In  In68  1  0.49790619  0.30977265  0.50877871  1
  In  In69  1  0.68039327  0.67860113  0.01890708  1
  In  In70  1  0.82826003  0.69775308  0.81582228  1
  In  In71  1  0.17015214  0.35123480  0.85671070  1
  Te  Te72  1  0.08275143  0.08405712  0.08648685  1
  Te  Te73  1  0.06357887  0.01814513  0.44492586  1
  Te  Te74  1  0.04366435  0.06824968  0.74791979  1
  Te  Te75  1  0.08074798  0.44248357  0.02759108  1
  Te  Te76  1  0.06826566  0.41892462  0.41988824  1
  Te  Te77  1  0.06653877  0.39943785  0.74943004  1
  Te  Te78  1  0.02657032  0.74628928  0.11829339  1
  Te  Te79  1  0.07661523  0.72977408  0.41484870  1
  Te  Te80  1  0.09364593  0.73889032  0.76815656  1
  Te  Te81  1  0.41166665  0.09935332  0.06558778  1
  Te  Te82  1  0.41763114  0.08703749  0.41908455  1
  Te  Te83  1  0.41514098  0.07941020  0.76710634  1
  Te  Te84  1  0.40428320  0.42191196  0.09785811  1
  Te  Te85  1  0.42199307  0.41421315  0.41628278  1
  Te  Te86  1  0.39399791  0.41600816  0.80277991  1
  Te  Te87  1  0.41458912  0.72112665  0.06010299  1
  Te  Te88  1  0.41254242  0.76114808  0.43796525  1
  Te  Te89  1  0.42823417  0.75222341  0.74248417  1
  Te  Te90  1  0.75645564  0.11245780  0.09283086  1
  Te  Te91  1  0.75025792  0.07224249  0.42213390  1
  Te  Te92  1  0.77851331  0.05148902  0.75916071  1
  Te  Te93  1  0.75454294  0.43738260  0.07157384  1
  Te  Te94  1  0.75597539  0.40659568  0.40671232  1
  Te  Te95  1  0.74937351  0.42332636  0.75820590  1
  Te  Te96  1  0.78798464  0.71404094  0.12716477  1
  Te  Te97  1  0.72760778  0.78318063  0.44300561  1
  Te  Te98  1  0.72674641  0.75018075  0.71730339  1
  Te  Te99  1  0.10321548  0.25039537  0.24655601  1
  Te  Te100  1  0.07559455  0.23558323  0.56443359  1
  Te  Te101  1  0.06845833  0.24864728  0.89393446  1
  Te  Te102  1  0.07140204  0.58627563  0.21404916  1
  Te  Te103  1  0.05858702  0.56345754  0.57935656  1
  Te  Te104  1  0.10246666  0.57330667  0.94786974  1
  Te  Te105  1  0.06377574  0.89328450  0.25801407  1
  Te  Te106  1  0.06914157  0.93502283  0.59013244  1
  Te  Te107  1  0.09450171  0.89858972  0.92333729  1
  Te  Te108  1  0.42596266  0.25480422  0.22796829  1
  Te  Te109  1  0.40191323  0.27503901  0.62312698  1
  Te  Te110  1  0.42048947  0.28443537  0.91905765  1
  Te  Te111  1  0.40702616  0.56419090  0.24859182  1
  Te  Te112  1  0.42339078  0.58454600  0.58524847  1
  Te  Te113  1  0.40249431  0.56686975  0.90517042  1
  Te  Te114  1  0.43496953  0.89441843  0.25470513  1
  Te  Te115  1  0.41774782  0.90562272  0.58392652  1
  Te  Te116  1  0.40527044  0.88580343  0.89708480  1
  Te  Te117  1  0.75299559  0.25957983  0.25301909  1
  Te  Te118  1  0.75448068  0.22537572  0.60741631  1
  Te  Te119  1  0.74459744  0.25387851  0.91538081  1
  Te  Te120  1  0.74284908  0.57341758  0.24600213  1
  Te  Te121  1  0.76813246  0.59907384  0.55713214  1
  Te  Te122  1  0.75858425  0.59816830  0.91353782  1
  Te  Te123  1  0.76149536  0.90664812  0.26344440  1
  Te  Te124  1  0.75017174  0.90658795  0.55186532  1
  Te  Te125  1  0.78036099  0.90754524  0.90294362  1
  Te  Te126  1  0.25437875  0.29015677  0.06002817  1
  Te  Te127  1  0.24765305  0.23866442  0.42087514  1
  Te  Te128  1  0.23676128  0.24964046  0.75534294  1
  Te  Te129  1  0.22330623  0.62833372  0.05149919  1
  Te  Te130  1  0.24427040  0.58460709  0.40977663  1
  Te  Te131  1  0.23597274  0.58813876  0.77774435  1
  Te  Te132  1  0.25317458  0.91615063  0.08953151  1
  Te  Te133  1  0.24045688  0.91587570  0.43653633  1
  Te  Te134  1  0.25277470  0.89650089  0.75731022  1
  Te  Te135  1  0.59738557  0.26988333  0.11399558  1
  Te  Te136  1  0.59001073  0.27476747  0.39094561  1
  Te  Te137  1  0.57911058  0.26697969  0.76531840  1
  Te  Te138  1  0.59562930  0.57460402  0.08981979  1
  Te  Te139  1  0.57133769  0.58891127  0.40381558  1
  Te  Te140  1  0.59300624  0.58392433  0.72683439  1
  Te  Te141  1  0.60021059  0.93289364  0.08086359  1
  Te  Te142  1  0.58773190  0.87847958  0.41520474  1
  Te  Te143  1  0.56863401  0.92197390  0.72903320  1
  Te  Te144  1  0.94099389  0.27548914  0.06350349  1
  Te  Te145  1  0.92456154  0.22564112  0.42504702  1
  Te  Te146  1  0.90014680  0.23772381  0.69942284  1
  Te  Te147  1  0.96549869  0.60579277  0.08722911  1
  Te  Te148  1  0.90472727  0.59708069  0.42098751  1
  Te  Te149  1  0.91512714  0.58202673  0.75669085  1
  Te  Te150  1  0.91800844  0.91296711  0.07788659  1
  Te  Te151  1  0.92440666  0.93408569  0.41817515  1
  Te  Te152  1  0.87266265  0.92125210  0.75374059  1
  Te  Te153  1  0.25542055  0.08203723  0.25627334  1
  Te  Te154  1  0.23628657  0.07987723  0.58284795  1
  Te  Te155  1  0.23424775  0.08238073  0.91995417  1
  Te  Te156  1  0.24550153  0.41922496  0.25046187  1
  Te  Te157  1  0.25317045  0.41865478  0.60837863  1
  Te  Te158  1  0.27113500  0.45534109  0.89338364  1
  Te  Te159  1  0.24072617  0.73151091  0.23933097  1
  Te  Te160  1  0.25713110  0.75520475  0.58301816  1
  Te  Te161  1  0.26695405  0.74197499  0.94974393  1
  Te  Te162  1  0.60167384  0.08840072  0.23197384  1
  Te  Te163  1  0.58240893  0.09432984  0.57507115  1
  Te  Te164  1  0.59529670  0.09416974  0.92290220  1
  Te  Te165  1  0.61518971  0.39083720  0.21214525  1
  Te  Te166  1  0.57557313  0.42492981  0.57748231  1
  Te  Te167  1  0.59006780  0.40430601  0.93173953  1
  Te  Te168  1  0.58947990  0.74515530  0.25566521  1
  Te  Te169  1  0.62905578  0.75807275  0.59048437  1
  Te  Te170  1  0.58964437  0.75719782  0.92275777  1
  Te  Te171  1  0.93665709  0.06698243  0.25426145  1
  Te  Te172  1  0.93487773  0.11378118  0.60888384  1
  Te  Te173  1  0.93217101  0.10029274  0.89123448  1
  Te  Te174  1  0.93766996  0.42170835  0.22897768  1
  Te  Te175  1  0.92497814  0.40807701  0.58228457  1
  Te  Te176  1  0.90671394  0.41626002  0.91143992  1
  Te  Te177  1  0.89066140  0.76155675  0.23938624  1
  Te  Te178  1  0.90317757  0.76178191  0.59566507  1
  Te  Te179  1  0.93825694  0.74329335  0.91054199  1
