# generated using pymatgen
data_In2Te3
_symmetry_space_group_name_H-M   'P 1'
_cell_length_a   18.80917724
_cell_length_b   18.80476198
_cell_length_c   18.79806779
_cell_angle_alpha   89.96329663
_cell_angle_beta   90.08212192
_cell_angle_gamma   90.02299565
_symmetry_Int_Tables_number   1
_chemical_formula_structural   In2Te3
_chemical_formula_sum   'In72 Te108'
_cell_volume   6648.90734456
_cell_formula_units_Z   36
loop_
 _symmetry_equiv_pos_site_id
 _symmetry_equiv_pos_as_xyz
  1  'x, y, z'
loop_
 _atom_site_type_symbol
 _atom_site_label
 _atom_site_symmetry_multiplicity
 _atom_site_fract_x
 _atom_site_fract_y
 _atom_site_fract_z
 _atom_site_occupancy
  In  In0  1  0.83126313  0.51023527  -0.00320923  1
  In  In1  1  0.35574548  -0.00413534  0.34121204  1
  In  In2  1  0.33529848  0.14802836  0.51321306  1
  In  In3  1  0.65192901  0.16184041  0.17186561  1
  In  In4  1  0.49787971  0.68197086  0.16833701  1
  In  In5  1  0.66257056  0.66000757  0.67502198  1
  In  In6  1  0.48722941  0.32446440  0.83721282  1
  In  In7  1  0.33701373  -0.00681507  0.67601878  1
  In  In8  1  0.34462141  0.34263756  -0.00710393  1
  In  In9  1  0.64315484  -0.02363406  -0.01591394  1
  In  In10  1  0.00349770  0.65072805  -0.00711324  1
  In  In11  1  0.65090445  0.83704871  0.16441546  1
  In  In12  1  0.01109325  0.00431800  0.66032263  1
  In  In13  1  0.82768855  0.16842026  0.34938474  1
  In  In14  1  0.47255018  0.50988185  0.00900485  1
  In  In15  1  0.66372391  0.50099831  0.19146215  1
  In  In16  1  0.85480372  0.01721653  0.14264947  1
  In  In17  1  0.50421233  0.15662792  -0.01175684  1
  In  In18  1  0.19031875  0.63209898  0.13639592  1
  In  In19  1  0.84852169  0.36356530  0.52963074  1
  In  In20  1  0.16513624  0.84354365  0.67182006  1
  In  In21  1  0.67002649  0.52180285  0.50016604  1
  In  In22  1  0.15427061  0.34354588  0.16486434  1
  In  In23  1  0.81184408  0.17426285  0.66749496  1
  In  In24  1  0.63898968  0.69778530  -0.01956498  1
  In  In25  1  0.51794297  0.34535491  0.49628626  1
  In  In26  1  0.01423497  -0.00861734  -0.00622065  1
  In  In27  1  0.01204986  0.35414678  0.00250322  1
  In  In28  1  0.16016945  0.66751212  0.50097990  1
  In  In29  1  0.00628944  0.15892271  0.81162233  1
  In  In30  1  0.50650095  0.14506094  0.65249623  1
  In  In31  1  0.34100156  0.32822070  0.33067909  1
  In  In32  1  0.65436210  0.31504601  0.34698231  1
  In  In33  1  0.17106572  0.68533469  0.84070462  1
  In  In34  1  0.33146249  0.51299165  0.84525323  1
  In  In35  1  0.84827286  0.65772940  0.79948669  1
  In  In36  1  0.50516988  0.50990517  0.33950143  1
  In  In37  1  0.85504761  0.48984567  0.31280734  1
  In  In38  1  0.02514509  0.19878369  0.15526149  1
  In  In39  1  0.17997797  0.13628598  -0.01223685  1
  In  In40  1  0.80167291  0.00503071  0.82427296  1
  In  In41  1  0.84492032  0.80172037  0.64606631  1
  In  In42  1  0.68150584  0.31853321  -0.00229379  1
  In  In43  1  0.16481417  0.16529707  0.32521157  1
  In  In44  1  0.81432218  0.82662033  0.34840237  1
  In  In45  1  0.65025939  0.50684198  0.81810254  1
  In  In46  1  0.82687404  0.33284868  0.84300286  1
  In  In47  1  0.65771512  0.83110085  0.49868805  1
  In  In48  1  0.14269742  0.34710965  0.50767478  1
  In  In49  1  0.50014826  0.84263388  0.68016907  1
  In  In50  1  0.18573702  0.33726838  0.83263442  1
  In  In51  1  0.65155623  -0.01154226  0.32722375  1
  In  In52  1  0.65299642  0.34108542  0.65147006  1
  In  In53  1  0.37822372  0.64923207  0.65470883  1
  In  In54  1  0.34105821  0.67169639  0.33257961  1
  In  In55  1  0.35222345  0.84199953  0.15419390  1
  In  In56  1  0.35267673  0.83749444  0.50360370  1
  In  In57  1  0.17614349  0.83903030  -0.01244487  1
  In  In58  1  0.19153571  0.83992315  0.34363793  1
  In  In59  1  0.35382590  -0.02401074  -0.02143568  1
  In  In60  1  0.16660450  0.48842901  0.34672555  1
  In  In61  1  0.31667436  0.34298792  0.67526221  1
  In  In62  1  0.14246632  0.50461118  0.66250625  1
  In  In63  1  0.34744245  0.17612616  0.16924493  1
  In  In64  1  0.00686985  0.18634775  0.50861792  1
  In  In65  1  0.84778652  0.19271739  0.00270633  1
  In  In66  1  0.00252010  0.84519809  0.17238271  1
  In  In67  1  -0.00438509  0.82921618  0.83548579  1
  In  In68  1  -0.01097488  -0.00448962  0.34892243  1
  In  In69  1  0.00410129  0.65409250  0.34873998  1
  In  In70  1  0.80445429  -0.01421241  0.50458392  1
  In  In71  1  0.81569291  0.65640140  0.16151216  1
  Te  Te72  1  0.09132100  0.07326875  0.09672482  1
  Te  Te73  1  0.08691701  0.08309045  0.42820753  1
  Te  Te74  1  0.10923408  0.07807158  0.74378782  1
  Te  Te75  1  0.08669449  0.44986150  0.08645997  1
  Te  Te76  1  0.05537001  0.43577514  0.42817153  1
  Te  Te77  1  0.08037666  0.40015556  0.74866628  1
  Te  Te78  1  0.08513156  0.74961532  0.08246421  1
  Te  Te79  1  0.07952575  0.76800699  0.41913869  1
  Te  Te80  1  0.07059431  0.74153496  0.73690557  1
  Te  Te81  1  0.41865959  0.07292188  0.08209989  1
  Te  Te82  1  0.43768525  0.08870708  0.42569907  1
  Te  Te83  1  0.42464607  0.08227873  0.75787074  1
  Te  Te84  1  0.42224795  0.40612824  0.10052955  1
  Te  Te85  1  0.40873920  0.42716741  0.42610892  1
  Te  Te86  1  0.41839898  0.42926070  0.75197486  1
  Te  Te87  1  0.40915473  0.73964218  0.06396177  1
  Te  Te88  1  0.43378098  0.74529408  0.42063789  1
  Te  Te89  1  0.38399159  0.76929744  0.74494086  1
  Te  Te90  1  0.74417614  0.09210215  0.06794459  1
  Te  Te91  1  0.72355402  0.08585419  0.42321154  1
  Te  Te92  1  0.71057063  0.07716840  0.72517869  1
  Te  Te93  1  0.74690894  0.42204788  0.08852518  1
  Te  Te94  1  0.74599841  0.41520923  0.41721850  1
  Te  Te95  1  0.74852050  0.41892003  0.74271206  1
  Te  Te96  1  0.74593558  0.75882128  0.07392831  1
  Te  Te97  1  0.75789670  0.73442963  0.44651545  1
  Te  Te98  1  0.74665897  0.76238684  0.75548789  1
  Te  Te99  1  0.07406362  0.27822683  0.27787364  1
  Te  Te100  1  0.09125279  0.25275058  0.60890795  1
  Te  Te101  1  0.07689481  0.23922660  0.92496047  1
  Te  Te102  1  0.09497962  0.58387127  0.24929873  1
  Te  Te103  1  0.05224874  0.59113650  0.57419701  1
  Te  Te104  1  0.07947101  0.58004025  0.88958400  1
  Te  Te105  1  0.09431488  0.92851140  0.25934528  1
  Te  Te106  1  0.07741416  0.90720749  0.57139090  1
  Te  Te107  1  0.10110423  0.92685570  0.88713526  1
  Te  Te108  1  0.43868155  0.23601061  0.26902394  1
  Te  Te109  1  0.41759097  0.26582652  0.58810651  1
  Te  Te110  1  0.39314957  0.22779460  0.90735854  1
  Te  Te111  1  0.41148064  0.57584471  0.23635825  1
  Te  Te112  1  0.44384270  0.55490451  0.56566927  1
  Te  Te113  1  0.43437902  0.60551814  0.90305361  1
  Te  Te114  1  0.43433407  0.89632095  0.26399046  1
  Te  Te115  1  0.44076965  0.93786632  0.57635988  1
  Te  Te116  1  0.45066729  0.89675113  0.89760405  1
  Te  Te117  1  0.75076671  0.25154634  0.24631576  1
  Te  Te118  1  0.74108466  0.25657620  0.56057920  1
  Te  Te119  1  0.73876731  0.22053732  0.89626749  1
  Te  Te120  1  0.74136742  0.59652507  0.27839237  1
  Te  Te121  1  0.76524940  0.58281673  0.59786522  1
  Te  Te122  1  0.74031252  0.59670055  0.90899752  1
  Te  Te123  1  0.77284212  0.93151994  0.24087023  1
  Te  Te124  1  0.73120325  0.90680751  0.61012869  1
  Te  Te125  1  0.75617787  0.90499937  0.92091259  1
  Te  Te126  1  0.24222710  0.24883235  0.07846628  1
  Te  Te127  1  0.24627082  0.25106776  0.42510622  1
  Te  Te128  1  0.25444172  0.23453758  0.75396498  1
  Te  Te129  1  0.27366332  0.55312502  0.04645008  1
  Te  Te130  1  0.25969131  0.58166878  0.42556828  1
  Te  Te131  1  0.25159581  0.58887699  0.73651658  1
  Te  Te132  1  0.24748699  0.92860970  0.08674963  1
  Te  Te133  1  0.25365853  0.93693733  0.44135923  1
  Te  Te134  1  0.27520363  0.88550471  0.76496693  1
  Te  Te135  1  0.57066090  0.25774741  0.08248206  1
  Te  Te136  1  0.56339370  0.22423221  0.42248377  1
  Te  Te137  1  0.58262264  0.24775300  0.74787158  1
  Te  Te138  1  0.59722490  0.58452075  0.07982736  1
  Te  Te139  1  0.57610709  0.60805493  0.42421747  1
  Te  Te140  1  0.55649963  0.61131204  0.77060869  1
  Te  Te141  1  0.55449283  0.91351637  0.08377590  1
  Te  Te142  1  0.56339592  0.90951738  0.41517670  1
  Te  Te143  1  0.56688244  0.92111353  0.78996616  1
  Te  Te144  1  0.90703593  0.29013106  0.10741110  1
  Te  Te145  1  0.91462289  0.27037763  0.42155210  1
  Te  Te146  1  0.91499030  0.25889334  0.74085426  1
  Te  Te147  1  0.92551614  0.57170719  0.10027006  1
  Te  Te148  1  0.90413007  0.57526085  0.42264569  1
  Te  Te149  1  0.90859280  0.55488658  0.71180494  1
  Te  Te150  1  0.91206932  0.90038582  0.06178538  1
  Te  Te151  1  0.91348511  0.89980437  0.44103035  1
  Te  Te152  1  0.91107110  0.92138730  0.74445013  1
  Te  Te153  1  0.26042719  0.07764745  0.24832512  1
  Te  Te154  1  0.23970996  0.07988810  0.60143283  1
  Te  Te155  1  0.26532887  0.06138745  0.89524966  1
  Te  Te156  1  0.25936111  0.42307342  0.24344132  1
  Te  Te157  1  0.24767837  0.43532390  0.57585079  1
  Te  Te158  1  0.23343139  0.44057588  0.94339697  1
  Te  Te159  1  0.24281915  0.74428266  0.23579331  1
  Te  Te160  1  0.26073045  0.74431951  0.58646999  1
  Te  Te161  1  0.27009664  0.73441177  0.94091892  1
  Te  Te162  1  0.56326076  0.06409665  0.23549579  1
  Te  Te163  1  0.61704261  0.06178384  0.60301815  1
  Te  Te164  1  0.57469214  0.07072095  0.88925513  1
  Te  Te165  1  0.56836642  0.40026357  0.25277950  1
  Te  Te166  1  0.56209095  0.45745079  0.60094960  1
  Te  Te167  1  0.58269531  0.41312382  0.92215277  1
  Te  Te168  1  0.59597527  0.74127306  0.26095220  1
  Te  Te169  1  0.56809705  0.74263865  0.58778142  1
  Te  Te170  1  0.56936238  0.79223379  0.88940176  1
  Te  Te171  1  0.92974981  0.10075604  0.24910525  1
  Te  Te172  1  0.90066268  0.08690035  0.57534578  1
  Te  Te173  1  0.91506940  0.08027687  0.91387130  1
  Te  Te174  1  0.92293504  0.39787037  0.22432751  1
  Te  Te175  1  0.94258578  0.43125082  0.62138833  1
  Te  Te176  1  0.92430329  0.43302979  0.90372429  1
  Te  Te177  1  0.91434998  0.74745439  0.25020509  1
  Te  Te178  1  0.93069091  0.69246823  0.59435531  1
  Te  Te179  1  0.90454833  0.73905200  0.91793530  1
