# generated using pymatgen
data_In2Te3
_symmetry_space_group_name_H-M   'P 1'
_cell_length_a   18.94549814
_cell_length_b   18.96499915
_cell_length_c   18.95986337
_cell_angle_alpha   89.82089769
_cell_angle_beta   89.98367188
_cell_angle_gamma   90.03144430
_symmetry_Int_Tables_number   1
_chemical_formula_structural   In2Te3
_chemical_formula_sum   'In72 Te108'
_cell_volume   6812.27003240
_cell_formula_units_Z   36
loop_
 _symmetry_equiv_pos_site_id
 _symmetry_equiv_pos_as_xyz
  1  'x, y, z'
loop_
 _atom_site_type_symbol
 _atom_site_label
 _atom_site_symmetry_multiplicity
 _atom_site_fract_x
 _atom_site_fract_y
 _atom_site_fract_z
 _atom_site_occupancy
  In  In0  1  0.03456027  -0.00606545  0.33189482  1
  In  In1  1  0.16000918  0.17225895  0.31978760  1
  In  In2  1  0.69076405  0.33029800  0.65512197  1
  In  In3  1  0.18582519  0.83625578  0.00973425  1
  In  In4  1  0.33395394  0.17870130  0.83693583  1
  In  In5  1  0.30840119  0.35784572  0.32049441  1
  In  In6  1  0.82349941  0.82148210  0.68486774  1
  In  In7  1  0.68237533  0.65021277  0.34125792  1
  In  In8  1  0.64656907  0.83570578  0.52760956  1
  In  In9  1  0.00730041  0.66260200  -0.01505120  1
  In  In10  1  0.18302221  0.65861237  0.48455732  1
  In  In11  1  -0.01482807  0.47501677  0.16584308  1
  In  In12  1  0.49121928  -0.01057429  0.85218208  1
  In  In13  1  0.47849359  0.79405723  0.37500788  1
  In  In14  1  0.16093692  0.33432037  0.50569630  1
  In  In15  1  0.00245492  0.14797325  0.17009735  1
  In  In16  1  -0.00597818  0.01027601  0.00519412  1
  In  In17  1  0.67266462  0.18946398  0.50062062  1
  In  In18  1  0.50842419  0.19122486  0.66516172  1
  In  In19  1  0.00028900  0.20188479  0.81242357  1
  In  In20  1  0.67341195  0.84499346  0.84014616  1
  In  In21  1  0.82114938  0.31796472  0.17666866  1
  In  In22  1  0.32155450  -0.00589245  0.66904337  1
  In  In23  1  0.66833264  0.50175481  0.18196376  1
  In  In24  1  0.33817102  0.00847040  0.34468007  1
  In  In25  1  0.00215841  0.49977201  0.49179704  1
  In  In26  1  0.33560482  0.67760994  -0.00058959  1
  In  In27  1  -0.02126682  0.32885473  0.35174242  1
  In  In28  1  0.50558021  0.00356229  0.49807646  1
  In  In29  1  0.33332556  0.51233594  0.17465406  1
  In  In30  1  0.81810346  0.66810663  0.52829514  1
  In  In31  1  0.85052531  0.00579023  0.48937236  1
  In  In32  1  0.83619692  0.01334359  0.14750677  1
  In  In33  1  0.05397123  -0.03900012  0.64034111  1
  In  In34  1  0.17958306  0.18489456  0.68062089  1
  In  In35  1  0.32672004  0.33172625  0.01025645  1
  In  In36  1  -0.00058693  0.81494429  0.83456364  1
  In  In37  1  0.18182787  0.01946352  0.84688083  1
  In  In38  1  0.35859929  0.16414314  0.15228488  1
  In  In39  1  0.32779429  0.51140141  0.50999483  1
  In  In40  1  0.82004082  0.67332225  0.83070452  1
  In  In41  1  0.49025316  0.65950675  0.18128694  1
  In  In42  1  0.64145838  0.68247235  0.00700401  1
  In  In43  1  0.69506748  0.16329504  0.83422590  1
  In  In44  1  0.65161711  0.83769268  0.15392788  1
  In  In45  1  -0.00848650  0.65638398  0.65443676  1
  In  In46  1  0.84791410  0.48923345  0.66052565  1
  In  In47  1  0.85549481  0.49308818  -0.01161549  1
  In  In48  1  0.03228931  0.44986671  0.80423666  1
  In  In49  1  0.48443986  0.80744692  0.65592284  1
  In  In50  1  0.32702580  0.49863967  0.82949817  1
  In  In51  1  0.84329123  0.84074764  0.32599106  1
  In  In52  1  0.82507496  0.02861475  0.82762383  1
  In  In53  1  0.15149172  0.63221722  0.80719095  1
  In  In54  1  0.35287791  0.15727498  0.50609703  1
  In  In55  1  0.67741746  0.47709743  0.47955999  1
  In  In56  1  0.65662524  0.31915095  -0.00719648  1
  In  In57  1  -0.03365585  0.65813398  0.32261141  1
  In  In58  1  0.47029878  0.34501841  0.83343336  1
  In  In59  1  0.66268570  0.01813780  0.02600543  1
  In  In60  1  0.32328627  0.83949261  0.17995160  1
  In  In61  1  0.50260524  0.34329733  0.17582108  1
  In  In62  1  0.16516521  0.65912574  0.17271451  1
  In  In63  1  0.34551614  0.82626494  0.83800435  1
  In  In64  1  0.82330128  0.18618473  0.34062328  1
  In  In65  1  0.65232488  0.49971107  0.82271638  1
  In  In66  1  0.63808828  0.03353460  0.29153503  1
  In  In67  1  0.68565105  0.01739279  0.70888767  1
  In  In68  1  0.02152179  0.32311132  -0.00053442  1
  In  In69  1  0.16169174  0.81922679  0.34598837  1
  In  In70  1  0.50616834  0.65649797  0.82855558  1
  In  In71  1  0.49504120  0.30770735  0.48807648  1
  Te  Te72  1  0.09536921  0.08878728  0.07519440  1
  Te  Te73  1  0.08229460  0.09938341  0.41982842  1
  Te  Te74  1  0.08376500  0.07375007  0.74516891  1
  Te  Te75  1  0.09257105  0.42234735  0.08225178  1
  Te  Te76  1  0.09142365  0.41910311  0.39928779  1
  Te  Te77  1  0.14271714  0.39689214  0.72130214  1
  Te  Te78  1  0.08367801  0.75036668  0.08266014  1
  Te  Te79  1  0.06264754  0.72699479  0.41759823  1
  Te  Te80  1  0.08644771  0.74854397  0.73124309  1
  Te  Te81  1  0.44974399  0.05213410  0.11437297  1
  Te  Te82  1  0.44688992  0.10265066  0.40038513  1
  Te  Te83  1  0.42352317  0.08749717  0.74225750  1
  Te  Te84  1  0.41941885  0.42815477  0.08170808  1
  Te  Te85  1  0.40905007  0.41213539  0.42117977  1
  Te  Te86  1  0.42772444  0.44301611  0.73230743  1
  Te  Te87  1  0.42033673  0.76066477  0.09134582  1
  Te  Te88  1  0.36332669  0.74161797  0.45797244  1
  Te  Te89  1  0.39537975  0.72036529  0.74230145  1
  Te  Te90  1  0.75691575  0.11618174  0.08121198  1
  Te  Te91  1  0.73416356  0.07362571  0.41703300  1
  Te  Te92  1  0.79245386  0.13302735  0.70875097  1
  Te  Te93  1  0.75510765  0.41698380  0.07479682  1
  Te  Te94  1  0.79272520  0.43359474  0.40147771  1
  Te  Te95  1  0.75999741  0.41289074  0.76193151  1
  Te  Te96  1  0.74539933  0.75291144  0.08081095  1
  Te  Te97  1  0.75114697  0.76665064  0.43207976  1
  Te  Te98  1  0.71286145  0.73430950  0.74199998  1
  Te  Te99  1  0.06565952  0.26463608  0.24539755  1
  Te  Te100  1  0.07772428  0.25896019  0.60278743  1
  Te  Te101  1  0.10347130  0.24232961  0.90738741  1
  Te  Te102  1  0.06921592  0.57181721  0.25131770  1
  Te  Te103  1  0.09493532  0.57587702  0.58445795  1
  Te  Te104  1  0.07865879  0.55104719  0.91177682  1
  Te  Te105  1  0.10720074  0.90717906  0.24005410  1
  Te  Te106  1  0.14731878  0.89123399  0.55182692  1
  Te  Te107  1  0.08474800  0.91231643  0.91357319  1
  Te  Te108  1  0.40724105  0.25978734  0.26040160  1
  Te  Te109  1  0.39498626  0.26596120  0.60278763  1
  Te  Te110  1  0.42928085  0.24245527  0.93602012  1
  Te  Te111  1  0.41126183  0.58311967  0.27716706  1
  Te  Te112  1  0.41675469  0.62799407  0.54168292  1
  Te  Te113  1  0.42036167  0.57815859  0.92524417  1
  Te  Te114  1  0.42158121  0.90014113  0.27901450  1
  Te  Te115  1  0.41047964  0.91438296  0.57430888  1
  Te  Te116  1  0.38648770  0.92835803  0.93498156  1
  Te  Te117  1  0.71849264  0.26128722  0.26795353  1
  Te  Te118  1  0.77825926  0.28331711  0.54459979  1
  Te  Te119  1  0.76724617  0.24759798  0.92860136  1
  Te  Te120  1  0.75948893  0.60873852  0.22526948  1
  Te  Te121  1  0.73421240  0.56593959  0.59837755  1
  Te  Te122  1  0.74052989  0.58331200  0.92568058  1
  Te  Te123  1  0.74378479  0.92712249  0.24548562  1
  Te  Te124  1  0.74978229  0.92649520  0.59593430  1
  Te  Te125  1  0.75248043  0.93721951  0.92668721  1
  Te  Te126  1  0.24776062  0.24371056  0.09835146  1
  Te  Te127  1  0.25796777  0.24406500  0.42206667  1
  Te  Te128  1  0.24334340  0.28354917  0.77729086  1
  Te  Te129  1  0.24259547  0.58150339  0.06878114  1
  Te  Te130  1  0.24298824  0.55597754  0.39833945  1
  Te  Te131  1  0.25803922  0.57832580  0.72415402  1
  Te  Te132  1  0.23914375  0.93381940  0.10399009  1
  Te  Te133  1  0.24193122  0.92451150  0.42199890  1
  Te  Te134  1  0.24194712  0.90567455  0.76005527  1
  Te  Te135  1  0.57881479  0.24294325  0.09377255  1
  Te  Te136  1  0.59932686  0.26068916  0.39334178  1
  Te  Te137  1  0.59385174  0.26388727  0.76512621  1
  Te  Te138  1  0.57196314  0.57459798  0.08651871  1
  Te  Te139  1  0.58555979  0.57644224  0.42096628  1
  Te  Te140  1  0.55557665  0.55939189  0.72825050  1
  Te  Te141  1  0.55778720  0.92705416  0.08159235  1
  Te  Te142  1  0.58352753  0.90876100  0.40980804  1
  Te  Te143  1  0.56890771  0.91190933  0.74187321  1
  Te  Te144  1  0.92059497  0.24782771  0.08878017  1
  Te  Te145  1  0.91606697  0.23342836  0.44560363  1
  Te  Te146  1  0.89005524  0.24727262  0.73046445  1
  Te  Te147  1  0.91941919  0.58865073  0.08536294  1
  Te  Te148  1  0.88465225  0.57566393  0.42743029  1
  Te  Te149  1  0.92193751  0.58108031  0.76710642  1
  Te  Te150  1  0.92559357  0.91330718  0.09192524  1
  Te  Te151  1  0.94203176  0.90757020  0.41931162  1
  Te  Te152  1  0.91090514  0.91630278  0.76286851  1
  Te  Te153  1  0.25678377  0.08535016  0.24403001  1
  Te  Te154  1  0.24130001  0.08668721  0.58075701  1
  Te  Te155  1  0.27892568  0.08330824  0.93517249  1
  Te  Te156  1  0.23059649  0.40929472  0.20674910  1
  Te  Te157  1  0.23943048  0.42295428  0.59804494  1
  Te  Te158  1  0.24485756  0.40190206  0.90722843  1
  Te  Te159  1  0.25897024  0.73258530  0.26540444  1
  Te  Te160  1  0.24500073  0.76847254  0.56391474  1
  Te  Te161  1  0.22967916  0.73291176  0.90294456  1
  Te  Te162  1  0.55813959  0.11547714  0.19770867  1
  Te  Te163  1  0.59265574  0.08547781  0.59439450  1
  Te  Te164  1  0.58538069  0.08848075  0.91312405  1
  Te  Te165  1  0.58145784  0.42508906  0.27022838  1
  Te  Te166  1  0.58281403  0.39829754  0.57331622  1
  Te  Te167  1  0.56925537  0.42078045  0.92207777  1
  Te  Te168  1  0.58528597  0.75278096  0.26409153  1
  Te  Te169  1  0.56168288  0.71908993  0.56383183  1
  Te  Te170  1  0.56206061  0.77148019  0.91332626  1
  Te  Te171  1  0.90786443  0.07997125  0.27151082  1
  Te  Te172  1  0.94953546  0.04989175  0.58831975  1
  Te  Te173  1  0.92440789  0.10538602  0.91040694  1
  Te  Te174  1  0.88038665  0.42448011  0.27099335  1
  Te  Te175  1  0.95081972  0.40816201  0.59623996  1
  Te  Te176  1  0.92662162  0.39428119  0.90018029  1
  Te  Te177  1  0.92323537  0.76495670  0.23095169  1
  Te  Te178  1  0.92060800  0.76846039  0.58111322  1
  Te  Te179  1  0.89693655  0.75669481  0.93002657  1
