# generated using pymatgen
data_In2Te3
_symmetry_space_group_name_H-M   'P 1'
_cell_length_a   18.99269837
_cell_length_b   18.97822631
_cell_length_c   19.03040303
_cell_angle_alpha   89.80788842
_cell_angle_beta   90.22457539
_cell_angle_gamma   89.88436137
_symmetry_Int_Tables_number   1
_chemical_formula_structural   In2Te3
_chemical_formula_sum   'In72 Te108'
_cell_volume   6859.36012893
_cell_formula_units_Z   36
loop_
 _symmetry_equiv_pos_site_id
 _symmetry_equiv_pos_as_xyz
  1  'x, y, z'
loop_
 _atom_site_type_symbol
 _atom_site_label
 _atom_site_symmetry_multiplicity
 _atom_site_fract_x
 _atom_site_fract_y
 _atom_site_fract_z
 _atom_site_occupancy
  In  In0  1  0.02614809  0.63017930  0.62116937  1
  In  In1  1  0.68515578  0.15582268  0.16845951  1
  In  In2  1  0.17164897  0.51184177  0.34526894  1
  In  In3  1  0.84729192  -0.01364837  0.84961170  1
  In  In4  1  0.68804427  0.65769894  -0.00926778  1
  In  In5  1  0.00561877  0.29038270  -0.01682224  1
  In  In6  1  -0.00093767  0.15768498  0.51116621  1
  In  In7  1  0.33434965  0.49958746  0.48773470  1
  In  In8  1  0.46799479  0.86965483  0.32035060  1
  In  In9  1  0.26059877  0.89314520  0.89199911  1
  In  In10  1  0.00236994  0.15554322  0.14709634  1
  In  In11  1  -0.01044126  0.29857047  0.68823703  1
  In  In12  1  0.49075080  0.67623779  0.81682158  1
  In  In13  1  0.01941674  0.86550797  0.83369369  1
  In  In14  1  -0.00530079  0.68069250  0.34402321  1
  In  In15  1  0.49533401  0.02159715  0.48011646  1
  In  In16  1  0.51111605  0.81399229  0.68160710  1
  In  In17  1  0.50124544  0.48587225  0.67907954  1
  In  In18  1  0.47009063  0.69163500  0.17528728  1
  In  In19  1  0.84125742  0.48964219  -0.01972447  1
  In  In20  1  0.31065445  0.34205924  0.66841824  1
  In  In21  1  0.49950606  0.30931649  0.85381079  1
  In  In22  1  0.86336064  0.48750367  0.67082679  1
  In  In23  1  0.83393800  0.02007682  0.51936066  1
  In  In24  1  0.68606300  0.15577406  0.82832174  1
  In  In25  1  0.84463227  0.66465824  0.50031063  1
  In  In26  1  0.15532378  -0.00856374  0.50702599  1
  In  In27  1  0.15305992  0.31264039  0.83552768  1
  In  In28  1  0.47044780  0.85233617  -0.00843824  1
  In  In29  1  0.83908030  0.84362711  0.35794263  1
  In  In30  1  0.65499465  0.00368715  0.01596347  1
  In  In31  1  0.25119954  0.09047130  0.10472529  1
  In  In32  1  0.13815799  0.72995677  0.15021484  1
  In  In33  1  0.48348869  0.32683710  0.15970639  1
  In  In34  1  0.67676363  0.18157976  0.52572822  1
  In  In35  1  0.34669774  0.00454185  0.68737034  1
  In  In36  1  0.48765779  0.17918556  0.66212740  1
  In  In37  1  0.64725770  0.34613718  0.34606756  1
  In  In38  1  0.02150083  0.50295306  0.82707179  1
  In  In39  1  0.31193764  0.65515998  0.67786543  1
  In  In40  1  0.33890435  0.67529141  0.01016946  1
  In  In41  1  0.84127499  -0.02029437  0.13011185  1
  In  In42  1  0.17041514  0.29883021  0.14319167  1
  In  In43  1  0.16489378  0.83913306  0.34468680  1
  In  In44  1  0.00582226  0.49968318  0.17625559  1
  In  In45  1  0.02707541  0.00329974  0.32469007  1
  In  In46  1  0.33302588  0.34720166  0.34130391  1
  In  In47  1  0.50935457  0.67692358  0.49744689  1
  In  In48  1  0.48828599  0.17532803  0.32278054  1
  In  In49  1  0.67980716  -0.04143751  0.66517378  1
  In  In50  1  0.47664455  0.13986231  0.02300891  1
  In  In51  1  0.81758513  0.49742403  0.33685895  1
  In  In52  1  0.67577369  0.49574408  0.82256275  1
  In  In53  1  0.84337257  0.17896226  0.32401458  1
  In  In54  1  0.01355671  0.33996141  0.31797118  1
  In  In55  1  0.67501804  0.81663369  0.83757532  1
  In  In56  1  0.33360697  0.49499419  0.17029978  1
  In  In57  1  0.30968002  0.19942444  0.50417953  1
  In  In58  1  0.16136048  0.65440147  0.83416325  1
  In  In59  1  0.17028126  0.49495061  -0.00784533  1
  In  In60  1  0.66629277  0.51421474  0.49780916  1
  In  In61  1  0.66439013  0.81416780  0.15940671  1
  In  In62  1  0.67771635  0.48881168  0.16166667  1
  In  In63  1  0.14508394  0.14859994  0.68809435  1
  In  In64  1  0.65423778  -0.00298407  0.33321006  1
  In  In65  1  0.85804901  0.67597586  0.19111674  1
  In  In66  1  0.48498799  0.53259656  0.01510642  1
  In  In67  1  0.90133217  0.83494053  0.00373499  1
  In  In68  1  0.69757881  0.34201483  0.65660342  1
  In  In69  1  0.66581986  0.32169086  -0.02884200  1
  In  In70  1  0.15720290  0.84045115  0.63960716  1
  In  In71  1  0.34017874  0.81863094  0.52699575  1
  Te  Te72  1  0.10421113  0.10113938  0.05509229  1
  Te  Te73  1  0.10131726  0.09869299  0.41489825  1
  Te  Te74  1  0.05574376  0.09462254  0.79454777  1
  Te  Te75  1  0.07381516  0.40505329  0.07851484  1
  Te  Te76  1  0.07444816  0.42981561  0.42073819  1
  Te  Te77  1  0.08790798  0.40590373  0.73486612  1
  Te  Te78  1  0.03062161  0.77117084  0.06174525  1
  Te  Te79  1  0.07253851  0.76538197  0.43562980  1
  Te  Te80  1  0.09048310  0.75655667  0.74800207  1
  Te  Te81  1  0.40144562  0.04939968  0.11299364  1
  Te  Te82  1  0.38938607  0.10281958  0.41261358  1
  Te  Te83  1  0.42625325  0.09866846  0.76592242  1
  Te  Te84  1  0.40397503  0.41473930  0.06333879  1
  Te  Te85  1  0.43369403  0.41929764  0.41724156  1
  Te  Te86  1  0.41434200  0.40172822  0.76792775  1
  Te  Te87  1  0.38394676  0.79024410  0.09918873  1
  Te  Te88  1  0.41245230  0.75796634  0.41025908  1
  Te  Te89  1  0.38613259  0.76588574  0.75284226  1
  Te  Te90  1  0.77002571  0.09408208  0.06040721  1
  Te  Te91  1  0.74149842  0.09580841  0.40795719  1
  Te  Te92  1  0.76283024  0.05986716  0.74226645  1
  Te  Te93  1  0.75582950  0.40166729  0.06864385  1
  Te  Te94  1  0.75402185  0.40296842  0.43583330  1
  Te  Te95  1  0.77984512  0.40273916  0.76753624  1
  Te  Te96  1  0.77441824  0.75004468  0.07589159  1
  Te  Te97  1  0.75526407  0.73729317  0.40796458  1
  Te  Te98  1  0.69960134  0.73897470  0.71815835  1
  Te  Te99  1  0.08924525  0.22806872  0.24885578  1
  Te  Te100  1  0.09524766  0.24730063  0.58665851  1
  Te  Te101  1  0.12233536  0.20771074  0.93945790  1
  Te  Te102  1  0.08613127  0.61004016  0.24186502  1
  Te  Te103  1  0.10757121  0.53410696  0.55047382  1
  Te  Te104  1  0.06747409  0.59318426  0.93869056  1
  Te  Te105  1  0.12803404  0.94070537  0.23445174  1
  Te  Te106  1  0.05488169  0.94291873  0.60337910  1
  Te  Te107  1  0.11230293  0.93505568  0.92686942  1
  Te  Te108  1  0.38398381  0.24528537  0.23825132  1
  Te  Te109  1  0.41518440  0.28001618  0.57683421  1
  Te  Te110  1  0.40371931  0.23466433  0.93525651  1
  Te  Te111  1  0.41093943  0.58503960  0.25444512  1
  Te  Te112  1  0.42449348  0.59001043  0.59706390  1
  Te  Te113  1  0.40038304  0.58772255  0.90212621  1
  Te  Te114  1  0.38177282  0.96726650  0.24987734  1
  Te  Te115  1  0.43526498  0.92204293  0.58700050  1
  Te  Te116  1  0.40833211  0.95033309  0.90049406  1
  Te  Te117  1  0.74123700  0.26663861  0.25385666  1
  Te  Te118  1  0.78605799  0.23733051  0.60400097  1
  Te  Te119  1  0.77075989  0.24609390  0.90543958  1
  Te  Te120  1  0.74265647  0.59578739  0.24911341  1
  Te  Te121  1  0.76501127  0.57551677  0.59393749  1
  Te  Te122  1  0.77539079  0.59264937  0.88799427  1
  Te  Te123  1  0.74387039  0.92042855  0.23710715  1
  Te  Te124  1  0.76366694  0.89999290  0.56239621  1
  Te  Te125  1  0.74234046  0.91023477  0.93576863  1
  Te  Te126  1  0.27861037  0.23525071  0.06852656  1
  Te  Te127  1  0.22704329  0.27636117  0.41218420  1
  Te  Te128  1  0.25527024  0.22960747  0.75374559  1
  Te  Te129  1  0.24263589  0.58848293  0.08982480  1
  Te  Te130  1  0.26649097  0.60227620  0.40714711  1
  Te  Te131  1  0.23921445  0.55729455  0.75768611  1
  Te  Te132  1  0.22488883  0.93662067  0.03699797  1
  Te  Te133  1  0.26281183  0.91414604  0.43573967  1
  Te  Te134  1  0.23194867  0.92524505  0.74031660  1
  Te  Te135  1  0.58771045  0.24684611  0.08292569  1
  Te  Te136  1  0.57448863  0.24229676  0.42810953  1
  Te  Te137  1  0.59510410  0.26171578  0.74644703  1
  Te  Te138  1  0.58957600  0.60293643  0.09884594  1
  Te  Te139  1  0.57626330  0.58410862  0.40719645  1
  Te  Te140  1  0.59266476  0.59208581  0.73978247  1
  Te  Te141  1  0.56654468  0.91154384  0.09547723  1
  Te  Te142  1  0.57868200  0.90763705  0.42590217  1
  Te  Te143  1  0.57908080  0.91582310  0.77046030  1
  Te  Te144  1  0.91127578  0.25272704  0.08731919  1
  Te  Te145  1  0.92875093  0.25705250  0.41735200  1
  Te  Te146  1  0.94355905  0.20048938  0.79121085  1
  Te  Te147  1  0.90781124  0.57628570  0.08815787  1
  Te  Te148  1  0.92531607  0.56714462  0.41623549  1
  Te  Te149  1  0.93999914  0.59761088  0.74053585  1
  Te  Te150  1  0.97319680  0.93816373  0.08090678  1
  Te  Te151  1  0.92880603  0.94381903  0.42349567  1
  Te  Te152  1  0.89224501  0.88208544  0.75442831  1
  Te  Te153  1  0.24308749  0.04158904  0.24854187  1
  Te  Te154  1  0.25571526  0.08377855  0.58976873  1
  Te  Te155  1  0.28478836  0.03880356  0.93512369  1
  Te  Te156  1  0.22493436  0.41191657  0.23723934  1
  Te  Te157  1  0.23522036  0.43674745  0.57955562  1
  Te  Te158  1  0.24396070  0.40821719  0.90255848  1
  Te  Te159  1  0.24304851  0.76579406  0.24348224  1
  Te  Te160  1  0.22994225  0.72543519  0.57167295  1
  Te  Te161  1  0.23165394  0.74512105  0.93131557  1
  Te  Te162  1  0.57301045  0.08206482  0.23812390  1
  Te  Te163  1  0.58888263  0.07762145  0.59311946  1
  Te  Te164  1  0.58253476  0.09406253  0.91939391  1
  Te  Te165  1  0.56716892  0.42311242  0.24218841  1
  Te  Te166  1  0.58753478  0.41213604  0.58053290  1
  Te  Te167  1  0.57974129  0.44496235  0.92768146  1
  Te  Te168  1  0.56884013  0.76473343  0.26391213  1
  Te  Te169  1  0.60673211  0.74548503  0.59115811  1
  Te  Te170  1  0.56836868  0.74244979  0.93452453  1
  Te  Te171  1  0.90729595  0.06724743  0.24551759  1
  Te  Te172  1  0.93893861  0.06777379  0.61230814  1
  Te  Te173  1  0.93976647  0.08846999  0.90316640  1
  Te  Te174  1  0.90198165  0.41277892  0.24357792  1
  Te  Te175  1  0.92083019  0.38295411  0.58815847  1
  Te  Te176  1  0.93753923  0.40317639  0.90319305  1
  Te  Te177  1  0.93370692  0.79034779  0.25362800  1
  Te  Te178  1  0.95388659  0.74449650  0.56116543  1
  Te  Te179  1  0.91047902  0.76738502  0.87411667  1
