# generated using pymatgen
data_In2Te3
_symmetry_space_group_name_H-M   'P 1'
_cell_length_a   18.92700803
_cell_length_b   18.93332951
_cell_length_c   18.92904893
_cell_angle_alpha   89.90426007
_cell_angle_beta   90.07410177
_cell_angle_gamma   90.06809307
_symmetry_Int_Tables_number   1
_chemical_formula_structural   In2Te3
_chemical_formula_sum   'In72 Te108'
_cell_volume   6783.22899201
_cell_formula_units_Z   36
loop_
 _symmetry_equiv_pos_site_id
 _symmetry_equiv_pos_as_xyz
  1  'x, y, z'
loop_
 _atom_site_type_symbol
 _atom_site_label
 _atom_site_symmetry_multiplicity
 _atom_site_fract_x
 _atom_site_fract_y
 _atom_site_fract_z
 _atom_site_occupancy
  In  In0  1  0.66199297  0.17804002  0.49762368  1
  In  In1  1  0.85509637  0.67317211  0.82756205  1
  In  In2  1  0.65125942  0.68648576  0.62134203  1
  In  In3  1  0.82911684  0.33600879  0.50625821  1
  In  In4  1  0.30335907  0.52407409  0.81892608  1
  In  In5  1  0.66588700  0.29996516  0.32730511  1
  In  In6  1  0.33671693  0.33533404  0.33739858  1
  In  In7  1  0.48659813  -0.05681497  0.14852118  1
  In  In8  1  0.31966060  0.49670444  0.15762428  1
  In  In9  1  0.49649133  0.66709148  0.84225962  1
  In  In10  1  0.17473164  0.67210688  0.19958314  1
  In  In11  1  -0.01434520  0.35007154  0.66487947  1
  In  In12  1  0.49795725  0.16203102  -0.00255470  1
  In  In13  1  0.51441666  0.00044651  0.82107902  1
  In  In14  1  0.32904929  -0.00992255  -0.00259225  1
  In  In15  1  0.65799971  0.33554396  -0.00665001  1
  In  In16  1  0.47814730  0.33095136  0.19086106  1
  In  In17  1  0.29218670  -0.05040123  0.65641567  1
  In  In18  1  0.00452750  0.16424013  0.51294974  1
  In  In19  1  0.68161955  0.51800322  0.17347248  1
  In  In20  1  0.64997630  0.50607675  0.50321807  1
  In  In21  1  0.15784480  0.31952670  0.84801675  1
  In  In22  1  0.48865680  0.17522093  0.69479908  1
  In  In23  1  0.16692729  -0.00952912  0.82140783  1
  In  In24  1  0.36951854  0.69719137  0.03649829  1
  In  In25  1  0.18172537  0.81939019  0.01900764  1
  In  In26  1  0.69106737  0.50369883  0.81591277  1
  In  In27  1  0.32142141  0.17606417  0.48904256  1
  In  In28  1  0.85137826  -0.03268612  0.47763872  1
  In  In29  1  0.67501430  0.13504697  0.15096365  1
  In  In30  1  0.35989924  0.69581922  0.33311460  1
  In  In31  1  0.66772627  0.84084144  0.83091341  1
  In  In32  1  0.68119162  -0.03051383  0.63759431  1
  In  In33  1  0.18484613  0.16779458  0.34808179  1
  In  In34  1  0.13550869  -0.03575097  0.19590013  1
  In  In35  1  0.32053743  0.35617675  0.64884008  1
  In  In36  1  0.48328098  0.17229407  0.30578329  1
  In  In37  1  0.31559643  -0.02650541  0.34496891  1
  In  In38  1  0.83620273  -0.02073015  0.17363178  1
  In  In39  1  0.00392723  0.35397099  0.34162954  1
  In  In40  1  0.65825152  0.17157305  0.81859299  1
  In  In41  1  0.69843151  -0.03359081  0.00653141  1
  In  In42  1  0.68627368  0.71418514  0.02956361  1
  In  In43  1  0.48335792  0.51467377  0.33622006  1
  In  In44  1  -0.02377973  0.68052489  0.31934613  1
  In  In45  1  0.82589010  0.33662448  0.81874768  1
  In  In46  1  0.00186922  0.82260449  0.50052824  1
  In  In47  1  0.30997160  0.68415903  0.65053872  1
  In  In48  1  0.14543802  -0.01969387  0.51049829  1
  In  In49  1  0.84845579  0.50935175  0.33833759  1
  In  In50  1  0.33593534  0.84976779  0.83036309  1
  In  In51  1  0.01563640  0.31945016  0.00196388  1
  In  In52  1  -0.02238772  0.68655795  0.01395580  1
  In  In53  1  0.83793479  0.14678444  0.69338506  1
  In  In54  1  -0.00633019  -0.00233714  -0.00247869  1
  In  In55  1  0.34797606  0.16246689  0.84964250  1
  In  In56  1  0.50010069  -0.01402530  0.51061420  1
  In  In57  1  0.65328335  0.71091608  0.32360627  1
  In  In58  1  0.00329897  0.16435404  0.15471279  1
  In  In59  1  0.83882748  0.52298882  -0.01078442  1
  In  In60  1  0.04531808  0.66678270  0.65294507  1
  In  In61  1  0.17023041  0.30807640  0.13234304  1
  In  In62  1  0.14929354  0.15941154  0.68495193  1
  In  In63  1  0.86418174  0.83740565  0.68427061  1
  In  In64  1  0.51099764  0.49952556  0.02179034  1
  In  In65  1  0.14701271  0.51106714  -0.01292748  1
  In  In66  1  0.01160574  0.51617861  0.82912444  1
  In  In67  1  0.49641844  0.49735569  0.65315828  1
  In  In68  1  0.15088119  0.51573379  0.35862615  1
  In  In69  1  0.67129487  -0.04290340  0.32916312  1
  In  In70  1  0.82394063  0.15099776  0.31843897  1
  In  In71  1  0.32405992  0.51957118  0.48275384  1
  Te  Te72  1  0.09883607  0.06830015  0.08960016  1
  Te  Te73  1  0.08092330  0.07864300  0.41353749  1
  Te  Te74  1  0.05898132  0.05669157  0.74213842  1
  Te  Te75  1  0.08063651  0.42328204  0.09197403  1
  Te  Te76  1  0.05923923  0.44008716  0.44885918  1
  Te  Te77  1  0.09415237  0.41712303  0.75063289  1
  Te  Te78  1  0.08181691  0.75092712  0.10809633  1
  Te  Te79  1  0.08525517  0.74761535  0.40022766  1
  Te  Te80  1  0.06194169  0.79464527  0.72482612  1
  Te  Te81  1  0.42105036  0.07066833  0.08947629  1
  Te  Te82  1  0.41535991  0.08140821  0.41634668  1
  Te  Te83  1  0.39459841  0.05864226  0.74588833  1
  Te  Te84  1  0.40672404  0.40303428  0.07632534  1
  Te  Te85  1  0.42364610  0.41537193  0.43336614  1
  Te  Te86  1  0.40317202  0.42945803  0.75373411  1
  Te  Te87  1  0.44989650  0.79434718  0.11504770  1
  Te  Te88  1  0.45424458  0.75162971  0.42958588  1
  Te  Te89  1  0.41482274  0.75099972  0.74685309  1
  Te  Te90  1  0.78433118  0.07824233  0.06548866  1
  Te  Te91  1  0.74134904  0.07160358  0.42156552  1
  Te  Te92  1  0.73258733  0.05598127  0.75434602  1
  Te  Te93  1  0.74943941  0.42738667  0.07268963  1
  Te  Te94  1  0.73841717  0.40770910  0.40490969  1
  Te  Te95  1  0.76869567  0.42759741  0.71939820  1
  Te  Te96  1  0.81640644  0.74648452  0.09043014  1
  Te  Te97  1  0.74811432  0.78588705  0.41078732  1
  Te  Te98  1  0.74679900  0.74766024  0.73816564  1
  Te  Te99  1  0.09306138  0.25116147  0.25561097  1
  Te  Te100  1  0.08959984  0.26196378  0.58964588  1
  Te  Te101  1  0.08307114  0.21789965  0.92133383  1
  Te  Te102  1  0.06802711  0.57559685  0.24784904  1
  Te  Te103  1  0.11674762  0.56795020  0.57286857  1
  Te  Te104  1  0.07941728  0.62276355  0.91140840  1
  Te  Te105  1  0.08224002  0.87061049  0.29869028  1
  Te  Te106  1  0.05700462  0.91133456  0.60903943  1
  Te  Te107  1  0.09840444  0.90554074  0.92793332  1
  Te  Te108  1  0.36302771  0.23089235  0.22612489  1
  Te  Te109  1  0.41160536  0.25104418  0.58566953  1
  Te  Te110  1  0.44421535  0.25934952  0.90191822  1
  Te  Te111  1  0.41424468  0.59264726  0.22779420  1
  Te  Te112  1  0.41434827  0.59727685  0.57625383  1
  Te  Te113  1  0.41052803  0.58001177  0.93391451  1
  Te  Te114  1  0.43078209  0.90899635  0.28072016  1
  Te  Te115  1  0.40185777  0.89478720  0.57618207  1
  Te  Te116  1  0.43749112  0.91499232  0.92249537  1
  Te  Te117  1  0.75821431  0.24760946  0.22154420  1
  Te  Te118  1  0.75688260  0.23976358  0.59892961  1
  Te  Te119  1  0.75073810  0.24467175  0.91480900  1
  Te  Te120  1  0.75402148  0.61002433  0.26561860  1
  Te  Te121  1  0.74910060  0.59982234  0.55669735  1
  Te  Te122  1  0.73519346  0.61083555  0.91816284  1
  Te  Te123  1  0.78687871  0.87484495  0.27751562  1
  Te  Te124  1  0.75797096  0.87272509  0.55026765  1
  Te  Te125  1  0.78177223  0.88320528  0.91722137  1
  Te  Te126  1  0.28480763  0.23771621  0.08471672  1
  Te  Te127  1  0.22969221  0.28404333  0.43524406  1
  Te  Te128  1  0.25943853  0.24784080  0.74778701  1
  Te  Te129  1  0.24131478  0.59703628  0.07444389  1
  Te  Te130  1  0.24418736  0.62351748  0.40929837  1
  Te  Te131  1  0.21831891  0.61863567  0.74762044  1
  Te  Te132  1  0.25591661  0.91576433  0.10744107  1
  Te  Te133  1  0.24248106  0.88607798  0.44342836  1
  Te  Te134  1  0.20536302  0.85708171  0.74420521  1
  Te  Te135  1  0.57982439  0.25114177  0.10083335  1
  Te  Te136  1  0.55487629  0.25131645  0.41713727  1
  Te  Te137  1  0.58411386  0.27396954  0.74553614  1
  Te  Te138  1  0.59057616  0.60714603  0.09096092  1
  Te  Te139  1  0.57934526  0.60364182  0.40913133  1
  Te  Te140  1  0.58571506  0.59550571  0.74040836  1
  Te  Te141  1  0.62861512  0.89799267  0.12111907  1
  Te  Te142  1  0.58282870  0.88981689  0.43053393  1
  Te  Te143  1  0.57539680  0.90066430  0.72399232  1
  Te  Te144  1  0.91239913  0.24837705  0.07728673  1
  Te  Te145  1  0.90928228  0.23882923  0.41196342  1
  Te  Te146  1  0.93267078  0.24397830  0.76173212  1
  Te  Te147  1  0.91552508  0.58263368  0.09811586  1
  Te  Te148  1  0.90480573  0.60996159  0.42796421  1
  Te  Te149  1  0.92247908  0.58340837  0.73009451  1
  Te  Te150  1  0.93297625  0.90189392  0.09403499  1
  Te  Te151  1  0.95726764  0.91386488  0.38689266  1
  Te  Te152  1  0.91957234  0.94792554  0.76936934  1
  Te  Te153  1  0.24032541  0.06534749  0.25159923  1
  Te  Te154  1  0.24354380  0.08295621  0.58248496  1
  Te  Te155  1  0.23910051  0.08407394  0.91904089  1
  Te  Te156  1  0.23913570  0.42688963  0.26441222  1
  Te  Te157  1  0.23192514  0.46215989  0.58795781  1
  Te  Te158  1  0.24689470  0.41965314  0.91902974  1
  Te  Te159  1  0.26641138  0.77480388  0.25055062  1
  Te  Te160  1  0.24787702  0.78483502  0.56307438  1
  Te  Te161  1  0.27695917  0.74677147  0.92627882  1
  Te  Te162  1  0.59459107  0.07684658  0.26509101  1
  Te  Te163  1  0.58201506  0.08955444  0.59656169  1
  Te  Te164  1  0.59850924  0.06681803  0.93279996  1
  Te  Te165  1  0.58149106  0.42547489  0.25206757  1
  Te  Te166  1  0.58280456  0.40306930  0.58287867  1
  Te  Te167  1  0.58573993  0.43597223  0.90563814  1
  Te  Te168  1  0.57240606  0.77632704  0.21627179  1
  Te  Te169  1  0.54944515  0.76636004  0.55299696  1
  Te  Te170  1  0.57889537  0.76259873  0.92669962  1
  Te  Te171  1  0.93209662  0.07047941  0.25191440  1
  Te  Te172  1  0.90322169  0.07157445  0.57737610  1
  Te  Te173  1  0.90402818  0.03966591  0.88830202  1
  Te  Te174  1  0.90409452  0.40637557  0.24991065  1
  Te  Te175  1  0.92152659  0.43598295  0.56255531  1
  Te  Te176  1  0.92215888  0.42109682  0.91045289  1
  Te  Te177  1  0.89479539  0.76267376  0.22412730  1
  Te  Te178  1  0.91781949  0.73252176  0.58806087  1
  Te  Te179  1  0.91946256  0.77652059  0.90897473  1
