# generated using pymatgen
data_In2Te3
_symmetry_space_group_name_H-M   'P 1'
_cell_length_a   18.91176660
_cell_length_b   18.93732849
_cell_length_c   18.95289039
_cell_angle_alpha   89.94701883
_cell_angle_beta   89.94944515
_cell_angle_gamma   90.16119134
_symmetry_Int_Tables_number   1
_chemical_formula_structural   In2Te3
_chemical_formula_sum   'In72 Te108'
_cell_volume   6787.72421678
_cell_formula_units_Z   36
loop_
 _symmetry_equiv_pos_site_id
 _symmetry_equiv_pos_as_xyz
  1  'x, y, z'
loop_
 _atom_site_type_symbol
 _atom_site_label
 _atom_site_symmetry_multiplicity
 _atom_site_fract_x
 _atom_site_fract_y
 _atom_site_fract_z
 _atom_site_occupancy
  In  In0  1  0.48384394  0.82864990  0.65305491  1
  In  In1  1  0.53178585  0.32870755  0.16779981  1
  In  In2  1  0.82773661  0.68069813  0.84915394  1
  In  In3  1  0.07103676  0.01545033  0.13973908  1
  In  In4  1  0.48246360  0.55737167  0.63625998  1
  In  In5  1  0.33801901  0.37153105  0.66081596  1
  In  In6  1  0.16373378  0.82893779  0.65722634  1
  In  In7  1  0.31082470  0.15683785  0.51737607  1
  In  In8  1  0.12198450  0.83079792  0.02844029  1
  In  In9  1  0.32787356  0.69440473  0.34400099  1
  In  In10  1  0.16351746  0.63671948  0.84412492  1
  In  In11  1  0.47945313  0.67052088  0.17172663  1
  In  In12  1  0.68371951  -0.01187137  -0.00165276  1
  In  In13  1  0.34620848  0.19075978  0.16259550  1
  In  In14  1  0.50808909  -0.02055194  0.83987697  1
  In  In15  1  0.47106947  0.82301133  0.01917662  1
  In  In16  1  0.73675403  0.14448567  0.51120225  1
  In  In17  1  0.30791312  0.48678743  0.84039875  1
  In  In18  1  0.02068864  0.32243600  0.33142787  1
  In  In19  1  0.65641120  0.66320766  -0.02129858  1
  In  In20  1  0.87457450  0.16591650  -0.02407888  1
  In  In21  1  0.14868561  0.32475945  0.14864615  1
  In  In22  1  0.47663326  0.53650572  0.34780638  1
  In  In23  1  0.51253102  0.16287217  0.64556620  1
  In  In24  1  0.29612225  0.82353586  0.83626515  1
  In  In25  1  0.81246780  0.51068282  0.33055932  1
  In  In26  1  0.82730299  0.64916102  0.17765113  1
  In  In27  1  0.66979403  0.48144287  0.83125622  1
  In  In28  1  0.12581109  0.29259343  0.80681417  1
  In  In29  1  0.31995472  0.00120139  0.67257575  1
  In  In30  1  0.49583780  0.65524959  0.82902554  1
  In  In31  1  0.47120861  0.49764846  -0.00473309  1
  In  In32  1  0.32744521  0.83749852  0.18240485  1
  In  In33  1  0.30643618  0.02128400  0.01299269  1
  In  In34  1  0.88787751  0.34969342  0.54391227  1
  In  In35  1  0.84115876  0.33130550  0.14209177  1
  In  In36  1  0.13894946  0.51612204  0.32042352  1
  In  In37  1  0.85499034  0.01413145  0.81183263  1
  In  In38  1  0.85569585  0.67825704  0.48898206  1
  In  In39  1  0.85120426  0.84484189  0.33679551  1
  In  In40  1  -0.00304905  0.49807086  0.16794225  1
  In  In41  1  0.31301727  0.16225797  0.83558023  1
  In  In42  1  -0.02882481  0.14961318  0.53612674  1
  In  In43  1  0.14152696  0.67248312  0.50710276  1
  In  In44  1  -0.01047807  0.83697220  0.84466258  1
  In  In45  1  0.50150891  0.35251517  0.47414102  1
  In  In46  1  0.17526612  0.13970881  0.34921018  1
  In  In47  1  0.32245601  -0.02833522  0.33787562  1
  In  In48  1  0.88257500  0.32657726  0.81262585  1
  In  In49  1  0.16071434  -0.01998173  0.49746767  1
  In  In50  1  0.49972739  0.13223411  -0.01994979  1
  In  In51  1  0.00784843  0.66242969  0.30539444  1
  In  In52  1  0.67064064  0.84045067  0.80159314  1
  In  In53  1  0.52028886  0.15207825  0.33103805  1
  In  In54  1  0.86229259  0.84466369  0.01753350  1
  In  In55  1  0.15615477  0.34048146  0.53602976  1
  In  In56  1  0.32415664  0.36659028  0.33790613  1
  In  In57  1  -0.01793052  0.67424906  0.66241575  1
  In  In58  1  0.00186477  0.49853309  0.85220014  1
  In  In59  1  0.67565508  0.33722667  0.65533805  1
  In  In60  1  0.69898229  0.85278728  0.50826862  1
  In  In61  1  0.68240699  0.00496340  0.33369694  1
  In  In62  1  0.65945661  0.82336509  0.17452631  1
  In  In63  1  0.70445161  0.67729492  0.65133971  1
  In  In64  1  0.67229764  0.34765226  0.33273689  1
  In  In65  1  0.30504870  0.37325788  0.00904195  1
  In  In66  1  0.66799742  0.51883736  0.48447524  1
  In  In67  1  0.87221820  0.14519216  0.31224055  1
  In  In68  1  0.49829132  -0.01658442  0.50086943  1
  In  In69  1  0.49420801  0.32201366  0.82020393  1
  In  In70  1  0.69303136  0.16740759  0.14468321  1
  In  In71  1  0.73832795  0.32846326  -0.00641203  1
  Te  Te72  1  0.05900301  0.13380926  0.04843518  1
  Te  Te73  1  0.06509000  0.08292906  0.43568523  1
  Te  Te74  1  0.07718466  0.14595063  0.79341102  1
  Te  Te75  1  0.05286992  0.40248415  0.06896083  1
  Te  Te76  1  0.08259631  0.42083486  0.42637815  1
  Te  Te77  1  0.07463586  0.42250351  0.74385452  1
  Te  Te78  1  0.06751425  0.74497080  0.13502875  1
  Te  Te79  1  0.05915803  0.75525748  0.41223298  1
  Te  Te80  1  0.08233970  0.74350326  0.76083176  1
  Te  Te81  1  0.42166010  0.07506344  0.09720196  1
  Te  Te82  1  0.41162383  0.08982372  0.42534658  1
  Te  Te83  1  0.42567850  0.08320525  0.74952581  1
  Te  Te84  1  0.41859090  0.41220327  0.11043440  1
  Te  Te85  1  0.39177031  0.45183326  0.44387249  1
  Te  Te86  1  0.43711094  0.44470969  0.75102999  1
  Te  Te87  1  0.37078840  0.73111076  0.08226508  1
  Te  Te88  1  0.43622703  0.72784197  0.43811856  1
  Te  Te89  1  0.40179712  0.75049794  0.75440509  1
  Te  Te90  1  0.78376896  0.07462738  0.07090837  1
  Te  Te91  1  0.80433074  0.05101235  0.41244358  1
  Te  Te92  1  0.75806414  0.05405436  0.70719814  1
  Te  Te93  1  0.72873189  0.41829578  0.10785378  1
  Te  Te94  1  0.76291919  0.40489753  0.44057138  1
  Te  Te95  1  0.77187862  0.41483077  0.74355314  1
  Te  Te96  1  0.74303929  0.75230798  0.06689620  1
  Te  Te97  1  0.75230264  0.75259668  0.40587159  1
  Te  Te98  1  0.78817589  0.77310130  0.73330595  1
  Te  Te99  1  0.09395312  0.22087957  0.24871234  1
  Te  Te100  1  0.05659175  0.25056317  0.60602826  1
  Te  Te101  1  0.05283700  0.22779523  0.92476398  1
  Te  Te102  1  0.11031755  0.60641832  0.19553576  1
  Te  Te103  1  0.05699058  0.57382710  0.58197237  1
  Te  Te104  1  0.07685543  0.58174173  0.94826954  1
  Te  Te105  1  0.08237833  0.95014450  0.27375771  1
  Te  Te106  1  0.06290191  0.90671860  0.58262535  1
  Te  Te107  1  0.07106406  0.92984395  0.92845356  1
  Te  Te108  1  0.42606660  0.26436762  0.27421763  1
  Te  Te109  1  0.41880709  0.26022190  0.57452470  1
  Te  Te110  1  0.41279644  0.24316479  0.92218691  1
  Te  Te111  1  0.37710592  0.58606274  0.24561911  1
  Te  Te112  1  0.39236835  0.64499396  0.56034610  1
  Te  Te113  1  0.38768317  0.60016808  0.91955490  1
  Te  Te114  1  0.43079596  0.90539593  0.26405972  1
  Te  Te115  1  0.38469666  0.90972646  0.57048093  1
  Te  Te116  1  0.39312910  0.91960905  0.92012507  1
  Te  Te117  1  0.75410108  0.23692884  0.26593600  1
  Te  Te118  1  0.78987455  0.24963904  0.60742029  1
  Te  Te119  1  0.77370424  0.23384948  0.88490991  1
  Te  Te120  1  0.71818357  0.59622677  0.25984431  1
  Te  Te121  1  0.77864016  0.57193400  0.57499824  1
  Te  Te122  1  0.75678889  0.56412205  0.92416229  1
  Te  Te123  1  0.76095796  0.91789292  0.23650955  1
  Te  Te124  1  0.77498134  0.94215628  0.59978551  1
  Te  Te125  1  0.76841985  0.90494340  0.90259636  1
  Te  Te126  1  0.24484181  0.24118876  0.06418358  1
  Te  Te127  1  0.24489373  0.26303938  0.42143678  1
  Te  Te128  1  0.26281786  0.26163646  0.73428629  1
  Te  Te129  1  0.29040667  0.51609690  0.03408980  1
  Te  Te130  1  0.23018175  0.59333587  0.41057285  1
  Te  Te131  1  0.24860065  0.57614192  0.74045854  1
  Te  Te132  1  0.23087098  0.92067663  0.09583712  1
  Te  Te133  1  0.23512185  0.88082280  0.41468459  1
  Te  Te134  1  0.21903101  0.92938044  0.76055164  1
  Te  Te135  1  0.58657571  0.23495993  0.06043114  1
  Te  Te136  1  0.59834986  0.24578202  0.42448718  1
  Te  Te137  1  0.59800700  0.24049999  0.74472736  1
  Te  Te138  1  0.56689680  0.58869607  0.07475454  1
  Te  Te139  1  0.57172120  0.61680331  0.42974535  1
  Te  Te140  1  0.61025951  0.59635119  0.74702400  1
  Te  Te141  1  0.57735479  0.91414988  0.07876591  1
  Te  Te142  1  0.59356633  0.90844345  0.41128626  1
  Te  Te143  1  0.58073473  0.92887194  0.71698033  1
  Te  Te144  1  0.93101480  0.22058624  0.10572101  1
  Te  Te145  1  0.92203622  0.24780837  0.42110823  1
  Te  Te146  1  0.95293462  0.21572519  0.74075711  1
  Te  Te147  1  0.90137038  0.56847759  0.08272265  1
  Te  Te148  1  0.92768555  0.57551442  0.40330701  1
  Te  Te149  1  0.90854872  0.58736335  0.76387195  1
  Te  Te150  1  0.94917017  0.92690121  0.10186275  1
  Te  Te151  1  0.98603222  0.89060439  0.38146128  1
  Te  Te152  1  0.95947737  0.93632443  0.73748579  1
  Te  Te153  1  0.27229689  0.08386471  0.24878325  1
  Te  Te154  1  0.21311265  0.08545820  0.60450468  1
  Te  Te155  1  0.21925389  0.07707420  0.90893192  1
  Te  Te156  1  0.22777609  0.42240028  0.23756294  1
  Te  Te157  1  0.23620422  0.45102804  0.59234011  1
  Te  Te158  1  0.20452118  0.39429628  0.89682342  1
  Te  Te159  1  0.22665122  0.77904048  0.27563137  1
  Te  Te160  1  0.25266602  0.73207074  0.58881633  1
  Te  Te161  1  0.21786005  0.74874529  0.93875064  1
  Te  Te162  1  0.59827486  0.07609387  0.22809937  1
  Te  Te163  1  0.60232591  0.08075915  0.55646795  1
  Te  Te164  1  0.61245376  0.07516224  0.89487742  1
  Te  Te165  1  0.56864511  0.43640240  0.27067400  1
  Te  Te166  1  0.57783147  0.42944936  0.58288795  1
  Te  Te167  1  0.57569802  0.40587491  0.92271145  1
  Te  Te168  1  0.55096735  0.76671059  0.25719311  1
  Te  Te169  1  0.59992587  0.75978937  0.58054166  1
  Te  Te170  1  0.57058243  0.77199446  0.90496184  1
  Te  Te171  1  0.95382284  0.04313794  0.23995544  1
  Te  Te172  1  0.89347447  0.04582988  0.61223390  1
  Te  Te173  1  0.94737687  0.04379846  0.92656839  1
  Te  Te174  1  0.91022266  0.40441712  0.26412629  1
  Te  Te175  1  0.97143584  0.43666012  0.62701806  1
  Te  Te176  1  0.92856063  0.39643945  0.93470675  1
  Te  Te177  1  0.91895987  0.75919485  0.22629337  1
  Te  Te178  1  0.92455263  0.77729880  0.57291071  1
  Te  Te179  1  0.93426684  0.73350406  0.94387001  1
