# generated using pymatgen
data_In2Te3
_symmetry_space_group_name_H-M   'P 1'
_cell_length_a   18.80643139
_cell_length_b   18.79364843
_cell_length_c   18.80838872
_cell_angle_alpha   89.94568587
_cell_angle_beta   89.98915291
_cell_angle_gamma   90.03143894
_symmetry_Int_Tables_number   1
_chemical_formula_structural   In2Te3
_chemical_formula_sum   'In72 Te108'
_cell_volume   6647.66025823
_cell_formula_units_Z   36
loop_
 _symmetry_equiv_pos_site_id
 _symmetry_equiv_pos_as_xyz
  1  'x, y, z'
loop_
 _atom_site_type_symbol
 _atom_site_label
 _atom_site_symmetry_multiplicity
 _atom_site_fract_x
 _atom_site_fract_y
 _atom_site_fract_z
 _atom_site_occupancy
  In  In0  1  0.52332061  0.86863557  0.67977001  1
  In  In1  1  0.50047868  0.48743220  -0.01475994  1
  In  In2  1  0.00266980  0.65368062  0.64708856  1
  In  In3  1  0.35434530  -0.00440632  0.68733291  1
  In  In4  1  -0.00435338  0.33599088  -0.00399319  1
  In  In5  1  0.67184898  0.65058050  0.34295075  1
  In  In6  1  0.17194573  0.69320383  0.50166803  1
  In  In7  1  -0.02008669  -0.00304790  0.32497169  1
  In  In8  1  0.81419377  0.30772274  0.16408123  1
  In  In9  1  0.80516548  0.84783152  0.66464715  1
  In  In10  1  0.18459456  0.00407841  0.86866097  1
  In  In11  1  0.65347959  0.85760799  0.16250612  1
  In  In12  1  0.00897320  0.48957764  0.82020351  1
  In  In13  1  0.19094018  0.17317691  0.00496928  1
  In  In14  1  0.16539371  0.85274899  0.00973585  1
  In  In15  1  0.36043811  0.49225001  0.16844456  1
  In  In16  1  0.17639921  0.17357632  0.67046556  1
  In  In17  1  0.51787891  0.16319682  0.36046640  1
  In  In18  1  0.00704646  0.67705749  0.00976281  1
  In  In19  1  0.82055003  0.17984230  0.65261860  1
  In  In20  1  0.35818415  0.33209143  0.67315126  1
  In  In21  1  0.66303140  0.49548949  0.83366867  1
  In  In22  1  0.64713575  0.68302537  -0.00536079  1
  In  In23  1  0.82289943  0.50173485  0.64918544  1
  In  In24  1  0.19166198  0.68850355  0.81860719  1
  In  In25  1  0.51971728  0.32138335  0.50158103  1
  In  In26  1  0.48661147  0.29935814  0.84934076  1
  In  In27  1  -0.00079884  0.15692971  0.18083347  1
  In  In28  1  0.81604324  0.30129460  0.83335298  1
  In  In29  1  0.83012025  0.65571937  0.48992899  1
  In  In30  1  -0.02989931  0.14625724  0.83856970  1
  In  In31  1  0.50482584  0.66967241  0.82822760  1
  In  In32  1  0.16197713  0.49331447  0.35222461  1
  In  In33  1  0.33667482  0.65306937  0.66913965  1
  In  In34  1  0.48617595  0.68267717  0.15765226  1
  In  In35  1  0.50099034  0.01217425  0.14793316  1
  In  In36  1  0.68217658  0.00183025  0.34925927  1
  In  In37  1  0.47584469  0.80462548  0.35981437  1
  In  In38  1  0.80906248  0.69485853  0.83161301  1
  In  In39  1  0.33457900  0.50253362  0.83494067  1
  In  In40  1  0.84911628  0.82820124  0.29898094  1
  In  In41  1  0.17870326  -0.01221461  0.50302766  1
  In  In42  1  0.81984791  0.84877490  0.01387460  1
  In  In43  1  0.19058722  0.50127009  -0.00755501  1
  In  In44  1  0.32426013  0.16202498  0.17433827  1
  In  In45  1  0.17168037  0.34305690  0.82814870  1
  In  In46  1  0.15933793  0.83878869  0.33251894  1
  In  In47  1  0.84524035  0.50340624  0.03331195  1
  In  In48  1  0.68101233  0.48804773  0.17463322  1
  In  In49  1  0.35931348  0.01750384  0.32881041  1
  In  In50  1  0.82748831  0.32736242  0.48380352  1
  In  In51  1  0.54607246  0.30118455  0.15957987  1
  In  In52  1  0.32669879  0.83952094  0.14461828  1
  In  In53  1  -0.00399455  -0.00727295  0.00194676  1
  In  In54  1  0.32116879  0.32765928  0.33464455  1
  In  In55  1  0.16996925  0.32677615  0.48688027  1
  In  In56  1  0.82268087  -0.00093463  0.82658530  1
  In  In57  1  0.17512383  0.79321732  0.66500450  1
  In  In58  1  -0.01997492  0.01635433  0.66349715  1
  In  In59  1  0.00062915  0.84770004  0.48090656  1
  In  In60  1  0.64319591  0.15591082  0.85140070  1
  In  In61  1  -0.01487347  0.48628604  0.16081845  1
  In  In62  1  0.34447235  0.85810841  0.85864872  1
  In  In63  1  0.16292836  0.66662801  0.15730608  1
  In  In64  1  0.64896205  0.84374020  0.50868210  1
  In  In65  1  -0.00890960  0.50860485  0.48720925  1
  In  In66  1  0.33809032  0.51197665  0.50844432  1
  In  In67  1  0.66501562  0.48736458  0.49795385  1
  In  In68  1  0.16383519  0.17344017  0.31686132  1
  In  In69  1  -0.01664325  0.18071687  0.47754012  1
  In  In70  1  0.51739680  0.50212812  0.31989344  1
  In  In71  1  0.52586725  0.13810749  0.65348165  1
  Te  Te72  1  0.08981859  0.08400465  0.07978748  1
  Te  Te73  1  0.08415637  0.07512382  0.41955147  1
  Te  Te74  1  0.09001979  0.07853489  0.75808234  1
  Te  Te75  1  0.09495823  0.41729184  0.07770123  1
  Te  Te76  1  0.05974190  0.39449792  0.40633105  1
  Te  Te77  1  0.08631056  0.40758708  0.72681079  1
  Te  Te78  1  0.07117350  0.77919425  0.10538787  1
  Te  Te79  1  0.06503921  0.73701694  0.40022621  1
  Te  Te80  1  0.06250722  0.74246239  0.75764969  1
  Te  Te81  1  0.43501561  0.13103568  0.07472165  1
  Te  Te82  1  0.42573473  0.08213094  0.44336096  1
  Te  Te83  1  0.45657670  0.06851281  0.76985170  1
  Te  Te84  1  0.43890968  0.39104254  0.08708469  1
  Te  Te85  1  0.42156516  0.41368319  0.41221723  1
  Te  Te86  1  0.44092089  0.42227014  0.76307829  1
  Te  Te87  1  0.43084663  0.77588429  0.05958580  1
  Te  Te88  1  0.38740278  0.72737208  0.44556635  1
  Te  Te89  1  0.40635084  0.76312158  0.75336920  1
  Te  Te90  1  0.70554076  0.13132959  0.10161015  1
  Te  Te91  1  0.71176205  0.11536520  0.44289509  1
  Te  Te92  1  0.73605983  0.09127232  0.74411424  1
  Te  Te93  1  0.73759520  0.39992342  0.06464819  1
  Te  Te94  1  0.76551507  0.43728018  0.40322554  1
  Te  Te95  1  0.74897447  0.40605978  0.74375831  1
  Te  Te96  1  0.73865975  0.74737096  0.09726562  1
  Te  Te97  1  0.74864816  0.76805481  0.40890292  1
  Te  Te98  1  0.71081015  0.75689325  0.73916079  1
  Te  Te99  1  0.07771168  0.26600298  0.24314880  1
  Te  Te100  1  0.07748893  0.24602548  0.57981763  1
  Te  Te101  1  0.07823657  0.24127109  0.90609747  1
  Te  Te102  1  0.08358533  0.57155422  0.24607009  1
  Te  Te103  1  0.10406897  0.57219355  0.57024646  1
  Te  Te104  1  0.08686464  0.58453216  0.91438810  1
  Te  Te105  1  0.07880692  0.92481062  0.24339150  1
  Te  Te106  1  0.08215094  0.91013570  0.59624243  1
  Te  Te107  1  0.07145372  0.90686984  0.90197460  1
  Te  Te108  1  0.43000276  0.24908880  0.25955742  1
  Te  Te109  1  0.42460734  0.23195142  0.58116159  1
  Te  Te110  1  0.40903607  0.21976103  0.94696464  1
  Te  Te111  1  0.41374066  0.59954895  0.26313065  1
  Te  Te112  1  0.43702244  0.56879393  0.60208483  1
  Te  Te113  1  0.41144200  0.59627937  0.92703152  1
  Te  Te114  1  0.43108751  0.90946591  0.24277448  1
  Te  Te115  1  0.43315684  0.93090168  0.58023444  1
  Te  Te116  1  0.43077874  0.96406088  0.91242680  1
  Te  Te117  1  0.73106708  0.20251452  0.23088949  1
  Te  Te118  1  0.72893661  0.26992355  0.57977401  1
  Te  Te119  1  0.74503756  0.22488231  0.93891449  1
  Te  Te120  1  0.76624441  0.57434872  0.25904799  1
  Te  Te121  1  0.72897852  0.60344484  0.58806041  1
  Te  Te122  1  0.75158260  0.58510446  0.93024866  1
  Te  Te123  1  0.76171021  0.93832993  0.23325274  1
  Te  Te124  1  0.72324779  0.94908312  0.59033007  1
  Te  Te125  1  0.73178586  0.90617842  0.90409400  1
  Te  Te126  1  0.24126014  0.26507948  0.10821211  1
  Te  Te127  1  0.26106828  0.22085814  0.42526319  1
  Te  Te128  1  0.27276044  0.24410687  0.76473745  1
  Te  Te129  1  0.27371467  0.58907888  0.08445542  1
  Te  Te130  1  0.25667072  0.59670457  0.41025922  1
  Te  Te131  1  0.23221258  0.56461053  0.74052676  1
  Te  Te132  1  0.26066142  0.94844087  0.06942863  1
  Te  Te133  1  0.26916294  0.91424540  0.40725011  1
  Te  Te134  1  0.23652363  0.91035777  0.75107314  1
  Te  Te135  1  0.59213993  0.21189262  0.04651722  1
  Te  Te136  1  0.62682639  0.25074218  0.42101375  1
  Te  Te137  1  0.58491577  0.24837586  0.74269246  1
  Te  Te138  1  0.57985946  0.57285417  0.09275675  1
  Te  Te139  1  0.56526106  0.59193196  0.43233455  1
  Te  Te140  1  0.58561318  0.58103640  0.74276761  1
  Te  Te141  1  0.59428618  0.94121669  0.05424637  1
  Te  Te142  1  0.56375437  0.92024651  0.40670006  1
  Te  Te143  1  0.62264337  0.89375719  0.78827633  1
  Te  Te144  1  0.91658011  0.23467069  0.07407413  1
  Te  Te145  1  0.88883165  0.23873335  0.37792958  1
  Te  Te146  1  0.92616031  0.25258855  0.73900176  1
  Te  Te147  1  0.90791206  0.62238725  0.11463879  1
  Te  Te148  1  0.91663314  0.59157155  0.39044465  1
  Te  Te149  1  0.90124410  0.59031750  0.75161898  1
  Te  Te150  1  0.90300792  0.93467971  0.10203698  1
  Te  Te151  1  0.88627025  0.92494837  0.42137380  1
  Te  Te152  1  0.91750078  0.90711365  0.75083227  1
  Te  Te153  1  0.23727441  0.05911987  0.24635079  1
  Te  Te154  1  0.26396623  0.07906820  0.59017833  1
  Te  Te155  1  0.28733513  0.10137968  0.91440207  1
  Te  Te156  1  0.24597206  0.42291206  0.24363088  1
  Te  Te157  1  0.25733275  0.40593480  0.58463053  1
  Te  Te158  1  0.27706700  0.39456582  0.92744427  1
  Te  Te159  1  0.25371756  0.75214364  0.24621824  1
  Te  Te160  1  0.29258335  0.76937369  0.56573790  1
  Te  Te161  1  0.25872069  0.75438432  0.93572313  1
  Te  Te162  1  0.59019649  0.08230178  0.25116931  1
  Te  Te163  1  0.62031176  0.06626503  0.56282546  1
  Te  Te164  1  0.56040858  0.05201675  0.91986229  1
  Te  Te165  1  0.60787008  0.39103687  0.26819221  1
  Te  Te166  1  0.58128913  0.41559166  0.59600209  1
  Te  Te167  1  0.59447651  0.38947874  0.91910236  1
  Te  Te168  1  0.58776465  0.75074964  0.25647873  1
  Te  Te169  1  0.56040602  0.75784492  0.58803689  1
  Te  Te170  1  0.57143914  0.77747973  0.90930104  1
  Te  Te171  1  0.89122355  0.10884489  0.27587334  1
  Te  Te172  1  0.89548886  0.08231065  0.55772952  1
  Te  Te173  1  0.88266043  0.07869764  0.94224566  1
  Te  Te174  1  0.89497651  0.40528091  0.24442164  1
  Te  Te175  1  0.91977606  0.40957566  0.57890867  1
  Te  Te176  1  0.90140578  0.41917900  0.90601755  1
  Te  Te177  1  0.93103154  0.73454595  0.22293848  1
  Te  Te178  1  0.91114507  0.75766773  0.57971818  1
  Te  Te179  1  0.91037132  0.76094419  0.92471428  1
