# generated using pymatgen
data_In2Te3
_symmetry_space_group_name_H-M   'P 1'
_cell_length_a   18.97913897
_cell_length_b   18.95773423
_cell_length_c   18.97340926
_cell_angle_alpha   90.17739300
_cell_angle_beta   89.84824375
_cell_angle_gamma   89.96836926
_symmetry_Int_Tables_number   1
_chemical_formula_structural   In2Te3
_chemical_formula_sum   'In72 Te108'
_cell_volume   6826.60285653
_cell_formula_units_Z   36
loop_
 _symmetry_equiv_pos_site_id
 _symmetry_equiv_pos_as_xyz
  1  'x, y, z'
loop_
 _atom_site_type_symbol
 _atom_site_label
 _atom_site_symmetry_multiplicity
 _atom_site_fract_x
 _atom_site_fract_y
 _atom_site_fract_z
 _atom_site_occupancy
  In  In0  1  0.48490555  -0.00603900  0.85636987  1
  In  In1  1  0.14183483  0.16682624  -0.01565096  1
  In  In2  1  0.38766885  0.15519732  0.51681735  1
  In  In3  1  0.50308896  0.65321993  0.16394367  1
  In  In4  1  0.67597234  -0.00667997  0.64105706  1
  In  In5  1  0.82638884  0.77029148  -0.02539238  1
  In  In6  1  0.18240216  0.01208888  0.52597797  1
  In  In7  1  0.65147945  0.84118677  0.16922063  1
  In  In8  1  0.67249836  0.65937775  0.65647824  1
  In  In9  1  0.81416454  0.33097615  0.81508679  1
  In  In10  1  0.48450085  0.81773854  0.66917955  1
  In  In11  1  0.64460519  0.20773435  0.49923293  1
  In  In12  1  0.50540109  0.51288724  0.31798565  1
  In  In13  1  0.18791530  0.51524559  0.32292198  1
  In  In14  1  0.35393468  0.19133835  0.15734004  1
  In  In15  1  0.48071512  0.66380767  0.81292564  1
  In  In16  1  -0.00641227  0.02445609  0.32241783  1
  In  In17  1  -0.02278968  0.15023322  0.51059541  1
  In  In18  1  0.36452482  0.65793584  0.33802742  1
  In  In19  1  0.84583591  0.65419804  0.17098580  1
  In  In20  1  0.81907708  0.52736348  -0.01939446  1
  In  In21  1  0.56024221  0.86283914  0.36476119  1
  In  In22  1  0.16190729  0.66317438  0.83254739  1
  In  In23  1  0.00543681  0.32495031  0.69040774  1
  In  In24  1  0.02175140  0.51466652  0.51749144  1
  In  In25  1  0.64041673  0.45491420  0.49605018  1
  In  In26  1  0.32481549  0.84601706  0.17995790  1
  In  In27  1  0.15038182  0.81188499  0.68309851  1
  In  In28  1  0.15881676  0.65551141  0.15568246  1
  In  In29  1  0.17368380  0.01376623  0.15353214  1
  In  In30  1  0.81040806  0.16235046  0.34038746  1
  In  In31  1  -0.00268982  0.65812809  0.32587229  1
  In  In32  1  0.01034285  0.35029830  0.30216052  1
  In  In33  1  0.49274953  0.80256799  -0.02765533  1
  In  In34  1  0.49423139  0.15698330  0.01548032  1
  In  In35  1  0.81806629  0.83282040  0.32912442  1
  In  In36  1  0.85871161  -0.00910800  0.14261222  1
  In  In37  1  0.64364956  0.80990720  0.81539411  1
  In  In38  1  0.31853670  0.83125331  0.51912292  1
  In  In39  1  0.33633803  0.31607122  0.68742350  1
  In  In40  1  0.33894341  0.50158143  0.53005924  1
  In  In41  1  0.50094706  0.36827868  0.84607504  1
  In  In42  1  0.02323112  -0.02745378  -0.02061461  1
  In  In43  1  0.83181190  0.47784304  0.67116302  1
  In  In44  1  0.29724485  0.66548691  -0.00326811  1
  In  In45  1  -0.01355459  0.83005345  0.46717684  1
  In  In46  1  0.67251623  0.51068501  0.17409665  1
  In  In47  1  0.15482687  0.31040722  0.50889662  1
  In  In48  1  0.35507714  0.36677564  0.02104810  1
  In  In49  1  0.48828170  0.66423916  0.51135293  1
  In  In50  1  0.65278035  0.00629200  -0.00139880  1
  In  In51  1  0.17356942  0.34691918  0.87691042  1
  In  In52  1  0.00460295  0.51058605  0.82198878  1
  In  In53  1  0.85308686  0.84318344  0.65754216  1
  In  In54  1  0.15161932  0.35476939  0.14095284  1
  In  In55  1  0.82052139  -0.00027470  0.84687471  1
  In  In56  1  0.50390149  0.03172388  0.17354115  1
  In  In57  1  0.82797407  0.15515929  0.64338122  1
  In  In58  1  0.36084075  0.32793301  0.33242964  1
  In  In59  1  0.01809529  0.67914715  -0.00186337  1
  In  In60  1  0.83040919  0.33055062  0.47929485  1
  In  In61  1  0.31919680  0.16458092  0.85301268  1
  In  In62  1  0.17274010  0.19588002  0.33273354  1
  In  In63  1  0.14500822  0.82723551  0.33081710  1
  In  In64  1  0.87005282  0.19120983  0.00649096  1
  In  In65  1  0.50176025  0.20204911  0.69783922  1
  In  In66  1  0.66325559  0.35027901  -0.01792369  1
  In  In67  1  0.31951342  -0.02307148  0.67919457  1
  In  In68  1  0.02184753  -0.00348060  0.68227704  1
  In  In69  1  0.83840896  0.65835406  0.49142271  1
  In  In70  1  0.35182011  0.02111042  0.35684208  1
  In  In71  1  0.68602816  0.18426034  0.17008217  1
  Te  Te72  1  0.06121621  0.08387776  0.08202869  1
  Te  Te73  1  0.09864326  0.08575431  0.41777950  1
  Te  Te74  1  0.07201767  0.12076779  0.73485834  1
  Te  Te75  1  0.03834004  0.36747682  0.04815343  1
  Te  Te76  1  0.10530112  0.41589683  0.41175433  1
  Te  Te77  1  0.10468225  0.41538356  0.75589665  1
  Te  Te78  1  0.07902268  0.76385938  0.10156368  1
  Te  Te79  1  0.09065542  0.72394156  0.42721539  1
  Te  Te80  1  0.05009969  0.73733522  0.76401227  1
  Te  Te81  1  0.39205823  0.06471030  0.07658465  1
  Te  Te82  1  0.47210989  0.08024846  0.42051639  1
  Te  Te83  1  0.41322567  0.08378158  0.75379414  1
  Te  Te84  1  0.43972481  0.39809680  0.13434963  1
  Te  Te85  1  0.42312431  0.43383195  0.41907793  1
  Te  Te86  1  0.38929892  0.42747528  0.76868988  1
  Te  Te87  1  0.40658367  0.74638856  0.08943867  1
  Te  Te88  1  0.42333266  0.77150657  0.42000635  1
  Te  Te89  1  0.38851769  0.77271027  0.77079809  1
  Te  Te90  1  0.76301402  0.08520726  0.06552713  1
  Te  Te91  1  0.72892964  0.09436955  0.44284469  1
  Te  Te92  1  0.74112979  0.08129017  0.74785684  1
  Te  Te93  1  0.75475681  0.42611595  0.07556477  1
  Te  Te94  1  0.73246774  0.39936437  0.39351781  1
  Te  Te95  1  0.72681219  0.43923496  0.76646727  1
  Te  Te96  1  0.74078301  0.74264168  0.10037324  1
  Te  Te97  1  0.74641325  0.72400337  0.39672896  1
  Te  Te98  1  0.76076740  0.75127036  0.73907546  1
  Te  Te99  1  0.08313200  0.24125104  0.22355479  1
  Te  Te100  1  0.08159571  0.21252749  0.60409014  1
  Te  Te101  1  0.05349581  0.26903632  0.92090273  1
  Te  Te102  1  0.07176341  0.55965918  0.23682850  1
  Te  Te103  1  0.12055690  0.56365664  0.61095742  1
  Te  Te104  1  0.09588666  0.56643755  0.92993017  1
  Te  Te105  1  0.07759165  0.92824880  0.24099150  1
  Te  Te106  1  0.08582299  0.90337605  0.56504085  1
  Te  Te107  1  0.11349779  0.88820560  0.89708595  1
  Te  Te108  1  0.44988904  0.22427476  0.26829074  1
  Te  Te109  1  0.44211480  0.28750492  0.57698270  1
  Te  Te110  1  0.41912730  0.25398934  0.92440610  1
  Te  Te111  1  0.39473131  0.56354972  0.22378271  1
  Te  Te112  1  0.42750767  0.58217638  0.61684305  1
  Te  Te113  1  0.39965775  0.59702526  0.91637238  1
  Te  Te114  1  0.42629938  0.92741732  0.25871016  1
  Te  Te115  1  0.42204036  0.92491313  0.57910868  1
  Te  Te116  1  0.39400443  0.88660649  0.90049314  1
  Te  Te117  1  0.74677734  0.27590983  0.26998153  1
  Te  Te118  1  0.75015949  0.27376370  0.59285133  1
  Te  Te119  1  0.75541959  0.24113526  0.92195547  1
  Te  Te120  1  0.74970575  0.59677260  0.26693257  1
  Te  Te121  1  0.75011583  0.55213262  0.56581170  1
  Te  Te122  1  0.76596850  0.64710353  0.91386736  1
  Te  Te123  1  0.75217052  0.93363674  0.23530903  1
  Te  Te124  1  0.74714385  0.88783339  0.56230403  1
  Te  Te125  1  0.72563687  0.90057341  0.91564112  1
  Te  Te126  1  0.24848827  0.25285832  0.06846814  1
  Te  Te127  1  0.27766775  0.23785195  0.43536548  1
  Te  Te128  1  0.22808799  0.24999770  0.77048711  1
  Te  Te129  1  0.24402549  0.56023149  0.08546072  1
  Te  Te130  1  0.26406631  0.59170636  0.43009220  1
  Te  Te131  1  0.22856956  0.60145214  0.71496589  1
  Te  Te132  1  0.23639465  0.90362358  0.08014660  1
  Te  Te133  1  0.24745267  0.91741031  0.40805043  1
  Te  Te134  1  0.20939183  0.92459733  0.76381153  1
  Te  Te135  1  0.58828370  0.25518791  0.07923064  1
  Te  Te136  1  0.54468776  0.23404348  0.39368880  1
  Te  Te137  1  0.59726950  0.29822787  0.75620767  1
  Te  Te138  1  0.58729859  0.57532266  0.07098959  1
  Te  Te139  1  0.58350156  0.58112077  0.42755448  1
  Te  Te140  1  0.57357620  0.58075532  0.73166137  1
  Te  Te141  1  0.55771920  0.91089722  0.06917499  1
  Te  Te142  1  0.64963414  0.94551725  0.44340860  1
  Te  Te143  1  0.57591351  0.92636345  0.74562968  1
  Te  Te144  1  0.90963507  0.29852934  0.10458315  1
  Te  Te145  1  0.93890035  0.25015856  0.40432744  1
  Te  Te146  1  0.90753293  0.22711963  0.75150804  1
  Te  Te147  1  0.92963107  0.57768165  0.07212673  1
  Te  Te148  1  0.92153185  0.55838765  0.41143547  1
  Te  Te149  1  0.91599915  0.58112008  0.72939263  1
  Te  Te150  1  0.90919714  0.89193959  0.04150357  1
  Te  Te151  1  0.90112737  0.93848105  0.40553502  1
  Te  Te152  1  0.92338281  0.91891476  0.76829214  1
  Te  Te153  1  0.26161326  0.09716669  0.25407111  1
  Te  Te154  1  0.27234498  0.10286345  0.60384446  1
  Te  Te155  1  0.23371322  0.06989145  0.92263206  1
  Te  Te156  1  0.25117618  0.39577183  0.25256016  1
  Te  Te157  1  0.24495413  0.39749107  0.59199431  1
  Te  Te158  1  0.28867972  0.43674509  0.90860954  1
  Te  Te159  1  0.25151393  0.73865381  0.26422030  1
  Te  Te160  1  0.25896998  0.73455288  0.61355940  1
  Te  Te161  1  0.20846126  0.76922867  0.93130438  1
  Te  Te162  1  0.62014505  0.07695034  0.24704646  1
  Te  Te163  1  0.58667991  0.11377807  0.60784470  1
  Te  Te164  1  0.58263221  0.10072132  0.90372484  1
  Te  Te165  1  0.56628407  0.41363584  0.22439551  1
  Te  Te166  1  0.56883794  0.37673907  0.59671282  1
  Te  Te167  1  0.56796032  0.45720118  0.94403668  1
  Te  Te168  1  0.57214482  0.74919893  0.25911183  1
  Te  Te169  1  0.58923929  0.75812879  0.57704142  1
  Te  Te170  1  0.59703471  0.70975929  0.91789848  1
  Te  Te171  1  0.90404905  0.10637694  0.23338615  1
  Te  Te172  1  0.90816415  0.04067773  0.58493870  1
  Te  Te173  1  0.92718151  0.07966419  0.91887686  1
  Te  Te174  1  0.90915893  0.40746329  0.21678360  1
  Te  Te175  1  0.93974505  0.39582486  0.57323228  1
  Te  Te176  1  0.89907850  0.42829103  0.89521206  1
  Te  Te177  1  0.92489175  0.76382455  0.24535137  1
  Te  Te178  1  0.93250776  0.73996573  0.57733252  1
  Te  Te179  1  0.94383056  0.74400514  0.88634140  1
