# generated using pymatgen
data_In2Te3
_symmetry_space_group_name_H-M   'P 1'
_cell_length_a   19.00182330
_cell_length_b   19.02670841
_cell_length_c   18.99971666
_cell_angle_alpha   90.33016207
_cell_angle_beta   90.21573111
_cell_angle_gamma   89.79235073
_symmetry_Int_Tables_number   1
_chemical_formula_structural   In2Te3
_chemical_formula_sum   'In72 Te108'
_cell_volume   6868.99112355
_cell_formula_units_Z   36
loop_
 _symmetry_equiv_pos_site_id
 _symmetry_equiv_pos_as_xyz
  1  'x, y, z'
loop_
 _atom_site_type_symbol
 _atom_site_label
 _atom_site_symmetry_multiplicity
 _atom_site_fract_x
 _atom_site_fract_y
 _atom_site_fract_z
 _atom_site_occupancy
  In  In0  1  0.35161590  0.17508860  0.51310130  1
  In  In1  1  -0.02558929  -0.03526644  -0.00021409  1
  In  In2  1  0.51742498  0.32953250  0.51549074  1
  In  In3  1  0.11653193  0.13589956  0.00474119  1
  In  In4  1  0.49189052  0.49730827  0.68282249  1
  In  In5  1  0.52250598  0.66687974  0.84798663  1
  In  In6  1  0.00731093  0.30083126  0.68054050  1
  In  In7  1  -0.02734836  0.14341210  0.84032906  1
  In  In8  1  0.35963990  0.52978039  0.15210561  1
  In  In9  1  0.64861540  0.34063964  0.68539909  1
  In  In10  1  0.68733099  -0.01037531  -0.03887371  1
  In  In11  1  0.81495604  0.51342186  0.68776218  1
  In  In12  1  0.53525388  0.54442799  0.26693527  1
  In  In13  1  0.10425747  0.35176217  0.51926129  1
  In  In14  1  0.48204670  0.15404672  0.31836571  1
  In  In15  1  0.16544710  0.68105815  0.81775823  1
  In  In16  1  0.36370383  0.66930824  -0.01144701  1
  In  In17  1  -0.03422094  0.04211798  0.65610730  1
  In  In18  1  0.31289858  0.34576698  0.32679624  1
  In  In19  1  0.36870386  0.65966661  0.68138738  1
  In  In20  1  0.52383087  -0.01749565  0.50195657  1
  In  In21  1  0.01966063  0.47640505  0.51775465  1
  In  In22  1  0.36641759  0.80498980  0.50276904  1
  In  In23  1  0.51086574  0.83907770  -0.00618359  1
  In  In24  1  0.65428382  0.31962638  -0.03392611  1
  In  In25  1  0.32980627  -0.00394541  0.65185544  1
  In  In26  1  0.83618603  0.32620925  0.52219546  1
  In  In27  1  0.35387770  0.50180480  0.50187159  1
  In  In28  1  0.14349763  -0.00001993  0.45409475  1
  In  In29  1  0.85959525  0.66551804  0.49879485  1
  In  In30  1  0.49215152  -0.00525748  0.16699244  1
  In  In31  1  0.01650642  0.51186232  0.84780903  1
  In  In32  1  0.16721670  0.84806673  0.22211450  1
  In  In33  1  0.31241102  0.14446912  0.15734077  1
  In  In34  1  0.14691053  0.34168004  0.15684326  1
  In  In35  1  0.80491067  0.30900642  0.16924013  1
  In  In36  1  0.66768408  0.15217360  0.16326273  1
  In  In37  1  0.83184055  0.51155088  0.01873617  1
  In  In38  1  0.33686142  -0.01274396  -0.00126871  1
  In  In39  1  0.81337427  0.49402717  0.33052102  1
  In  In40  1  0.65572263  0.68911079  0.30179315  1
  In  In41  1  -0.00570657  0.68129470  0.33748208  1
  In  In42  1  0.69909330  0.71889571  0.68031600  1
  In  In43  1  0.66945466  0.50165601  0.85003934  1
  In  In44  1  -0.01316943  0.54231612  0.17923650  1
  In  In45  1  0.18354759  0.35051807  0.85496453  1
  In  In46  1  -0.03159643  0.13044974  0.16623787  1
  In  In47  1  0.33258487  -0.07853816  0.31814572  1
  In  In48  1  -0.02136746  0.84526381  0.48877793  1
  In  In49  1  0.34352102  0.83026265  0.82105319  1
  In  In50  1  -0.03978692  0.82450494  0.83103287  1
  In  In51  1  0.68625309  0.15077275  0.81624291  1
  In  In52  1  0.68815777  0.87412884  0.53556598  1
  In  In53  1  0.81238020  -0.01785881  0.15104773  1
  In  In54  1  0.31268458  0.16291238  0.85418354  1
  In  In55  1  0.49347776  0.17167409  0.66756469  1
  In  In56  1  0.17594030  0.54311356  -0.01153718  1
  In  In57  1  0.00022677  0.33952353  0.00949960  1
  In  In58  1  0.66200486  0.14888738  0.50309713  1
  In  In59  1  -0.01846670  0.65353177  0.67246233  1
  In  In60  1  0.20791587  0.65511132  0.46424227  1
  In  In61  1  0.80416216  0.85191173  0.32205503  1
  In  In62  1  0.53614622  0.32605513  0.17446921  1
  In  In63  1  0.22303501  0.51074922  0.67340655  1
  In  In64  1  0.16195722  0.53125648  0.39118509  1
  In  In65  1  -0.03371811  0.31336306  0.32239014  1
  In  In66  1  0.16258010  0.14918554  0.33158365  1
  In  In67  1  0.17201800  0.84808014  0.63505448  1
  In  In68  1  0.80402604  0.71893838  0.14291050  1
  In  In69  1  0.16151759  0.84925498  0.01897201  1
  In  In70  1  0.34897083  0.32563596  0.02696046  1
  In  In71  1  0.15209472  0.17952407  0.67337295  1
  Te  Te72  1  0.07056860  0.03748396  0.10639248  1
  Te  Te73  1  0.04180315  0.07206293  0.37373993  1
  Te  Te74  1  0.08067139  0.07813898  0.75667588  1
  Te  Te75  1  0.07786718  0.45525794  0.07431294  1
  Te  Te76  1  0.08346697  0.39891332  0.37308643  1
  Te  Te77  1  0.10944785  0.43741722  0.75466384  1
  Te  Te78  1  0.08852574  0.77751624  0.12154257  1
  Te  Te79  1  0.08378958  0.74536135  0.44114861  1
  Te  Te80  1  0.07728800  0.76747106  0.72956332  1
  Te  Te81  1  0.42310334  0.09041818  0.06971559  1
  Te  Te82  1  0.42067694  0.07084494  0.42851566  1
  Te  Te83  1  0.39937408  0.08749808  0.74954954  1
  Te  Te84  1  0.44784927  0.41937505  0.09361229  1
  Te  Te85  1  0.42532225  0.40009216  0.41307412  1
  Te  Te86  1  0.35748797  0.45621640  0.72753413  1
  Te  Te87  1  0.40260340  0.78195364  0.07528894  1
  Te  Te88  1  0.39669250  0.72611960  0.38399082  1
  Te  Te89  1  0.45638688  0.76169156  0.74800437  1
  Te  Te90  1  0.75575747  0.08866322  0.05716933  1
  Te  Te91  1  0.75025689  0.04439584  0.44592875  1
  Te  Te92  1  0.78140755  0.04981527  0.75716260  1
  Te  Te93  1  0.74130040  0.39854052  0.06697667  1
  Te  Te94  1  0.75458910  0.40738074  0.43032398  1
  Te  Te95  1  0.75574773  0.40400614  0.77170791  1
  Te  Te96  1  0.68680481  0.72154808  0.05197124  1
  Te  Te97  1  0.76333560  0.73227923  0.40659433  1
  Te  Te98  1  0.79412061  0.75990142  0.79136151  1
  Te  Te99  1  0.07432763  0.23286358  0.23266478  1
  Te  Te100  1  0.05329109  0.21556570  0.56297172  1
  Te  Te101  1  0.07766409  0.25512994  0.90735476  1
  Te  Te102  1  0.09810698  0.59781570  0.26409513  1
  Te  Te103  1  0.09274515  0.57886324  0.60355947  1
  Te  Te104  1  0.07011460  0.63269453  0.92455168  1
  Te  Te105  1  0.09444611  0.92534517  0.32617226  1
  Te  Te106  1  0.06470252  0.94302437  0.58068895  1
  Te  Te107  1  0.07197388  0.89853853  0.90557272  1
  Te  Te108  1  0.39788358  0.25004892  0.23562365  1
  Te  Te109  1  0.40786988  0.28076538  0.60618987  1
  Te  Te110  1  0.40929893  0.25326337  0.91636435  1
  Te  Te111  1  0.45449973  0.64736554  0.18541333  1
  Te  Te112  1  0.44862458  0.59674351  0.57017757  1
  Te  Te113  1  0.47265197  0.57776230  0.95342494  1
  Te  Te114  1  0.46906122  0.88796394  0.26725370  1
  Te  Te115  1  0.43412325  0.90229615  0.59659332  1
  Te  Te116  1  0.43119283  0.92781529  0.89626606  1
  Te  Te117  1  0.75007140  0.21787398  0.26860757  1
  Te  Te118  1  0.73087189  0.24750873  0.59758088  1
  Te  Te119  1  0.76116493  0.24299009  0.90286718  1
  Te  Te120  1  0.76427124  0.59270050  0.22647445  1
  Te  Te121  1  0.75376577  0.60281677  0.58549860  1
  Te  Te122  1  0.72336158  0.59332067  0.95585711  1
  Te  Te123  1  0.71095664  0.90126082  0.22042279  1
  Te  Te124  1  0.76806166  0.94595580  0.64136816  1
  Te  Te125  1  0.76280674  0.88553978  0.88370995  1
  Te  Te126  1  0.22244332  0.23394550  0.07098770  1
  Te  Te127  1  0.25159033  0.23998439  0.41563081  1
  Te  Te128  1  0.25124279  0.26135401  0.75235923  1
  Te  Te129  1  0.25436663  0.62070427  0.09014967  1
  Te  Te130  1  0.31002868  0.57766464  0.37539846  1
  Te  Te131  1  0.28846749  0.59658567  0.79412711  1
  Te  Te132  1  0.25937942  0.92134930  0.10729806  1
  Te  Te133  1  0.26004179  0.90429150  0.45067319  1
  Te  Te134  1  0.24267517  0.91923218  0.74872614  1
  Te  Te135  1  0.57921082  0.22965526  0.06854596  1
  Te  Te136  1  0.57393664  0.23490082  0.41297909  1
  Te  Te137  1  0.56816203  0.25049979  0.77157621  1
  Te  Te138  1  0.63807630  0.52759533  0.16031891  1
  Te  Te139  1  0.59149662  0.59534515  0.39267128  1
  Te  Te140  1  0.60171233  0.58952319  0.74302357  1
  Te  Te141  1  0.59619207  0.93546630  0.07344408  1
  Te  Te142  1  0.59579086  0.88469510  0.41997015  1
  Te  Te143  1  0.64173806  0.86320236  0.68737091  1
  Te  Te144  1  0.91157905  0.24300601  0.08091882  1
  Te  Te145  1  0.90554341  0.23600603  0.42834040  1
  Te  Te146  1  0.90068170  0.22387191  0.74114796  1
  Te  Te147  1  0.91372729  0.62482818  0.07859261  1
  Te  Te148  1  0.93037497  0.55799127  0.41557055  1
  Te  Te149  1  0.90112270  0.59260752  0.78458014  1
  Te  Te150  1  0.88360910  0.87438919  0.07420358  1
  Te  Te151  1  0.87650368  0.93372097  0.42646847  1
  Te  Te152  1  0.90916225  0.95013690  0.76182927  1
  Te  Te153  1  0.26840121  0.05840713  0.27045715  1
  Te  Te154  1  0.24028930  0.09399117  0.57889465  1
  Te  Te155  1  0.22469779  0.06360889  0.92698886  1
  Te  Te156  1  0.25747696  0.42837580  0.21238248  1
  Te  Te157  1  0.23938828  0.41711673  0.55355479  1
  Te  Te158  1  0.27078997  0.43280666  0.94664986  1
  Te  Te159  1  0.28478075  0.77954008  0.28575915  1
  Te  Te160  1  0.25843451  0.72801260  0.59759795  1
  Te  Te161  1  0.24974943  0.76511368  0.91915509  1
  Te  Te162  1  0.59094531  0.06738472  0.26268624  1
  Te  Te163  1  0.58824596  0.07067396  0.60953923  1
  Te  Te164  1  0.58897152  0.06182550  0.87958704  1
  Te  Te165  1  0.61769062  0.41225105  0.26304299  1
  Te  Te166  1  0.59529155  0.43865861  0.58405414  1
  Te  Te167  1  0.56256283  0.42016294  0.90810566  1
  Te  Te168  1  0.56046778  0.75393534  0.20892413  1
  Te  Te169  1  0.60099051  0.75660575  0.57218702  1
  Te  Te170  1  0.61585003  0.76347421  0.91638209  1
  Te  Te171  1  0.86338680  0.07877137  0.25273485  1
  Te  Te172  1  0.86122989  0.06423206  0.55315818  1
  Te  Te173  1  0.89693478  0.07779883  0.94635430  1
  Te  Te174  1  0.90921219  0.41975761  0.22287097  1
  Te  Te175  1  0.91919148  0.42040260  0.62381174  1
  Te  Te176  1  0.91557241  0.42522072  0.91908824  1
  Te  Te177  1  0.90976568  0.76642996  0.25044651  1
  Te  Te178  1  0.90955344  0.76782684  0.59821390  1
  Te  Te179  1  0.86392611  0.77706940  0.93393334  1
