# generated using pymatgen
data_In2Te3
_symmetry_space_group_name_H-M   'P 1'
_cell_length_a   18.78661619
_cell_length_b   18.78674276
_cell_length_c   18.78320222
_cell_angle_alpha   89.92731171
_cell_angle_beta   90.03877926
_cell_angle_gamma   89.96448304
_symmetry_Int_Tables_number   1
_chemical_formula_structural   In2Te3
_chemical_formula_sum   'In72 Te108'
_cell_volume   6629.32259376
_cell_formula_units_Z   36
loop_
 _symmetry_equiv_pos_site_id
 _symmetry_equiv_pos_as_xyz
  1  'x, y, z'
loop_
 _atom_site_type_symbol
 _atom_site_label
 _atom_site_symmetry_multiplicity
 _atom_site_fract_x
 _atom_site_fract_y
 _atom_site_fract_z
 _atom_site_occupancy
  In  In0  1  0.85129068  -0.02464162  0.20466550  1
  In  In1  1  0.00089998  0.69476256  0.65156976  1
  In  In2  1  0.33928180  0.13990541  0.49313477  1
  In  In3  1  -0.02990507  0.68062456  0.00019094  1
  In  In4  1  0.82288922  0.50577503  0.02437500  1
  In  In5  1  0.14908290  0.15653771  0.33894811  1
  In  In6  1  0.16036826  0.32898382  0.17896623  1
  In  In7  1  0.31467523  0.83006533  0.48981737  1
  In  In8  1  0.84884431  0.69471187  0.85089244  1
  In  In9  1  0.81655386  0.87119601  0.63151581  1
  In  In10  1  0.63828697  0.50653123  0.83334996  1
  In  In11  1  0.34204885  0.17658975  0.17749761  1
  In  In12  1  0.85177822  0.70408993  0.20781328  1
  In  In13  1  0.14873967  0.83197746  -0.01229167  1
  In  In14  1  0.32680360  0.50478836  0.17975483  1
  In  In15  1  0.32196267  0.68412795  0.64182941  1
  In  In16  1  0.68901152  0.31456684  0.64227680  1
  In  In17  1  0.69157119  0.69124863  0.02102842  1
  In  In18  1  0.14418113  0.15095540  0.00639813  1
  In  In19  1  0.82425824  0.16923015  0.64063498  1
  In  In20  1  0.32437167  0.02076639  0.02152402  1
  In  In21  1  0.15892148  0.50659691  0.32287789  1
  In  In22  1  0.84088195  0.68774695  0.44229303  1
  In  In23  1  0.52573307  0.82901777  0.02626433  1
  In  In24  1  0.19277519  0.15612110  0.65861080  1
  In  In25  1  0.52369162  -0.01737115  0.83145086  1
  In  In26  1  0.14385604  -0.00041495  0.17074492  1
  In  In27  1  0.32994233  0.86199876  0.83165073  1
  In  In28  1  0.14896170  -0.01446084  0.83757514  1
  In  In29  1  -0.00386947  0.33440074  0.02860393  1
  In  In30  1  -0.00355270  0.36284631  0.64822633  1
  In  In31  1  0.13540104  0.66314230  0.19427413  1
  In  In32  1  0.02362828  -0.02928296  0.64050848  1
  In  In33  1  0.51801387  0.15196694  0.65384298  1
  In  In34  1  0.35835373  0.65965630  0.01655336  1
  In  In35  1  0.52094987  0.83808082  0.32253468  1
  In  In36  1  0.48779311  0.33692823  0.84542314  1
  In  In37  1  0.66800461  0.00893145  0.00732602  1
  In  In38  1  0.68129898  0.49781278  0.47762186  1
  In  In39  1  0.29189502  0.51137290  0.83706132  1
  In  In40  1  0.52154573  0.48832258  0.65516372  1
  In  In41  1  0.83740994  0.32442512  0.18536283  1
  In  In42  1  0.30460517  0.00828887  0.65088680  1
  In  In43  1  0.35601836  0.18601172  0.82604197  1
  In  In44  1  0.65869143  0.15346969  0.18119964  1
  In  In45  1  0.15975115  0.68770880  0.81463271  1
  In  In46  1  -0.01102772  0.16196116  0.84991049  1
  In  In47  1  0.12415698  0.65327196  0.48168409  1
  In  In48  1  0.50935704  0.32195760  0.17552829  1
  In  In49  1  0.01100800  0.50247130  0.82659357  1
  In  In50  1  0.68196775  0.68215650  0.65288598  1
  In  In51  1  0.83852261  0.00502485  0.83502304  1
  In  In52  1  0.85451502  0.48586755  0.64557619  1
  In  In53  1  0.16497978  0.32142604  0.50277804  1
  In  In54  1  0.51586060  0.82702725  0.65965036  1
  In  In55  1  -0.01065523  0.14672861  0.47488245  1
  In  In56  1  0.15696847  0.47563490  0.00043547  1
  In  In57  1  0.69817786  0.52123697  0.17228583  1
  In  In58  1  0.66502118  0.33108534  0.33210660  1
  In  In59  1  0.49963878  0.68963840  0.87344524  1
  In  In60  1  0.33568593  0.67224303  0.32748980  1
  In  In61  1  0.36028387  0.46058481  0.46837511  1
  In  In62  1  0.51434110  0.00511545  0.49324251  1
  In  In63  1  0.51584273  0.46755915  0.01354338  1
  In  In64  1  0.51317203  0.00274643  0.19778063  1
  In  In65  1  0.50619198  0.67166102  0.18776226  1
  In  In66  1  0.15816513  0.83763915  0.34897302  1
  In  In67  1  0.32482281  0.32520436  0.65930989  1
  In  In68  1  0.82079714  0.32688506  0.83761375  1
  In  In69  1  -0.00025361  0.32601702  0.32960580  1
  In  In70  1  0.68124968  0.16960679  0.84385039  1
  In  In71  1  0.52907387  0.65454433  0.50908674  1
  Te  Te72  1  0.04683884  0.07176686  0.08378412  1
  Te  Te73  1  0.06049920  0.04416540  0.38958461  1
  Te  Te74  1  0.07715051  0.08722262  0.74515649  1
  Te  Te75  1  0.06917749  0.43701107  0.11770510  1
  Te  Te76  1  0.08052844  0.41941685  0.42269840  1
  Te  Te77  1  0.09454093  0.41153696  0.74654029  1
  Te  Te78  1  0.06793117  0.75586755  0.09347911  1
  Te  Te79  1  0.04293524  0.75945738  0.41082226  1
  Te  Te80  1  0.04629339  0.76999228  0.77062739  1
  Te  Te81  1  0.43744860  0.09057660  0.09420125  1
  Te  Te82  1  0.42879038  0.07640333  0.39408431  1
  Te  Te83  1  0.41573443  0.06857428  0.74613697  1
  Te  Te84  1  0.40190327  0.40567499  0.09139305  1
  Te  Te85  1  0.45345611  0.37340376  0.39344583  1
  Te  Te86  1  0.41100919  0.42582088  0.74308905  1
  Te  Te87  1  0.41304969  0.76564464  0.11069831  1
  Te  Te88  1  0.42818838  0.74782015  0.42464542  1
  Te  Te89  1  0.40741372  0.74977803  0.75374290  1
  Te  Te90  1  0.76336575  0.06705348  0.11084285  1
  Te  Te91  1  0.80011549  0.04486924  0.42768299  1
  Te  Te92  1  0.74487311  0.08211413  0.73855861  1
  Te  Te93  1  0.73985887  0.39834466  0.08995575  1
  Te  Te94  1  0.77348601  0.41389138  0.39610785  1
  Te  Te95  1  0.74088441  0.42939451  0.74012170  1
  Te  Te96  1  0.78028575  0.78534787  0.09864783  1
  Te  Te97  1  0.73072393  0.76619662  0.37875985  1
  Te  Te98  1  0.76724303  0.76866924  0.74234479  1
  Te  Te99  1  0.06294288  0.22474701  0.23278925  1
  Te  Te100  1  0.07333631  0.23216646  0.58567608  1
  Te  Te101  1  0.07912290  0.26270481  0.92181488  1
  Te  Te102  1  0.03817501  0.59220858  0.28647810  1
  Te  Te103  1  0.05272852  0.57425141  0.58437884  1
  Te  Te104  1  0.08553342  0.59591335  0.92375012  1
  Te  Te105  1  0.06092926  0.89825784  0.24647213  1
  Te  Te106  1  0.09976232  0.87994750  0.55510149  1
  Te  Te107  1  0.05665388  0.93980152  0.94299346  1
  Te  Te108  1  0.42819058  0.24800741  0.27862583  1
  Te  Te109  1  0.41981782  0.24190119  0.57611328  1
  Te  Te110  1  0.42154948  0.24749756  0.94204400  1
  Te  Te111  1  0.43176191  0.56713437  0.27104229  1
  Te  Te112  1  0.41407443  0.57648608  0.57731793  1
  Te  Te113  1  0.42458487  0.55948750  0.91430772  1
  Te  Te114  1  0.41110976  0.91226092  0.25684462  1
  Te  Te115  1  0.41416140  0.91471827  0.58433973  1
  Te  Te116  1  0.42458299  0.91618672  0.93996905  1
  Te  Te117  1  0.75984769  0.22508692  0.27171044  1
  Te  Te118  1  0.74923502  0.23680192  0.53124298  1
  Te  Te119  1  0.77862575  0.22815643  0.93963771  1
  Te  Te120  1  0.77152651  0.59711221  0.27912249  1
  Te  Te121  1  0.77104570  0.59306779  0.56792218  1
  Te  Te122  1  0.74395400  0.58804848  0.91062540  1
  Te  Te123  1  0.75554085  0.88978715  0.28769683  1
  Te  Te124  1  0.73531604  0.95486232  0.53773698  1
  Te  Te125  1  0.73563335  0.92360195  0.90697280  1
  Te  Te126  1  0.24078800  0.24308513  0.08166966  1
  Te  Te127  1  0.25460728  0.24192570  0.41101130  1
  Te  Te128  1  0.23618436  0.25869333  0.76404340  1
  Te  Te129  1  0.23975685  0.59090635  0.08711350  1
  Te  Te130  1  0.25271682  0.58548148  0.42230823  1
  Te  Te131  1  0.22822873  0.58796263  0.72164711  1
  Te  Te132  1  0.24038659  0.91227324  0.08349097  1
  Te  Te133  1  0.26447773  0.93088439  0.39489245  1
  Te  Te134  1  0.22455439  0.90458144  0.73115374  1
  Te  Te135  1  0.59278008  0.24340371  0.08353194  1
  Te  Te136  1  0.56196920  0.26533248  0.41589492  1
  Te  Te137  1  0.58104587  0.25762823  0.74598190  1
  Te  Te138  1  0.58165104  0.59369610  0.07254147  1
  Te  Te139  1  0.59048854  0.58298037  0.39711531  1
  Te  Te140  1  0.57387357  0.61183375  0.73967884  1
  Te  Te141  1  0.61003330  0.91524344  0.11601141  1
  Te  Te142  1  0.60963758  0.93121989  0.40137781  1
  Te  Te143  1  0.60652400  0.92108359  0.72766182  1
  Te  Te144  1  0.91924683  0.23249041  0.10123703  1
  Te  Te145  1  0.90138491  0.24671049  0.41011106  1
  Te  Te146  1  0.91437610  0.25482693  0.74139238  1
  Te  Te147  1  0.90941911  0.59440241  0.10979589  1
  Te  Te148  1  0.91343130  0.57320554  0.38042755  1
  Te  Te149  1  0.90810026  0.58826496  0.75069253  1
  Te  Te150  1  0.89455824  0.88947353  0.08724647  1
  Te  Te151  1  0.88284685  0.93032583  0.38669393  1
  Te  Te152  1  0.92106451  0.91635030  0.73880540  1
  Te  Te153  1  0.24836898  0.07998692  0.24951479  1
  Te  Te154  1  0.21374454  0.06156851  0.54130797  1
  Te  Te155  1  0.25141719  0.08238507  0.90097490  1
  Te  Te156  1  0.25862825  0.40203864  0.27036876  1
  Te  Te157  1  0.25108359  0.42615035  0.57301938  1
  Te  Te158  1  0.25953247  0.40056199  0.92752189  1
  Te  Te159  1  0.24358820  0.75808284  0.24403822  1
  Te  Te160  1  0.20437948  0.76299813  0.57599629  1
  Te  Te161  1  0.26683208  0.74350391  0.91817252  1
  Te  Te162  1  0.59233805  0.08346900  0.29576748  1
  Te  Te163  1  0.61776470  0.08911635  0.56377883  1
  Te  Te164  1  0.57158537  0.09601473  0.91993375  1
  Te  Te165  1  0.59399051  0.43433720  0.24085625  1
  Te  Te166  1  0.58926953  0.39876505  0.55606480  1
  Te  Te167  1  0.61127631  0.38794284  0.92416902  1
  Te  Te168  1  0.61804111  0.74491381  0.25321805  1
  Te  Te169  1  0.61265074  0.77448471  0.55285284  1
  Te  Te170  1  0.61769757  0.77679321  0.91261312  1
  Te  Te171  1  0.92187563  0.06600220  0.30885064  1
  Te  Te172  1  0.91687115  0.06159405  0.57897479  1
  Te  Te173  1  0.89954755  0.08928511  0.94168099  1
  Te  Te174  1  0.90711600  0.42779657  0.26764477  1
  Te  Te175  1  0.89710655  0.39004252  0.54110935  1
  Te  Te176  1  0.91351124  0.42642557  0.92088617  1
  Te  Te177  1  0.94988025  0.78862002  0.28490681  1
  Te  Te178  1  0.90210534  0.76660164  0.55872629  1
  Te  Te179  1  0.90997068  0.80196345  0.93589743  1
