# generated using pymatgen
data_In2Te3
_symmetry_space_group_name_H-M   'P 1'
_cell_length_a   18.85135627
_cell_length_b   18.88499281
_cell_length_c   18.86785866
_cell_angle_alpha   90.02076079
_cell_angle_beta   89.90013942
_cell_angle_gamma   89.92132753
_symmetry_Int_Tables_number   1
_chemical_formula_structural   In2Te3
_chemical_formula_sum   'In72 Te108'
_cell_volume   6717.08650688
_cell_formula_units_Z   36
loop_
 _symmetry_equiv_pos_site_id
 _symmetry_equiv_pos_as_xyz
  1  'x, y, z'
loop_
 _atom_site_type_symbol
 _atom_site_label
 _atom_site_symmetry_multiplicity
 _atom_site_fract_x
 _atom_site_fract_y
 _atom_site_fract_z
 _atom_site_occupancy
  In  In0  1  0.50313002  -0.00387967  0.17030686  1
  In  In1  1  0.81329362  0.82051272  0.01085196  1
  In  In2  1  0.17667578  0.64973090  0.17393378  1
  In  In3  1  0.01160263  -0.01424474  0.70100470  1
  In  In4  1  0.61400981  0.66229287  -0.01587491  1
  In  In5  1  0.19218071  -0.01215407  0.15094644  1
  In  In6  1  -0.01117043  0.50957956  0.85955282  1
  In  In7  1  0.32740879  0.63716267  0.67278790  1
  In  In8  1  0.67042004  0.37908665  0.02424769  1
  In  In9  1  0.67145875  0.18643266  0.83446470  1
  In  In10  1  0.17410436  0.83513755  0.66584677  1
  In  In11  1  0.84402003  0.00213794  0.48653681  1
  In  In12  1  0.15759877  0.01950236  0.84224957  1
  In  In13  1  0.67629210  0.49105530  0.50327659  1
  In  In14  1  0.81842977  0.50501608  0.68983513  1
  In  In15  1  -0.01637916  0.81114275  0.16814305  1
  In  In16  1  0.52291252  -0.03045529  0.51056502  1
  In  In17  1  0.67034457  0.84146211  0.18777894  1
  In  In18  1  0.33233337  0.48362836  0.51673952  1
  In  In19  1  0.18286537  0.66907758  0.82637621  1
  In  In20  1  0.81252253  0.51645279  0.30206533  1
  In  In21  1  0.80370052  0.80278394  0.67051520  1
  In  In22  1  0.32289749  0.16266622  0.83479904  1
  In  In23  1  0.00475923  -0.05448431  0.01671064  1
  In  In24  1  0.66294514  -0.02284381  -0.01774801  1
  In  In25  1  0.33987080  0.18564534  0.49861851  1
  In  In26  1  0.36554876  0.80687112  0.83066774  1
  In  In27  1  0.00190334  0.16204644  0.16855304  1
  In  In28  1  -0.01018635  0.33924524  0.00553961  1
  In  In29  1  0.45987904  0.34039272  0.81209577  1
  In  In30  1  0.35674740  0.33834329  0.33612687  1
  In  In31  1  0.34201116  -0.00306812  0.31067383  1
  In  In32  1  0.19961218  0.34341783  0.85167746  1
  In  In33  1  -0.03517211  0.81159067  0.83970201  1
  In  In34  1  0.18517546  0.34236136  0.49766529  1
  In  In35  1  0.35212640  -0.00395723  0.65718357  1
  In  In36  1  0.00087733  0.82191971  0.49266281  1
  In  In37  1  0.65142507  -0.02590359  0.69543089  1
  In  In38  1  0.32082766  0.17191001  0.15570154  1
  In  In39  1  0.67913353  0.16775738  0.48039887  1
  In  In40  1  0.34111889  0.85468524  0.49166681  1
  In  In41  1  0.82854805  0.35246570  0.45723787  1
  In  In42  1  0.82336227  0.66790555  0.50199903  1
  In  In43  1  0.84789485  0.19336924  0.64899008  1
  In  In44  1  0.48358070  0.17506553  0.65139334  1
  In  In45  1  0.63688856  0.51240585  0.83830840  1
  In  In46  1  0.18571345  0.49228651  0.34651604  1
  In  In47  1  0.18959406  0.82785076  0.01315006  1
  In  In48  1  -0.01854320  0.67222566  0.33458274  1
  In  In49  1  0.79744774  0.00775445  0.85601416  1
  In  In50  1  0.82699047  0.16350134  0.00010620  1
  In  In51  1  -0.02519252  0.16563531  0.82338253  1
  In  In52  1  0.66844871  0.65821475  0.30526812  1
  In  In53  1  -0.00469792  0.00033353  0.31632712  1
  In  In54  1  0.13583985  0.65905114  0.50416974  1
  In  In55  1  0.38372925  0.49266986  0.16695558  1
  In  In56  1  0.18167127  0.17520710  -0.00193690  1
  In  In57  1  -0.01353360  0.52564205  0.12775246  1
  In  In58  1  0.49538588  0.67093699  0.50912073  1
  In  In59  1  0.47607092  0.15490376  0.33143713  1
  In  In60  1  0.18276753  0.49806546  0.00425749  1
  In  In61  1  0.51452938  0.34670408  0.50605875  1
  In  In62  1  0.00705143  0.34582885  0.67621067  1
  In  In63  1  0.69330240  0.17999380  0.19516262  1
  In  In64  1  0.66601173  0.82015667  0.47711407  1
  In  In65  1  0.01452155  0.52013274  0.53313449  1
  In  In66  1  0.34189394  0.66929254  0.31150276  1
  In  In67  1  -0.01194297  0.19975162  0.49031415  1
  In  In68  1  0.81169140  0.66144907  0.84645608  1
  In  In69  1  0.17828874  0.02265127  0.48353921  1
  In  In70  1  -0.01298087  0.32645607  0.32013257  1
  In  In71  1  0.52723901  0.18082242  0.01296087  1
  Te  Te72  1  0.08417614  0.06936282  0.06795900  1
  Te  Te73  1  0.07093439  0.09872991  0.40750294  1
  Te  Te74  1  0.09150081  0.11059583  0.74078015  1
  Te  Te75  1  0.08771841  0.41697406  0.09280917  1
  Te  Te76  1  0.07068666  0.41688697  0.42342808  1
  Te  Te77  1  0.08614395  0.42236975  0.77988930  1
  Te  Te78  1  0.08861547  0.73818018  0.08449531  1
  Te  Te79  1  0.09545602  0.75550475  0.39281023  1
  Te  Te80  1  0.07830221  0.75301499  0.74933385  1
  Te  Te81  1  0.42426523  0.08840776  0.07952910  1
  Te  Te82  1  0.41331723  0.06332574  0.44059004  1
  Te  Te83  1  0.42778829  0.08130108  0.75693069  1
  Te  Te84  1  0.46843985  0.42645153  0.05866413  1
  Te  Te85  1  0.43677390  0.44117808  0.41200430  1
  Te  Te86  1  0.40699120  0.46706802  0.75852154  1
  Te  Te87  1  0.47062897  0.70078052  0.05118920  1
  Te  Te88  1  0.42437204  0.75968870  0.40769448  1
  Te  Te89  1  0.43951543  0.70579818  0.74965500  1
  Te  Te90  1  0.72238846  0.08546285  0.07506544  1
  Te  Te91  1  0.73457623  0.05514050  0.40351885  1
  Te  Te92  1  0.75839602  0.09759601  0.73716845  1
  Te  Te93  1  0.75310289  0.41888618  0.13994443  1
  Te  Te94  1  0.71687287  0.41557834  0.37458888  1
  Te  Te95  1  0.72360405  0.41915074  0.75888207  1
  Te  Te96  1  0.71284669  0.73763714  0.08382007  1
  Te  Te97  1  0.76464627  0.74732901  0.38711959  1
  Te  Te98  1  0.70716378  0.72882911  0.75994969  1
  Te  Te99  1  0.08874976  0.25533557  0.24246250  1
  Te  Te100  1  0.09155528  0.25629696  0.58529789  1
  Te  Te101  1  0.07405938  0.24574525  0.91530306  1
  Te  Te102  1  0.08282609  0.57188264  0.26719684  1
  Te  Te103  1  0.11691183  0.57556278  0.62539491  1
  Te  Te104  1  0.09476950  0.59528608  0.92733333  1
  Te  Te105  1  0.08166010  0.90988274  0.22835832  1
  Te  Te106  1  0.08709538  0.92251156  0.56922123  1
  Te  Te107  1  0.08904974  0.89256624  0.89848217  1
  Te  Te108  1  0.42655579  0.25412719  0.22943031  1
  Te  Te109  1  0.40016066  0.28914323  0.59157644  1
  Te  Te110  1  0.41828084  0.24251684  0.92314872  1
  Te  Te111  1  0.46311197  0.60138598  0.24822567  1
  Te  Te112  1  0.43760003  0.55914608  0.59783980  1
  Te  Te113  1  0.47460431  0.59967143  0.94055059  1
  Te  Te114  1  0.42553884  0.89559731  0.24687708  1
  Te  Te115  1  0.43995407  0.88301496  0.60627210  1
  Te  Te116  1  0.44669750  0.91178345  0.89874243  1
  Te  Te117  1  0.76872714  0.27308950  0.28093165  1
  Te  Te118  1  0.74959553  0.27299341  0.56543480  1
  Te  Te119  1  0.74595385  0.27241186  0.93356269  1
  Te  Te120  1  0.71200613  0.55727090  0.19760185  1
  Te  Te121  1  0.73415620  0.59462112  0.59999750  1
  Te  Te122  1  0.73914669  0.56794598  0.93752635  1
  Te  Te123  1  0.78250611  0.92882755  0.22494190  1
  Te  Te124  1  0.75127313  0.91606710  0.58226697  1
  Te  Te125  1  0.73434704  0.87452118  0.89240570  1
  Te  Te126  1  0.25769343  0.27552432  0.07206477  1
  Te  Te127  1  0.24761919  0.24737325  0.39585322  1
  Te  Te128  1  0.25521924  0.25815095  0.74641652  1
  Te  Te129  1  0.27897623  0.58207209  0.08707735  1
  Te  Te130  1  0.26168734  0.59589808  0.42843583  1
  Te  Te131  1  0.28313463  0.55691663  0.79398109  1
  Te  Te132  1  0.29348005  0.90536549  0.08253009  1
  Te  Te133  1  0.23950493  0.91587366  0.39605220  1
  Te  Te134  1  0.25426814  0.92606909  0.75735428  1
  Te  Te135  1  0.60260448  0.26917605  0.11063244  1
  Te  Te136  1  0.57345447  0.24827645  0.40597931  1
  Te  Te137  1  0.57422605  0.25730646  0.74204372  1
  Te  Te138  1  0.56055214  0.54047088  0.06989853  1
  Te  Te139  1  0.59522571  0.59220026  0.42298997  1
  Te  Te140  1  0.58139026  0.63124568  0.76886663  1
  Te  Te141  1  0.57591905  0.89967162  0.07857443  1
  Te  Te142  1  0.59486658  0.91841082  0.39289109  1
  Te  Te143  1  0.54745592  0.91424452  0.77673768  1
  Te  Te144  1  0.90181997  0.25388799  0.09645884  1
  Te  Te145  1  0.87928970  0.22463615  0.38273373  1
  Te  Te146  1  0.89701558  0.28135135  0.76414330  1
  Te  Te147  1  0.88989304  0.59747254  0.04733729  1
  Te  Te148  1  0.90674115  0.56457053  0.42434949  1
  Te  Te149  1  0.91806806  0.59796453  0.75566397  1
  Te  Te150  1  0.87392303  0.92852696  0.10120274  1
  Te  Te151  1  0.91120720  0.89767093  0.39711380  1
  Te  Te152  1  0.88819524  0.91227177  0.75153319  1
  Te  Te153  1  0.23702091  0.09134010  0.25336734  1
  Te  Te154  1  0.25567923  0.09524725  0.59151012  1
  Te  Te155  1  0.26630448  0.06273743  0.93735781  1
  Te  Te156  1  0.26551123  0.41860259  0.24358140  1
  Te  Te157  1  0.22019526  0.44056407  0.60382079  1
  Te  Te158  1  0.29099818  0.42535977  0.93238086  1
  Te  Te159  1  0.26206577  0.75867227  0.22757623  1
  Te  Te160  1  0.26481627  0.74941224  0.57942061  1
  Te  Te161  1  0.27514118  0.73363107  0.92912357  1
  Te  Te162  1  0.58879483  0.08366327  0.25867968  1
  Te  Te163  1  0.59093639  0.08538634  0.58695354  1
  Te  Te164  1  0.58424810  0.08591409  0.90655097  1
  Te  Te165  1  0.51655378  0.45797440  0.23539848  1
  Te  Te166  1  0.59262030  0.42299663  0.60434834  1
  Te  Te167  1  0.56657723  0.39608827  0.91120742  1
  Te  Te168  1  0.56751614  0.74337500  0.23663103  1
  Te  Te169  1  0.58596546  0.76077731  0.58523230  1
  Te  Te170  1  0.52577030  0.77984353  0.93283797  1
  Te  Te171  1  0.89875775  0.07709952  0.23428128  1
  Te  Te172  1  0.93295189  0.08373646  0.58421550  1
  Te  Te173  1  0.92496760  0.05972855  0.92257844  1
  Te  Te174  1  0.92068026  0.43376292  0.23309135  1
  Te  Te175  1  0.90700929  0.41519915  0.58154863  1
  Te  Te176  1  0.89444940  0.43130025  0.94107311  1
  Te  Te177  1  0.89454935  0.70709375  0.22094556  1
  Te  Te178  1  0.92318114  0.73959281  0.59326436  1
  Te  Te179  1  0.91969753  0.72241543  0.95598645  1
