# generated using pymatgen
data_In2Te3
_symmetry_space_group_name_H-M   'P 1'
_cell_length_a   18.78321417
_cell_length_b   18.78181674
_cell_length_c   18.77645588
_cell_angle_alpha   90.00722558
_cell_angle_beta   89.99781345
_cell_angle_gamma   89.98259139
_symmetry_Int_Tables_number   1
_chemical_formula_structural   In2Te3
_chemical_formula_sum   'In72 Te108'
_cell_volume   6624.01193793
_cell_formula_units_Z   36
loop_
 _symmetry_equiv_pos_site_id
 _symmetry_equiv_pos_as_xyz
  1  'x, y, z'
loop_
 _atom_site_type_symbol
 _atom_site_label
 _atom_site_symmetry_multiplicity
 _atom_site_fract_x
 _atom_site_fract_y
 _atom_site_fract_z
 _atom_site_occupancy
  In  In0  1  0.65704635  0.31985078  -0.01098015  1
  In  In1  1  0.30868078  -0.00693543  0.34465901  1
  In  In2  1  0.50019202  0.83969040  0.01722765  1
  In  In3  1  0.15211489  0.82538076  0.02991420  1
  In  In4  1  0.66873330  -0.00204364  0.33490397  1
  In  In5  1  0.16938731  0.17500956  -0.01180945  1
  In  In6  1  0.48959589  0.80213054  0.31281599  1
  In  In7  1  0.69788253  0.21001034  0.53035930  1
  In  In8  1  -0.00879203  -0.00190664  -0.01412803  1
  In  In9  1  -0.00006571  0.33369286  -0.00422176  1
  In  In10  1  0.50575556  0.20298224  0.34202127  1
  In  In11  1  0.02352938  0.52079560  0.16749053  1
  In  In12  1  0.16026712  0.33589916  0.47943061  1
  In  In13  1  0.32776544  0.82359068  0.16203601  1
  In  In14  1  0.63143517  0.83107409  0.16812441  1
  In  In15  1  0.33367227  0.16517482  0.17477838  1
  In  In16  1  -0.00762867  0.33287572  0.34213888  1
  In  In17  1  0.34051942  0.50900129  0.49537530  1
  In  In18  1  0.67565695  0.17889691  0.83299418  1
  In  In19  1  0.17745730  -0.01042342  0.17211254  1
  In  In20  1  0.31887792  0.19005833  0.50628624  1
  In  In21  1  0.67871254  0.81899832  0.48375982  1
  In  In22  1  0.83687759  0.82069636  0.34253628  1
  In  In23  1  0.15368345  0.02109813  0.83836681  1
  In  In24  1  0.84978981  0.00896341  0.81796993  1
  In  In25  1  0.49155988  0.00502712  0.51323556  1
  In  In26  1  0.15645861  0.65330252  0.82670252  1
  In  In27  1  0.33697511  0.33190545  0.68372259  1
  In  In28  1  0.48183786  0.83295503  0.63853462  1
  In  In29  1  0.69699526  0.81907011  0.83082002  1
  In  In30  1  0.67499835  0.17382388  0.15561282  1
  In  In31  1  0.64448641  0.50627909  0.17249961  1
  In  In32  1  0.85370857  0.03194064  0.52709492  1
  In  In33  1  0.15127948  -0.00541219  0.49188210  1
  In  In34  1  0.83164779  0.00165724  0.13318292  1
  In  In35  1  0.48705864  0.01868768  0.14070159  1
  In  In36  1  0.14862299  0.17925030  0.67145397  1
  In  In37  1  0.50168512  0.64936036  0.49100641  1
  In  In38  1  0.31836774  0.67476619  0.31958645  1
  In  In39  1  0.15001734  0.82896384  0.64461456  1
  In  In40  1  0.65810538  0.66629660  0.01149106  1
  In  In41  1  0.84990520  0.67380844  0.83340865  1
  In  In42  1  0.31813158  0.82435279  0.83929929  1
  In  In43  1  -0.00438971  0.50837164  0.51454772  1
  In  In44  1  0.17245073  0.50548710  -0.00062361  1
  In  In45  1  0.84178466  0.84575474  -0.01242651  1
  In  In46  1  0.85488973  0.48520886  -0.00815589  1
  In  In47  1  0.30052831  0.47168500  0.18233780  1
  In  In48  1  0.15781957  0.34010623  0.84757448  1
  In  In49  1  0.49276785  0.32868268  0.83492946  1
  In  In50  1  0.83215678  0.49443021  0.66544087  1
  In  In51  1  0.67574916  0.00221754  0.69374773  1
  In  In52  1  0.15043796  0.67647326  0.46373590  1
  In  In53  1  0.49456882  0.17704769  0.66882437  1
  In  In54  1  0.85297805  0.65842398  0.16953687  1
  In  In55  1  0.66653174  0.48858553  0.82148930  1
  In  In56  1  0.48834870  0.62515760  0.84627615  1
  In  In57  1  0.84496603  0.18280164  0.34012512  1
  In  In58  1  0.51423884  0.01204949  0.84382354  1
  In  In59  1  0.33836185  0.64868641  0.65424728  1
  In  In60  1  0.01533545  0.00477547  0.34484631  1
  In  In61  1  0.34630672  0.33319832  0.01076767  1
  In  In62  1  0.67733792  0.46949480  0.52597143  1
  In  In63  1  0.82967590  0.32601369  0.16999938  1
  In  In64  1  0.00888636  0.18595414  0.17800985  1
  In  In65  1  0.15988257  0.48559964  0.69666025  1
  In  In66  1  0.50652296  0.47736494  0.33805158  1
  In  In67  1  0.84393435  0.82837618  0.66484604  1
  In  In68  1  -0.01467942  0.66369621  0.65906057  1
  In  In69  1  0.83669496  0.50105315  0.36485814  1
  In  In70  1  0.50993714  0.67859050  0.17339766  1
  In  In71  1  0.35570878  -0.00141263  0.67409254  1
  Te  Te72  1  0.08056258  0.08217990  0.08791718  1
  Te  Te73  1  0.08882095  0.10778733  0.42002308  1
  Te  Te74  1  0.05875073  0.07801886  0.73855431  1
  Te  Te75  1  0.09249793  0.40856371  0.08958415  1
  Te  Te76  1  0.07985201  0.44320353  0.40411053  1
  Te  Te77  1  0.05975736  0.39135564  0.74783071  1
  Te  Te78  1  0.09972697  0.71537659  0.11852965  1
  Te  Te79  1  0.04212484  0.73313450  0.38043480  1
  Te  Te80  1  0.07040169  0.75371470  0.75075392  1
  Te  Te81  1  0.40148138  0.10292326  0.05570832  1
  Te  Te82  1  0.41350246  0.09455206  0.41546623  1
  Te  Te83  1  0.41072835  0.10150793  0.77117920  1
  Te  Te84  1  0.41832917  0.41897994  0.10858411  1
  Te  Te85  1  0.39904806  0.40368006  0.40906605  1
  Te  Te86  1  0.41775874  0.43094337  0.75755805  1
  Te  Te87  1  0.40250057  0.72983297  0.06568799  1
  Te  Te88  1  0.40328839  0.74670344  0.42525475  1
  Te  Te89  1  0.41712401  0.74559685  0.74956785  1
  Te  Te90  1  0.75355991  0.09847519  0.05564042  1
  Te  Te91  1  0.74433114  0.09196546  0.42769894  1
  Te  Te92  1  0.77315406  0.11463814  0.72322048  1
  Te  Te93  1  0.74792113  0.42417865  0.08248038  1
  Te  Te94  1  0.75223754  0.39441922  0.41869780  1
  Te  Te95  1  0.75364268  0.39377325  0.74701136  1
  Te  Te96  1  0.75300229  0.75796779  0.08841648  1
  Te  Te97  1  0.76705028  0.71757792  0.42408954  1
  Te  Te98  1  0.74973414  0.72297381  0.72750787  1
  Te  Te99  1  0.10216290  0.27473382  0.25433687  1
  Te  Te100  1  0.07534992  0.27358224  0.58407082  1
  Te  Te101  1  0.06062110  0.23010312  0.89788398  1
  Te  Te102  1  0.10055977  0.62133177  0.24509602  1
  Te  Te103  1  0.10740501  0.58833750  0.59210856  1
  Te  Te104  1  0.07094814  0.56611327  0.90997117  1
  Te  Te105  1  0.09580309  0.90804006  0.26505452  1
  Te  Te106  1  0.05590125  0.91880686  0.57601976  1
  Te  Te107  1  0.08769233  0.90521520  0.91326185  1
  Te  Te108  1  0.42264194  0.26722123  0.23800207  1
  Te  Te109  1  0.42909393  0.27536405  0.57092238  1
  Te  Te110  1  0.42234664  0.23581740  0.92665822  1
  Te  Te111  1  0.42114097  0.58310554  0.25445697  1
  Te  Te112  1  0.44529465  0.55448468  0.59726413  1
  Te  Te113  1  0.39360514  0.61224629  0.95500221  1
  Te  Te114  1  0.41719715  0.92191366  0.24601389  1
  Te  Te115  1  0.38018105  0.90749999  0.55302988  1
  Te  Te116  1  0.41541922  0.91637022  0.91502393  1
  Te  Te117  1  0.73447252  0.26009738  0.26913260  1
  Te  Te118  1  0.79126541  0.29410900  0.61289017  1
  Te  Te119  1  0.76954288  0.26868332  0.90735982  1
  Te  Te120  1  0.75757077  0.57267433  0.25102745  1
  Te  Te121  1  0.75844387  0.58438805  0.57446594  1
  Te  Te122  1  0.75077630  0.58579258  0.92040984  1
  Te  Te123  1  0.75365966  0.91224737  0.24252388  1
  Te  Te124  1  0.74332943  0.92446989  0.57972011  1
  Te  Te125  1  0.74619716  0.93719272  0.90992185  1
  Te  Te126  1  0.23935833  0.25805971  0.09224951  1
  Te  Te127  1  0.26745295  0.27375621  0.39228130  1
  Te  Te128  1  0.24860274  0.24245831  0.76839686  1
  Te  Te129  1  0.26253364  0.58206550  0.09020073  1
  Te  Te130  1  0.23960336  0.57013784  0.39796177  1
  Te  Te131  1  0.26887888  0.56977678  0.76461688  1
  Te  Te132  1  0.26551187  0.92396272  0.06610714  1
  Te  Te133  1  0.21886406  0.89291719  0.40389045  1
  Te  Te134  1  0.24254649  0.91750054  0.74166384  1
  Te  Te135  1  0.57105445  0.25538735  0.09008347  1
  Te  Te136  1  0.59280723  0.27857029  0.44170244  1
  Te  Te137  1  0.59541673  0.26822912  0.73768485  1
  Te  Te138  1  0.55441448  0.57283658  0.06852421  1
  Te  Te139  1  0.60185493  0.56265243  0.41924882  1
  Te  Te140  1  0.58691417  0.58716801  0.74450101  1
  Te  Te141  1  0.60021411  0.94339269  0.06966245  1
  Te  Te142  1  0.56956426  0.91089163  0.41336520  1
  Te  Te143  1  0.57095160  0.90380447  0.74480586  1
  Te  Te144  1  0.90829251  0.23749844  0.07559427  1
  Te  Te145  1  0.92748255  0.24654392  0.44353421  1
  Te  Te146  1  0.89244987  0.21745630  0.70564011  1
  Te  Te147  1  0.93791796  0.59323614  0.06057353  1
  Te  Te148  1  0.93500446  0.60250606  0.41325516  1
  Te  Te149  1  0.92934332  0.56533188  0.76125254  1
  Te  Te150  1  0.93934635  0.90097485  0.09458714  1
  Te  Te151  1  0.90874883  0.92984952  0.42571171  1
  Te  Te152  1  0.93368920  0.90974574  0.74849922  1
  Te  Te153  1  0.23013629  0.09737180  0.26763876  1
  Te  Te154  1  0.25305173  0.08392573  0.59321748  1
  Te  Te155  1  0.25968413  0.07832472  0.92181710  1
  Te  Te156  1  0.21910988  0.38421991  0.26873427  1
  Te  Te157  1  0.24818705  0.41660136  0.58586083  1
  Te  Te158  1  0.26824180  0.42190554  0.91233142  1
  Te  Te159  1  0.21797625  0.74644601  0.23056453  1
  Te  Te160  1  0.24761384  0.73739774  0.57010327  1
  Te  Te161  1  0.23335509  0.73741039  0.92983193  1
  Te  Te162  1  0.57368574  0.08616661  0.25463741  1
  Te  Te163  1  0.59400222  0.09110186  0.58721349  1
  Te  Te164  1  0.58920046  0.10565576  0.92876648  1
  Te  Te165  1  0.58121833  0.39233055  0.24090213  1
  Te  Te166  1  0.57780438  0.36981966  0.57360613  1
  Te  Te167  1  0.57072748  0.42804521  0.92370106  1
  Te  Te168  1  0.61546940  0.72428335  0.27577294  1
  Te  Te169  1  0.58775740  0.74105525  0.58006191  1
  Te  Te170  1  0.58173193  0.75518028  0.91022894  1
  Te  Te171  1  0.90832678  0.08139843  0.24461714  1
  Te  Te172  1  0.94965640  0.10717065  0.61206646  1
  Te  Te173  1  0.91701117  0.10165663  0.91202873  1
  Te  Te174  1  0.91907565  0.42892063  0.23888371  1
  Te  Te175  1  0.91141778  0.40138763  0.57477015  1
  Te  Te176  1  0.90885559  0.39108872  0.89207838  1
  Te  Te177  1  0.93753241  0.74865343  0.25484469  1
  Te  Te178  1  0.91839860  0.75203988  0.56234366  1
  Te  Te179  1  0.93638733  0.75529613  0.92057570  1
