# generated using pymatgen
data_In2Te3
_symmetry_space_group_name_H-M   'P 1'
_cell_length_a   18.93887299
_cell_length_b   18.94586023
_cell_length_c   18.94995319
_cell_angle_alpha   90.14533380
_cell_angle_beta   89.91136639
_cell_angle_gamma   90.13944216
_symmetry_Int_Tables_number   1
_chemical_formula_structural   In2Te3
_chemical_formula_sum   'In72 Te108'
_cell_volume   6799.44403011
_cell_formula_units_Z   36
loop_
 _symmetry_equiv_pos_site_id
 _symmetry_equiv_pos_as_xyz
  1  'x, y, z'
loop_
 _atom_site_type_symbol
 _atom_site_label
 _atom_site_symmetry_multiplicity
 _atom_site_fract_x
 _atom_site_fract_y
 _atom_site_fract_z
 _atom_site_occupancy
  In  In0  1  0.84523315  0.16628300  0.01159181  1
  In  In1  1  0.16270121  0.80056367  0.37907629  1
  In  In2  1  0.19258623  0.17958306  0.33221839  1
  In  In3  1  0.18314301  0.65300665  0.82691442  1
  In  In4  1  0.67365165  0.15530338  0.82344405  1
  In  In5  1  0.20029568  0.36737510  0.51619467  1
  In  In6  1  0.87272950  0.33274951  0.52209614  1
  In  In7  1  0.66357113  0.18342857  0.13665775  1
  In  In8  1  0.82351846  0.49241219  -0.01497937  1
  In  In9  1  0.29009814  0.83914238  0.79191108  1
  In  In10  1  0.00526428  0.49347206  0.17442729  1
  In  In11  1  0.50558908  -0.00042521  0.81718615  1
  In  In12  1  0.70434358  0.34189944  0.34691153  1
  In  In13  1  0.68192690  0.15580662  0.48169301  1
  In  In14  1  0.66854646  0.80991577  0.51512955  1
  In  In15  1  0.46599706  -0.00918632  0.12843054  1
  In  In16  1  0.84337751  0.66124920  0.50712062  1
  In  In17  1  0.49324616  0.80547553  0.33615379  1
  In  In18  1  -0.00347005  0.01959499  0.01717703  1
  In  In19  1  0.15651568  -0.01048670  0.51292070  1
  In  In20  1  0.62995171  0.65855163  0.66739329  1
  In  In21  1  -0.00345361  0.81207773  0.15857136  1
  In  In22  1  0.31339583  0.63957852  0.04979951  1
  In  In23  1  0.46648623  0.79706215  0.64459317  1
  In  In24  1  0.33170268  0.64939108  0.35102828  1
  In  In25  1  0.47262559  0.36252121  0.16893162  1
  In  In26  1  0.83429520  0.84604847  0.70297362  1
  In  In27  1  0.02935124  0.33601912  0.66194479  1
  In  In28  1  0.03946592  0.18687317  0.18780646  1
  In  In29  1  0.46722681  0.81844524  -0.00691448  1
  In  In30  1  0.00788514  -0.01900489  0.34818982  1
  In  In31  1  0.84271098  0.50139996  0.67451774  1
  In  In32  1  0.05052572  0.68130107  0.61147147  1
  In  In33  1  0.66021833  0.50397001  0.80936954  1
  In  In34  1  0.49500708  0.17042712  0.67823722  1
  In  In35  1  0.32977434  0.18049609  0.82759529  1
  In  In36  1  0.31813973  0.83235408  0.19770828  1
  In  In37  1  0.81720291  0.02190259  0.18392642  1
  In  In38  1  0.65400133  0.34656594  0.64989094  1
  In  In39  1  0.00941172  0.63631711  -0.00962115  1
  In  In40  1  0.05863664  0.34128364  -0.00707469  1
  In  In41  1  0.15914438  0.01423754  0.16901541  1
  In  In42  1  0.16244134  0.15937921  0.67002135  1
  In  In43  1  0.48348227  -0.02347005  0.50733046  1
  In  In44  1  0.40429015  0.49258782  0.69555359  1
  In  In45  1  0.14674400  0.82579511  0.01291038  1
  In  In46  1  0.51041106  0.17799073  0.31485323  1
  In  In47  1  0.63959291  0.84321494  0.85060381  1
  In  In48  1  0.63871015  0.31808151  -0.02470861  1
  In  In49  1  0.67633354  0.00087762  0.67330263  1
  In  In50  1  0.30530614  0.01943485  -0.03083887  1
  In  In51  1  0.89797323  0.15069194  0.63634661  1
  In  In52  1  0.35343260  0.17912498  0.49722794  1
  In  In53  1  0.84591663  0.84652802  0.36781806  1
  In  In54  1  0.64175589  0.50957858  0.16984502  1
  In  In55  1  0.46519581  0.49316492  0.00899890  1
  In  In56  1  0.27260272  0.81171361  0.53795779  1
  In  In57  1  0.86800929  0.50742408  0.34424388  1
  In  In58  1  0.29184505  0.20121642  0.14359791  1
  In  In59  1  0.63668540  0.83518907  0.17158175  1
  In  In60  1  0.64011289  0.52422924  0.44447096  1
  In  In61  1  0.80334476  0.84831532  -0.00248254  1
  In  In62  1  0.84952896  0.17415646  0.36303180  1
  In  In63  1  0.01827388  0.47733954  0.83174164  1
  In  In64  1  0.46728888  0.38797385  0.47894740  1
  In  In65  1  0.66091640  0.02414947  0.33642332  1
  In  In66  1  0.00623724  0.84616711  0.82892020  1
  In  In67  1  0.82295359  0.68205416  0.18353089  1
  In  In68  1  0.17849778  0.32468082  0.81962825  1
  In  In69  1  0.15948534  0.50414178  0.33147750  1
  In  In70  1  0.83659967  0.35179111  0.16692981  1
  In  In71  1  0.82474538  0.68111714  0.85648458  1
  Te  Te72  1  0.10484479  0.11370493  0.06979642  1
  Te  Te73  1  0.09882594  0.08743427  0.40805803  1
  Te  Te74  1  0.08123272  0.04547378  0.71689106  1
  Te  Te75  1  0.11534729  0.43447975  0.09276644  1
  Te  Te76  1  0.09510747  0.40658126  0.42257591  1
  Te  Te77  1  0.12086256  0.43748353  0.72926697  1
  Te  Te78  1  0.09132963  0.71118145  0.09549393  1
  Te  Te79  1  0.06571069  0.73683781  0.46735488  1
  Te  Te80  1  0.07537949  0.73185882  0.75539106  1
  Te  Te81  1  0.38813677  0.10162704  0.06612745  1
  Te  Te82  1  0.43499308  0.08399100  0.41057416  1
  Te  Te83  1  0.39936837  0.07229608  0.73815805  1
  Te  Te84  1  0.35998584  0.41309417  0.08432594  1
  Te  Te85  1  0.39942164  0.46037638  0.36550413  1
  Te  Te86  1  0.39453513  0.38215646  0.80168254  1
  Te  Te87  1  0.40721387  0.74345182  0.11156157  1
  Te  Te88  1  0.38397819  0.76727235  0.43070047  1
  Te  Te89  1  0.40608359  0.75183565  0.77032806  1
  Te  Te90  1  0.73692392  0.07000335  0.06624462  1
  Te  Te91  1  0.78277825  0.05377566  0.42838942  1
  Te  Te92  1  0.77531051  0.10066359  0.72432629  1
  Te  Te93  1  0.72842007  0.40562750  0.07574326  1
  Te  Te94  1  0.77238294  0.43273018  0.44625342  1
  Te  Te95  1  0.75661103  0.40221979  0.75076070  1
  Te  Te96  1  0.73034379  0.74736316  0.08217067  1
  Te  Te97  1  0.75029695  0.73474542  0.41190111  1
  Te  Te98  1  0.72750859  0.73991753  0.75388862  1
  Te  Te99  1  0.16097634  0.26945825  0.21503984  1
  Te  Te100  1  0.10616228  0.25097591  0.56404355  1
  Te  Te101  1  0.07580385  0.24233848  0.88620312  1
  Te  Te102  1  0.05725845  0.59249296  0.26892517  1
  Te  Te103  1  0.16033960  0.58650196  0.58237131  1
  Te  Te104  1  0.11564062  0.55512339  0.92289483  1
  Te  Te105  1  0.08821966  0.90251246  0.24436382  1
  Te  Te106  1  0.14781207  0.87201048  0.60555634  1
  Te  Te107  1  0.08554241  0.93217221  0.92640612  1
  Te  Te108  1  0.40013696  0.25247151  0.24611329  1
  Te  Te109  1  0.44221507  0.27159342  0.57831985  1
  Te  Te110  1  0.40382175  0.27728969  0.91700098  1
  Te  Te111  1  0.42215113  0.57001393  0.25683311  1
  Te  Te112  1  0.38811980  0.58678466  0.57560449  1
  Te  Te113  1  0.37825867  0.58463559  0.92936322  1
  Te  Te114  1  0.42740263  0.92059136  0.25635077  1
  Te  Te115  1  0.38088730  0.91178664  0.59492847  1
  Te  Te116  1  0.39972417  0.92272931  0.89824217  1
  Te  Te117  1  0.75641340  0.23151952  0.24854074  1
  Te  Te118  1  0.75066748  0.25330295  0.57632218  1
  Te  Te119  1  0.75706330  0.24785015  0.91464929  1
  Te  Te120  1  0.75894243  0.56459745  0.25553769  1
  Te  Te121  1  0.74335052  0.58356641  0.59520544  1
  Te  Te122  1  0.72492957  0.58741004  0.92194969  1
  Te  Te123  1  0.74899115  0.90651149  0.25550931  1
  Te  Te124  1  0.75940100  0.90870147  0.58520261  1
  Te  Te125  1  0.75548163  0.92677310  0.88427079  1
  Te  Te126  1  0.27677540  0.28534460  0.01724367  1
  Te  Te127  1  0.27481009  0.27721490  0.41438427  1
  Te  Te128  1  0.26809161  0.26152713  0.71389922  1
  Te  Te129  1  0.24039965  0.54766175  0.13976960  1
  Te  Te130  1  0.22483314  0.59053285  0.44006071  1
  Te  Te131  1  0.29848980  0.58174704  0.76665123  1
  Te  Te132  1  0.25183798  0.91550561  0.08567205  1
  Te  Te133  1  0.24730270  0.91787272  0.41395823  1
  Te  Te134  1  0.19623843  0.94150021  0.73895396  1
  Te  Te135  1  0.54640054  0.25712553  0.07882988  1
  Te  Te136  1  0.59088176  0.25905289  0.41630248  1
  Te  Te137  1  0.58481759  0.26276484  0.75663571  1
  Te  Te138  1  0.55412470  0.58647014  0.08465490  1
  Te  Te139  1  0.53505855  0.58749385  0.36456597  1
  Te  Te140  1  0.53988352  0.56764381  0.74501556  1
  Te  Te141  1  0.57353354  0.91302816  0.05737444  1
  Te  Te142  1  0.59332250  0.91147919  0.42191041  1
  Te  Te143  1  0.57258452  0.89742077  0.71624506  1
  Te  Te144  1  0.93360697  0.25736871  0.09697509  1
  Te  Te145  1  0.95160200  0.26011325  0.42146371  1
  Te  Te146  1  0.93321636  0.25252217  0.73457127  1
  Te  Te147  1  0.89729755  0.58111088  0.08608526  1
  Te  Te148  1  0.95149100  0.59251022  0.43199730  1
  Te  Te149  1  0.91338548  0.57894229  0.78441688  1
  Te  Te150  1  0.90738202  0.92021838  0.09893002  1
  Te  Te151  1  0.94625564  0.90596780  0.46168195  1
  Te  Te152  1  0.94767308  0.93954925  0.72861942  1
  Te  Te153  1  0.26928176  0.08130589  0.24550664  1
  Te  Te154  1  0.25992481  0.08829343  0.57154839  1
  Te  Te155  1  0.21834100  0.10277257  0.88723385  1
  Te  Te156  1  0.28172941  0.45568402  0.25801757  1
  Te  Te157  1  0.31828465  0.44508518  0.57547340  1
  Te  Te158  1  0.27664340  0.39861375  0.90584575  1
  Te  Te159  1  0.23113945  0.72957442  0.26399845  1
  Te  Te160  1  0.27797181  0.68238952  0.62272800  1
  Te  Te161  1  0.24496904  0.76042008  0.91986163  1
  Te  Te162  1  0.57821477  0.07694970  0.21891815  1
  Te  Te163  1  0.58163589  0.08250551  0.57841873  1
  Te  Te164  1  0.57242558  0.09163462  0.90841047  1
  Te  Te165  1  0.59383044  0.39751368  0.25946859  1
  Te  Te166  1  0.57844008  0.44775644  0.56206157  1
  Te  Te167  1  0.56938974  0.43298175  0.91019832  1
  Te  Te168  1  0.59150363  0.72609998  0.26139183  1
  Te  Te169  1  0.55426990  0.71625269  0.54892291  1
  Te  Te170  1  0.56292259  0.73839762  0.91559221  1
  Te  Te171  1  0.93664044  0.08695091  0.25247189  1
  Te  Te172  1  0.92734613  0.05726781  0.53024920  1
  Te  Te173  1  0.91799089  0.08535748  0.91348647  1
  Te  Te174  1  0.93709700  0.39296593  0.27063166  1
  Te  Te175  1  0.95177750  0.44586487  0.58619549  1
  Te  Te176  1  0.92881735  0.40140847  0.92908644  1
  Te  Te177  1  0.92268673  0.75003013  0.27562963  1
  Te  Te178  1  0.90682263  0.73991166  0.62117590  1
  Te  Te179  1  0.92534392  0.76013795  0.94124619  1
