# generated using pymatgen
data_In2Te3
_symmetry_space_group_name_H-M   'P 1'
_cell_length_a   18.95228661
_cell_length_b   18.93382328
_cell_length_c   18.94956837
_cell_angle_alpha   90.00472357
_cell_angle_beta   90.03502954
_cell_angle_gamma   89.89327299
_symmetry_Int_Tables_number   1
_chemical_formula_structural   In2Te3
_chemical_formula_sum   'In72 Te108'
_cell_volume   6799.83572420
_cell_formula_units_Z   36
loop_
 _symmetry_equiv_pos_site_id
 _symmetry_equiv_pos_as_xyz
  1  'x, y, z'
loop_
 _atom_site_type_symbol
 _atom_site_label
 _atom_site_symmetry_multiplicity
 _atom_site_fract_x
 _atom_site_fract_y
 _atom_site_fract_z
 _atom_site_occupancy
  In  In0  1  0.00339685  0.33025577  -0.00589233  1
  In  In1  1  0.68315266  0.66548081  0.32526767  1
  In  In2  1  0.52115091  0.31816537  0.83446738  1
  In  In3  1  0.49946775  -0.02398071  0.50814083  1
  In  In4  1  0.65753439  0.32620412  0.64676415  1
  In  In5  1  -0.00739752  0.16787308  0.50822411  1
  In  In6  1  0.49903858  0.00785425  0.81072990  1
  In  In7  1  0.01599311  0.52123536  0.80851652  1
  In  In8  1  0.68533454  -0.00739945  0.67488818  1
  In  In9  1  0.65361896  0.82385073  0.84590253  1
  In  In10  1  0.32115576  0.51747797  0.20348379  1
  In  In11  1  0.30503223  0.34960916  0.62200220  1
  In  In12  1  0.65302160  0.84190541  0.16979777  1
  In  In13  1  -0.02731351  0.63966891  0.35393535  1
  In  In14  1  0.68302324  0.67253764  0.00311229  1
  In  In15  1  -0.03452749  -0.00771212  0.33383422  1
  In  In16  1  0.66317774  0.66526165  0.66470877  1
  In  In17  1  0.50169787  0.15692528  0.36002672  1
  In  In18  1  0.34185345  0.70188359  0.02033686  1
  In  In19  1  0.18377912  0.16660152  -0.03165072  1
  In  In20  1  0.50469831  0.50604287  0.67803197  1
  In  In21  1  -0.00408044  0.00313701  0.64825140  1
  In  In22  1  0.82316448  0.83518309  0.64299611  1
  In  In23  1  0.51888833  0.33494697  0.19609642  1
  In  In24  1  0.84585917  -0.00784406  0.81818649  1
  In  In25  1  0.64327907  0.50696574  0.80730055  1
  In  In26  1  0.19024853  0.01773853  0.15522061  1
  In  In27  1  0.83374822  0.17710645  0.34689716  1
  In  In28  1  0.69484762  0.37479296  0.36801626  1
  In  In29  1  0.63528436  0.00864681  0.33525456  1
  In  In30  1  0.33392820  0.83256887  0.52530832  1
  In  In31  1  0.01471911  0.16740965  0.12932400  1
  In  In32  1  0.84642097  0.65857443  0.18217750  1
  In  In33  1  0.32619403  0.83004150  0.81838893  1
  In  In34  1  0.16426414  0.33928574  0.81120972  1
  In  In35  1  0.01317205  0.77611786  0.52908923  1
  In  In36  1  0.84148408  0.15328443  -0.01142588  1
  In  In37  1  0.31812332  0.66223092  0.34816607  1
  In  In38  1  0.15832922  -0.00521710  0.50740843  1
  In  In39  1  0.15168641  0.35314206  0.17146493  1
  In  In40  1  0.31933706  0.17157757  0.17067952  1
  In  In41  1  0.15616596  -0.04073490  0.83349725  1
  In  In42  1  0.30761759  0.67337705  0.67381172  1
  In  In43  1  0.32935227  0.32728588  0.38504631  1
  In  In44  1  0.85048290  0.82627490  -0.02331205  1
  In  In45  1  0.14709331  0.67104510  0.16744897  1
  In  In46  1  0.46334653  -0.06318793  0.12524015  1
  In  In47  1  0.66924622  0.17913567  0.17761442  1
  In  In48  1  0.15052604  0.84457520  0.32789509  1
  In  In49  1  0.15207969  0.50339668  -0.01741633  1
  In  In50  1  0.68142924  0.17521289  0.50274506  1
  In  In51  1  0.51635395  0.14513733  -0.01832883  1
  In  In52  1  0.83302719  0.49124704  0.68566745  1
  In  In53  1  0.17849062  0.16374587  0.32094830  1
  In  In54  1  0.84876719  0.51489514  0.01898032  1
  In  In55  1  0.14795182  0.51500136  0.36478287  1
  In  In56  1  0.49922003  0.66506364  0.52516917  1
  In  In57  1  -0.05265812  0.41830675  0.37458697  1
  In  In58  1  0.37252640  0.33091453  -0.00066993  1
  In  In59  1  0.50569954  0.53664394  0.03968509  1
  In  In60  1  0.82726850  -0.00701684  0.15462195  1
  In  In61  1  0.85542485  0.67041059  0.85206611  1
  In  In62  1  -0.00209952  0.32599039  0.69178418  1
  In  In63  1  0.33294456  0.50884329  0.82872754  1
  In  In64  1  0.47746698  0.16875214  0.65223749  1
  In  In65  1  0.48364299  0.50912295  0.33971822  1
  In  In66  1  0.82135999  0.82898846  0.37260599  1
  In  In67  1  -0.00124316  0.82540307  0.14805531  1
  In  In68  1  0.84996981  0.31042348  0.84381564  1
  In  In69  1  0.68096583  0.35622838  -0.00527098  1
  In  In70  1  0.17002184  0.14636347  0.67312720  1
  In  In71  1  0.32434751  -0.01830320  -0.01336259  1
  Te  Te72  1  0.09531553  0.07064878  0.04648096  1
  Te  Te73  1  0.07251330  0.07822111  0.40130370  1
  Te  Te74  1  0.07374181  0.07029197  0.75921812  1
  Te  Te75  1  0.05900038  0.43624842  0.08623889  1
  Te  Te76  1  0.08859241  0.39581816  0.42625106  1
  Te  Te77  1  0.10478028  0.43993801  0.71656548  1
  Te  Te78  1  0.10773764  0.77075758  0.06361503  1
  Te  Te79  1  0.09184259  0.72623821  0.39985445  1
  Te  Te80  1  0.12860705  0.69643848  0.70042701  1
  Te  Te81  1  0.40184668  0.09178534  0.07181313  1
  Te  Te82  1  0.41322508  0.07504198  0.43982400  1
  Te  Te83  1  0.39760473  0.06227826  0.71623655  1
  Te  Te84  1  0.41542267  0.42415352  0.11427718  1
  Te  Te85  1  0.44110363  0.40637750  0.43783213  1
  Te  Te86  1  0.42011302  0.40561416  0.75842836  1
  Te  Te87  1  0.43197378  0.78522425  0.10418655  1
  Te  Te88  1  0.41394362  0.74781834  0.42781744  1
  Te  Te89  1  0.41822946  0.73873139  0.74559849  1
  Te  Te90  1  0.73541280  0.08572757  0.07805864  1
  Te  Te91  1  0.75058591  0.07158740  0.41477652  1
  Te  Te92  1  0.77796190  0.09273581  0.73220206  1
  Te  Te93  1  0.76570853  0.42174322  0.09430671  1
  Te  Te94  1  0.78910430  0.47338607  0.42723835  1
  Te  Te95  1  0.73858253  0.39370985  0.76809628  1
  Te  Te96  1  0.76922415  0.76838850  0.09741785  1
  Te  Te97  1  0.76886303  0.70855816  0.43948139  1
  Te  Te98  1  0.75741254  0.74668586  0.76254491  1
  Te  Te99  1  0.07341091  0.24698594  0.24586843  1
  Te  Te100  1  0.08639091  0.24705178  0.59492530  1
  Te  Te101  1  0.07655462  0.24532735  0.89260027  1
  Te  Te102  1  0.06689237  0.57315593  0.25086345  1
  Te  Te103  1  0.08343127  0.64499096  0.56956559  1
  Te  Te104  1  0.06529188  0.60370062  0.92065962  1
  Te  Te105  1  0.07325429  0.93913553  0.23452589  1
  Te  Te106  1  0.09139242  0.89574881  0.59743036  1
  Te  Te107  1  0.08137387  0.86807439  0.92006143  1
  Te  Te108  1  0.40682070  0.25536797  0.26254858  1
  Te  Te109  1  0.42685045  0.28250480  0.57015537  1
  Te  Te110  1  0.41642190  0.22746043  0.89870171  1
  Te  Te111  1  0.42687496  0.61517550  0.24548080  1
  Te  Te112  1  0.39939800  0.57401176  0.59509226  1
  Te  Te113  1  0.40720266  0.58785515  0.93539439  1
  Te  Te114  1  0.39238098  0.86828023  0.23076152  1
  Te  Te115  1  0.40799058  0.92465758  0.61420878  1
  Te  Te116  1  0.42808224  0.91074030  0.90408776  1
  Te  Te117  1  0.75060279  0.27228727  0.26297746  1
  Te  Te118  1  0.76743024  0.27626835  0.56404692  1
  Te  Te119  1  0.73604972  0.24018711  0.91586480  1
  Te  Te120  1  0.78530371  0.55550653  0.27495200  1
  Te  Te121  1  0.72363036  0.54612007  0.59824049  1
  Te  Te122  1  0.74904648  0.56964093  0.90101022  1
  Te  Te123  1  0.75545813  0.92608737  0.26924957  1
  Te  Te124  1  0.71852935  0.90046967  0.56291612  1
  Te  Te125  1  0.74999634  0.91955047  0.91381022  1
  Te  Te126  1  0.23438211  0.26194796  0.07968591  1
  Te  Te127  1  0.24505584  0.21949750  0.44142383  1
  Te  Te128  1  0.26201592  0.25458609  0.73342590  1
  Te  Te129  1  0.24586778  0.57634830  0.08596144  1
  Te  Te130  1  0.27396548  0.54892728  0.43802621  1
  Te  Te131  1  0.22405415  0.59854497  0.77659203  1
  Te  Te132  1  0.24725782  0.90344141  0.08365406  1
  Te  Te133  1  0.25001250  0.91101131  0.41984384  1
  Te  Te134  1  0.23312637  0.89811130  0.72466896  1
  Te  Te135  1  0.57780498  0.26172676  0.07599359  1
  Te  Te136  1  0.59613200  0.26095159  0.41021578  1
  Te  Te137  1  0.59032088  0.22541540  0.73863732  1
  Te  Te138  1  0.61672150  0.59694712  0.11094248  1
  Te  Te139  1  0.58202650  0.59445643  0.41755017  1
  Te  Te140  1  0.55338797  0.62235144  0.76556082  1
  Te  Te141  1  0.59761916  0.93432260  0.07138871  1
  Te  Te142  1  0.56454917  0.89659322  0.39944730  1
  Te  Te143  1  0.58198178  0.90110016  0.73816669  1
  Te  Te144  1  0.90240583  0.25944461  0.08110186  1
  Te  Te145  1  0.91972347  0.27098048  0.42393650  1
  Te  Te146  1  0.90186588  0.22299951  0.73854906  1
  Te  Te147  1  0.93273990  0.62350167  0.06833061  1
  Te  Te148  1  0.92758295  0.54344864  0.46055784  1
  Te  Te149  1  0.92106658  0.60884108  0.72879779  1
  Te  Te150  1  0.92710811  0.92796258  0.06205901  1
  Te  Te151  1  0.93802382  0.89357458  0.44191979  1
  Te  Te152  1  0.92763767  0.89507530  0.73356922  1
  Te  Te153  1  0.28110169  0.06237568  0.26906400  1
  Te  Te154  1  0.25254938  0.09732273  0.55928499  1
  Te  Te155  1  0.25858110  0.06971392  0.88263112  1
  Te  Te156  1  0.24835315  0.40493003  0.27551990  1
  Te  Te157  1  0.22243723  0.43132134  0.53015056  1
  Te  Te158  1  0.25262467  0.40413589  0.92062529  1
  Te  Te159  1  0.24681899  0.75262335  0.24816342  1
  Te  Te160  1  0.22899089  0.72968903  0.55877721  1
  Te  Te161  1  0.25031174  0.74854549  0.91676177  1
  Te  Te162  1  0.55818069  0.09209315  0.23411904  1
  Te  Te163  1  0.59036350  0.08271731  0.58002309  1
  Te  Te164  1  0.60387084  0.07880635  0.88651746  1
  Te  Te165  1  0.59986382  0.43999522  0.26326608  1
  Te  Te166  1  0.59517081  0.44261216  0.57781854  1
  Te  Te167  1  0.56541713  0.43728608  0.92641064  1
  Te  Te168  1  0.58875189  0.77298041  0.28176496  1
  Te  Te169  1  0.59695903  0.76380171  0.57738300  1
  Te  Te170  1  0.57376823  0.74419423  0.93900011  1
  Te  Te171  1  0.90925480  0.09976500  0.23025416  1
  Te  Te172  1  0.89719955  0.07327086  0.56552347  1
  Te  Te173  1  0.93137168  0.06932576  0.91089976  1
  Te  Te174  1  0.89205913  0.45137991  0.24260566  1
  Te  Te175  1  0.92994190  0.42010119  0.60087964  1
  Te  Te176  1  0.92613946  0.42948202  0.90050738  1
  Te  Te177  1  0.92462702  0.76640640  0.26686329  1
  Te  Te178  1  0.87886284  0.71885373  0.56947974  1
  Te  Te179  1  0.96157292  0.77169814  0.89011862  1
