# generated using pymatgen
data_In2Te3
_symmetry_space_group_name_H-M   'P 1'
_cell_length_a   18.89578679
_cell_length_b   18.89606286
_cell_length_c   18.87920128
_cell_angle_alpha   90.06619463
_cell_angle_beta   90.09964018
_cell_angle_gamma   89.81332673
_symmetry_Int_Tables_number   1
_chemical_formula_structural   In2Te3
_chemical_formula_sum   'In72 Te108'
_cell_volume   6740.88119673
_cell_formula_units_Z   36
loop_
 _symmetry_equiv_pos_site_id
 _symmetry_equiv_pos_as_xyz
  1  'x, y, z'
loop_
 _atom_site_type_symbol
 _atom_site_label
 _atom_site_symmetry_multiplicity
 _atom_site_fract_x
 _atom_site_fract_y
 _atom_site_fract_z
 _atom_site_occupancy
  In  In0  1  0.64819704  0.68052850  0.67928802  1
  In  In1  1  0.67750140  0.35076541  -0.00921104  1
  In  In2  1  0.47927171  -0.02387293  0.16117647  1
  In  In3  1  0.16415565  0.64639285  0.50832908  1
  In  In4  1  0.83252200  0.33347884  0.17699939  1
  In  In5  1  0.80673393  0.35173456  0.51490892  1
  In  In6  1  0.48503588  0.51882809  0.00941547  1
  In  In7  1  0.64110942  0.52175533  0.16332758  1
  In  In8  1  -0.04372762  0.19587236  0.58613946  1
  In  In9  1  0.17410134  0.13566828  0.31834759  1
  In  In10  1  0.80793653  0.71330857  0.14806311  1
  In  In11  1  0.00617259  0.82765755  0.16519021  1
  In  In12  1  0.83997081  0.65585281  0.85698610  1
  In  In13  1  0.35321811  0.15523701  0.50143303  1
  In  In14  1  0.81775806  0.70071890  0.48452233  1
  In  In15  1  0.02715427  0.16589004  0.19574925  1
  In  In16  1  0.63685260  -0.04155167  0.00639197  1
  In  In17  1  0.78719723  0.84262901  0.32680572  1
  In  In18  1  0.49449189  0.17079305  0.68863511  1
  In  In19  1  0.33608049  0.50475225  0.80989894  1
  In  In20  1  0.02532273  0.81507050  0.83394188  1
  In  In21  1  0.65859712  0.50742886  0.49986697  1
  In  In22  1  0.35219981  0.69438064  0.67163917  1
  In  In23  1  0.64521612  0.31723095  0.67578003  1
  In  In24  1  0.82798100  0.83515204  0.66311323  1
  In  In25  1  0.50674381  0.68963315  0.19236509  1
  In  In26  1  0.82069074  -0.04212197  0.18829629  1
  In  In27  1  0.50387947  0.50367128  0.66748982  1
  In  In28  1  -0.00080183  0.63760283  0.30125639  1
  In  In29  1  0.32629208  0.70656912  -0.01427446  1
  In  In30  1  0.84342589  0.50802454  0.67403456  1
  In  In31  1  0.47002762  0.49024000  0.34775856  1
  In  In32  1  0.68319421  0.00021536  0.66273893  1
  In  In33  1  0.00835946  -0.01561940  -0.03170129  1
  In  In34  1  0.00977395  0.50640382  0.50141463  1
  In  In35  1  0.48971891  0.18385833  0.33753434  1
  In  In36  1  0.49612713  0.32833766  0.16635272  1
  In  In37  1  0.83012502  0.50968624  0.29845908  1
  In  In38  1  0.19053895  0.15033588  0.66405039  1
  In  In39  1  0.19286708  0.01296160  0.14317931  1
  In  In40  1  0.86381910  0.33381433  0.80943988  1
  In  In41  1  0.60734018  -0.00849322  0.34741456  1
  In  In42  1  0.50398136  0.67818884  0.51079518  1
  In  In43  1  0.81898861  -0.00974557  0.84571125  1
  In  In44  1  0.17654076  0.81378730  0.35183890  1
  In  In45  1  0.02232788  0.47800990  0.83012662  1
  In  In46  1  0.00729686  0.51175685  0.16260532  1
  In  In47  1  0.83848445  0.15982754  -0.00287164  1
  In  In48  1  0.17767682  0.50528376  -0.00654991  1
  In  In49  1  0.19059071  0.84332963  0.69692512  1
  In  In50  1  0.16763615  0.00118730  0.48641916  1
  In  In51  1  0.01261767  0.02117450  0.68190992  1
  In  In52  1  0.33039060  -0.00212299  -0.01101013  1
  In  In53  1  0.31439124  0.30111269  0.02654813  1
  In  In54  1  0.03243200  0.29155553  0.34210492  1
  In  In55  1  0.68226623  0.16248724  0.15501165  1
  In  In56  1  0.65195702  0.16779651  0.48757867  1
  In  In57  1  -0.00095395  0.32594028  -0.02602972  1
  In  In58  1  0.00094728  0.64332330  -0.01031881  1
  In  In59  1  0.82969940  0.16603953  0.34078471  1
  In  In60  1  0.36672291  0.84192424  0.51244863  1
  In  In61  1  0.52453105  -0.02526216  0.84800375  1
  In  In62  1  0.33176893  0.16157948  0.83739071  1
  In  In63  1  0.00343288  -0.02483390  0.34342751  1
  In  In64  1  0.49696850  0.13412542  -0.03169850  1
  In  In65  1  -0.01364646  0.83609471  0.50622891  1
  In  In66  1  0.30967927  0.35478220  0.33054290  1
  In  In67  1  0.65978055  0.52580324  0.83503119  1
  In  In68  1  0.32095157  0.65068905  0.32970946  1
  In  In69  1  0.15503762  0.65537599  0.16646957  1
  In  In70  1  0.17204063  0.32308664  0.81332131  1
  In  In71  1  0.19774853  0.34408341  0.52024478  1
  Te  Te72  1  0.06820279  0.07344408  0.08150986  1
  Te  Te73  1  0.06510374  0.09150206  0.41809734  1
  Te  Te74  1  0.12211068  0.06947861  0.76632807  1
  Te  Te75  1  0.08022183  0.41719152  0.06833255  1
  Te  Te76  1  0.09541533  0.40495370  0.42613275  1
  Te  Te77  1  0.10714570  0.42178715  0.72284785  1
  Te  Te78  1  0.08647679  0.74643861  0.06607248  1
  Te  Te79  1  0.06369587  0.73408421  0.41434798  1
  Te  Te80  1  0.08837159  0.74290465  0.72266350  1
  Te  Te81  1  0.41302618  0.09000987  0.08288535  1
  Te  Te82  1  0.44197473  0.06680214  0.41780355  1
  Te  Te83  1  0.41982007  0.05966761  0.76492990  1
  Te  Te84  1  0.40271349  0.41598250  0.08501465  1
  Te  Te85  1  0.39977357  0.39841528  0.44238132  1
  Te  Te86  1  0.42712878  0.40833417  0.74774231  1
  Te  Te87  1  0.41661719  0.76310291  0.09520396  1
  Te  Te88  1  0.41636379  0.74331089  0.40411524  1
  Te  Te89  1  0.40800476  0.80572063  0.75493656  1
  Te  Te90  1  0.76142125  0.05679668  0.08010263  1
  Te  Te91  1  0.73117598  0.06855507  0.40163643  1
  Te  Te92  1  0.76702343  0.08594421  0.74834379  1
  Te  Te93  1  0.74992143  0.43203170  0.09652428  1
  Te  Te94  1  0.74533617  0.43082760  0.40074116  1
  Te  Te95  1  0.74028365  0.42460917  0.74778427  1
  Te  Te96  1  0.73089030  0.80458254  0.06295896  1
  Te  Te97  1  0.70062529  0.75455080  0.41067278  1
  Te  Te98  1  0.75588240  0.74500631  0.76370541  1
  Te  Te99  1  0.13675932  0.26968455  0.22432516  1
  Te  Te100  1  0.10065679  0.23653973  0.57775420  1
  Te  Te101  1  0.08726403  0.23842410  0.89877794  1
  Te  Te102  1  0.12195048  0.54399326  0.27207393  1
  Te  Te103  1  0.09902650  0.55828202  0.60808614  1
  Te  Te104  1  0.10590508  0.59193463  0.89243803  1
  Te  Te105  1  0.10272142  0.91408093  0.24691280  1
  Te  Te106  1  0.09109706  0.91284898  0.58522843  1
  Te  Te107  1  0.12219289  0.90829401  0.90448370  1
  Te  Te108  1  0.39080938  0.25416888  0.24545003  1
  Te  Te109  1  0.42233102  0.25154355  0.58771821  1
  Te  Te110  1  0.41847814  0.25535567  0.92275711  1
  Te  Te111  1  0.41399159  0.57582469  0.23479326  1
  Te  Te112  1  0.40734067  0.58220351  0.57831024  1
  Te  Te113  1  0.40619954  0.60225547  0.90903649  1
  Te  Te114  1  0.38418703  0.93491040  0.26241322  1
  Te  Te115  1  0.47325009  0.90660303  0.59494547  1
  Te  Te116  1  0.41608071  0.89408801  0.91950807  1
  Te  Te117  1  0.73391223  0.25685833  0.26277177  1
  Te  Te118  1  0.74431044  0.23772100  0.59156799  1
  Te  Te119  1  0.76786892  0.26060431  0.90741710  1
  Te  Te120  1  0.73574976  0.61284416  0.24242568  1
  Te  Te121  1  0.74558589  0.59499972  0.59058666  1
  Te  Te122  1  0.73627118  0.59445720  0.93929398  1
  Te  Te123  1  0.67996932  0.90520043  0.23240966  1
  Te  Te124  1  0.73811605  0.90074543  0.56735043  1
  Te  Te125  1  0.74768466  0.88864544  0.93109349  1
  Te  Te126  1  0.21722491  0.22247596  0.09919110  1
  Te  Te127  1  0.24721298  0.22837441  0.41672330  1
  Te  Te128  1  0.27912911  0.25580158  0.72782321  1
  Te  Te129  1  0.26295547  0.59683135  0.07695619  1
  Te  Te130  1  0.25939221  0.56134953  0.43179612  1
  Te  Te131  1  0.25771720  0.61320186  0.74953097  1
  Te  Te132  1  0.24873817  0.89912969  0.06652126  1
  Te  Te133  1  0.27004901  0.91549182  0.41266939  1
  Te  Te134  1  0.30676358  0.91749582  0.74742248  1
  Te  Te135  1  0.59067963  0.25221282  0.06977285  1
  Te  Te136  1  0.58276129  0.27084851  0.40971423  1
  Te  Te137  1  0.58037116  0.24460950  0.78420576  1
  Te  Te138  1  0.57852619  0.62309282  0.06905066  1
  Te  Te139  1  0.57188218  0.58797425  0.40597178  1
  Te  Te140  1  0.55050443  0.60938313  0.76890391  1
  Te  Te141  1  0.53262128  0.86944192  0.06820305  1
  Te  Te142  1  0.52145787  0.91986544  0.44391434  1
  Te  Te143  1  0.62625721  0.89990103  0.76203391  1
  Te  Te144  1  0.92367332  0.24355997  0.09486891  1
  Te  Te145  1  0.90666824  0.26142897  0.42860954  1
  Te  Te146  1  0.93930838  0.23680711  0.72932936  1
  Te  Te147  1  0.90234326  0.59883864  0.09651483  1
  Te  Te148  1  0.90031743  0.58189687  0.41751557  1
  Te  Te149  1  0.93530149  0.58794047  0.76024204  1
  Te  Te150  1  0.92361324  0.91933821  0.07766856  1
  Te  Te151  1  0.88909708  0.91501031  0.42046115  1
  Te  Te152  1  0.92540913  0.91011608  0.75613278  1
  Te  Te153  1  0.28551245  0.05799593  0.25396641  1
  Te  Te154  1  0.27389506  0.05302738  0.58241036  1
  Te  Te155  1  0.23566721  0.09125823  0.92364970  1
  Te  Te156  1  0.23368811  0.43935393  0.23965452  1
  Te  Te157  1  0.29350535  0.44694163  0.55963553  1
  Te  Te158  1  0.25872970  0.40400082  0.91447682  1
  Te  Te159  1  0.25133704  0.75148849  0.23693700  1
  Te  Te160  1  0.24757426  0.76003472  0.56737069  1
  Te  Te161  1  0.23101009  0.79609798  0.91749535  1
  Te  Te162  1  0.57147257  0.09274140  0.23173268  1
  Te  Te163  1  0.57848693  0.08625063  0.59103518  1
  Te  Te164  1  0.62417705  0.08032859  0.91298597  1
  Te  Te165  1  0.57573447  0.42098539  0.25561711  1
  Te  Te166  1  0.57483149  0.40564851  0.57254400  1
  Te  Te167  1  0.57224017  0.43172109  0.91784109  1
  Te  Te168  1  0.59942634  0.77592954  0.26825855  1
  Te  Te169  1  0.56650536  0.78003215  0.60348389  1
  Te  Te170  1  0.53884092  0.81590305  0.85918662  1
  Te  Te171  1  0.91308824  0.07353008  0.25082147  1
  Te  Te172  1  0.91773471  0.05638463  0.57508232  1
  Te  Te173  1  0.92760447  0.09092197  0.89598507  1
  Te  Te174  1  0.94129906  0.40484421  0.25924521  1
  Te  Te175  1  0.92497326  0.41250920  0.58936150  1
  Te  Te176  1  0.90755614  0.43258525  0.92012591  1
  Te  Te177  1  0.90845266  0.76068941  0.26397655  1
  Te  Te178  1  0.92105912  0.72976830  0.59148189  1
  Te  Te179  1  0.92239315  0.76026152  0.93156761  1
