# generated using pymatgen
data_In2Te3
_symmetry_space_group_name_H-M   'P 1'
_cell_length_a   18.97366144
_cell_length_b   18.99070269
_cell_length_c   19.02366947
_cell_angle_alpha   89.47122071
_cell_angle_beta   90.00890931
_cell_angle_gamma   90.16752991
_symmetry_Int_Tables_number   1
_chemical_formula_structural   In2Te3
_chemical_formula_sum   'In72 Te108'
_cell_volume   6854.34749049
_cell_formula_units_Z   36
loop_
 _symmetry_equiv_pos_site_id
 _symmetry_equiv_pos_as_xyz
  1  'x, y, z'
loop_
 _atom_site_type_symbol
 _atom_site_label
 _atom_site_symmetry_multiplicity
 _atom_site_fract_x
 _atom_site_fract_y
 _atom_site_fract_z
 _atom_site_occupancy
  In  In0  1  0.15878862  0.49213802  0.65896783  1
  In  In1  1  0.83787106  0.02580578  0.84353093  1
  In  In2  1  0.65577992  0.17152355  0.82942690  1
  In  In3  1  0.32960848  0.48434578  0.17986808  1
  In  In4  1  0.18712654  0.49785896  0.00285359  1
  In  In5  1  0.83216487  0.84446065  0.34559292  1
  In  In6  1  -0.10358731  0.20010281  0.16461135  1
  In  In7  1  0.81648277  0.65088445  0.80312543  1
  In  In8  1  0.16809048  0.63826420  0.80945103  1
  In  In9  1  0.12760165  0.00626050  0.19330946  1
  In  In10  1  0.17959669  0.18131065  0.00231510  1
  In  In11  1  0.50845247  0.48426576  0.32146125  1
  In  In12  1  0.80599833  0.32411149  0.82110560  1
  In  In13  1  -0.01081602  0.68887536  0.37147496  1
  In  In14  1  0.30987448  0.31936331  0.35608366  1
  In  In15  1  0.50744788  0.15724614  0.65388688  1
  In  In16  1  0.68228276  -0.02992776  0.66126938  1
  In  In17  1  0.16865124  0.32429333  0.18477248  1
  In  In18  1  0.35008309  0.80239950  0.84369224  1
  In  In19  1  0.50031212  0.67612817  0.50940559  1
  In  In20  1  -0.01930476  0.66548527  0.64208785  1
  In  In21  1  0.33867369  0.13546964  0.52478938  1
  In  In22  1  0.34126372  0.15471856  0.18160788  1
  In  In23  1  0.52138610  0.17538656  0.31834006  1
  In  In24  1  0.35025663  0.00888685  0.01777534  1
  In  In25  1  0.84267620  0.33713686  0.49752962  1
  In  In26  1  0.69856948  0.02521263  0.01718982  1
  In  In27  1  -0.03074852  0.80633822  0.80470298  1
  In  In28  1  0.01631436  0.67107039  -0.01654667  1
  In  In29  1  0.68525188  0.53157341  0.52046387  1
  In  In30  1  -0.04060777  0.15379154  0.48611756  1
  In  In31  1  0.50595575  0.32591664  0.46905080  1
  In  In32  1  0.52742420  0.00643749  0.81043069  1
  In  In33  1  0.16586351  0.35473666  0.82652974  1
  In  In34  1  0.17546533  -0.01396910  0.86707861  1
  In  In35  1  0.14836810  0.00984912  0.50455133  1
  In  In36  1  0.81071163  0.84464292  0.00652425  1
  In  In37  1  0.65688960  0.68077307  0.30867724  1
  In  In38  1  0.35689433  -0.01184462  0.67824878  1
  In  In39  1  0.51056354  0.51069705  0.67173776  1
  In  In40  1  0.51238854  -0.00989865  0.49504636  1
  In  In41  1  0.65353821  0.65957799  -0.01318233  1
  In  In42  1  0.69537368  0.30862067  0.31577626  1
  In  In43  1  0.00624865  0.49726608  0.18267225  1
  In  In44  1  -0.01677132  -0.00991545  -0.00490964  1
  In  In45  1  0.50826995  0.66702864  0.14368264  1
  In  In46  1  0.34050605  0.83356946  0.18508420  1
  In  In47  1  0.52184523  0.30975912  0.13158889  1
  In  In48  1  -0.01983088  0.20828735  0.83240823  1
  In  In49  1  -0.02447897  0.03519640  0.67899356  1
  In  In50  1  0.30676027  0.64804624  0.64825808  1
  In  In51  1  0.15132331  0.18187333  0.70124836  1
  In  In52  1  0.32945891  0.64803642  0.37951756  1
  In  In53  1  0.82144309  0.64321776  0.13556867  1
  In  In54  1  0.12983635  0.33378248  0.52949427  1
  In  In55  1  0.18534818  0.83511140  0.00600776  1
  In  In56  1  0.78177297  0.43342177  -0.01338498  1
  In  In57  1  0.18013830  0.83825547  0.63967260  1
  In  In58  1  0.69591096  0.02266932  0.33358413  1
  In  In59  1  0.83017685  0.51387872  0.33089738  1
  In  In60  1  0.11657275  0.20342854  0.34225713  1
  In  In61  1  -0.00168532  0.48765597  0.50191649  1
  In  In62  1  -0.00702158  0.83451388  0.21648056  1
  In  In63  1  0.53249127  0.85939266  -0.00421785  1
  In  In64  1  0.52323641  0.66544451  0.79612646  1
  In  In65  1  0.15185066  0.68057248  0.20681617  1
  In  In66  1  0.31597953  -0.00578436  0.33340630  1
  In  In67  1  0.66631307  0.82873780  0.49910353  1
  In  In68  1  0.68144606  0.33550958  0.65150855  1
  In  In69  1  0.51734211  0.48196162  -0.02562985  1
  In  In70  1  0.37052830  0.63136643  0.02332841  1
  In  In71  1  0.37787158  0.31756877  0.85241175  1
  Te  Te72  1  0.08474879  0.07869020  0.06683532  1
  Te  Te73  1  0.05799332  0.07595550  0.40176148  1
  Te  Te74  1  0.07814433  0.08043230  0.79071146  1
  Te  Te75  1  0.09299074  0.41453649  0.08772608  1
  Te  Te76  1  0.06811421  0.39497363  0.41244575  1
  Te  Te77  1  0.06632771  0.40177875  0.72989297  1
  Te  Te78  1  0.07713428  0.75516639  0.09622527  1
  Te  Te79  1  0.05858155  0.79654985  0.44090613  1
  Te  Te80  1  0.09353221  0.74780741  0.73556629  1
  Te  Te81  1  0.43888645  0.10063067  0.08826043  1
  Te  Te82  1  0.42587643  0.09288169  0.40729438  1
  Te  Te83  1  0.41741613  0.09840339  0.76162918  1
  Te  Te84  1  0.42547420  0.42106852  0.08540929  1
  Te  Te85  1  0.40335859  0.42556705  0.41474528  1
  Te  Te86  1  0.44315515  0.40656330  0.75399505  1
  Te  Te87  1  0.41431996  0.77107981  0.06294091  1
  Te  Te88  1  0.42718899  0.75193679  0.40730726  1
  Te  Te89  1  0.40897371  0.73657664  0.72457381  1
  Te  Te90  1  0.79820928  0.09529399  0.10567181  1
  Te  Te91  1  0.82131345  0.10813977  0.35190634  1
  Te  Te92  1  0.74305249  0.08542671  0.74235872  1
  Te  Te93  1  0.79150822  0.40047403  0.13005502  1
  Te  Te94  1  0.73483344  0.42526052  0.41500809  1
  Te  Te95  1  0.73284224  0.43339169  0.74854198  1
  Te  Te96  1  0.72405122  0.74975611  0.08681952  1
  Te  Te97  1  0.75015353  0.73570296  0.41265902  1
  Te  Te98  1  0.75565580  0.74673093  0.70747717  1
  Te  Te99  1  0.04595070  0.24090979  0.21635898  1
  Te  Te100  1  0.05585238  0.21755055  0.58976653  1
  Te  Te101  1  0.08521512  0.27077287  0.92536262  1
  Te  Te102  1  0.06979567  0.58529300  0.28842333  1
  Te  Te103  1  0.09496502  0.60021115  0.56293056  1
  Te  Te104  1  0.08419002  0.55853411  0.90782695  1
  Te  Te105  1  0.10421929  0.89641237  0.29004430  1
  Te  Te106  1  0.06648617  0.93288894  0.60760733  1
  Te  Te107  1  0.06262159  0.89000645  0.90975894  1
  Te  Te108  1  0.41655992  0.27046729  0.25826840  1
  Te  Te109  1  0.41945003  0.25310238  0.57387889  1
  Te  Te110  1  0.47967569  0.27026994  0.95095294  1
  Te  Te111  1  0.42010342  0.58669659  0.24657060  1
  Te  Te112  1  0.41182210  0.57016615  0.57267590  1
  Te  Te113  1  0.43623570  0.58573015  0.89851745  1
  Te  Te114  1  0.41826981  0.94184645  0.24454067  1
  Te  Te115  1  0.42201502  0.90797201  0.57712624  1
  Te  Te116  1  0.41633553  0.92211167  0.90793608  1
  Te  Te117  1  0.73340563  0.21146870  0.20800540  1
  Te  Te118  1  0.76040664  0.24067695  0.57437757  1
  Te  Te119  1  0.74794827  0.23382280  0.92902143  1
  Te  Te120  1  0.72905568  0.57180666  0.23322054  1
  Te  Te121  1  0.76670072  0.61868324  0.60916752  1
  Te  Te122  1  0.75826507  0.57222038  0.92475146  1
  Te  Te123  1  0.77110647  0.93131140  0.24458977  1
  Te  Te124  1  0.76388115  0.93216456  0.54376836  1
  Te  Te125  1  0.73909238  0.92709924  0.90348291  1
  Te  Te126  1  0.27042283  0.25879212  0.09437583  1
  Te  Te127  1  0.23691491  0.21607090  0.44051951  1
  Te  Te128  1  0.26349757  0.26350033  0.75636126  1
  Te  Te129  1  0.24206661  0.59869612  0.10724301  1
  Te  Te130  1  0.21239004  0.61110361  0.45870355  1
  Te  Te131  1  0.27085597  0.54616912  0.75496322  1
  Te  Te132  1  0.24342375  0.93425854  0.10474849  1
  Te  Te133  1  0.25761489  0.92863996  0.45024462  1
  Te  Te134  1  0.25016479  0.90127643  0.76589186  1
  Te  Te135  1  0.63295465  0.27385955  0.03723168  1
  Te  Te136  1  0.61559730  0.23240572  0.42209309  1
  Te  Te137  1  0.57688681  0.26190285  0.73705208  1
  Te  Te138  1  0.59239917  0.55784580  0.08168838  1
  Te  Te139  1  0.58301056  0.58302401  0.40943775  1
  Te  Te140  1  0.61891972  0.55851191  0.76072783  1
  Te  Te141  1  0.60600061  0.93723154  0.09277391  1
  Te  Te142  1  0.59731904  0.91992682  0.39412034  1
  Te  Te143  1  0.57181845  0.89830235  0.72622103  1
  Te  Te144  1  0.88175428  0.31087667  0.05385574  1
  Te  Te145  1  0.89820375  0.25038882  0.38999032  1
  Te  Te146  1  0.88148305  0.23599303  0.72953795  1
  Te  Te147  1  0.93641989  0.57193758  0.06890646  1
  Te  Te148  1  0.90052528  0.58762576  0.44121075  1
  Te  Te149  1  0.93748924  0.58566537  0.75726213  1
  Te  Te150  1  0.91801685  0.89954705  0.09671030  1
  Te  Te151  1  0.94561691  0.89011312  0.42459223  1
  Te  Te152  1  0.89440569  0.92042332  0.74604985  1
  Te  Te153  1  0.22275968  0.10509747  0.26308924  1
  Te  Te154  1  0.23703655  0.07661920  0.62391341  1
  Te  Te155  1  0.26890867  0.09388020  0.91837148  1
  Te  Te156  1  0.23113328  0.42659136  0.27922929  1
  Te  Te157  1  0.24493345  0.40767779  0.57701642  1
  Te  Te158  1  0.27437999  0.40575483  0.92761030  1
  Te  Te159  1  0.25942503  0.75173411  0.28320158  1
  Te  Te160  1  0.25195791  0.74654223  0.54906496  1
  Te  Te161  1  0.23952409  0.72627381  0.91492138  1
  Te  Te162  1  0.61609883  0.10382427  0.23101911  1
  Te  Te163  1  0.60455640  0.07707098  0.57503212  1
  Te  Te164  1  0.58334953  0.07944567  0.92724130  1
  Te  Te165  1  0.59448173  0.39354070  0.23724241  1
  Te  Te166  1  0.58138431  0.42131419  0.56057006  1
  Te  Te167  1  0.59722505  0.36869615  0.92049945  1
  Te  Te168  1  0.56910300  0.76701648  0.23004298  1
  Te  Te169  1  0.59914910  0.73962886  0.59739063  1
  Te  Te170  1  0.58934926  0.76154866  0.89511010  1
  Te  Te171  1  0.90805972  0.06911939  0.23815212  1
  Te  Te172  1  0.88134716  0.05532044  0.56672669  1
  Te  Te173  1  0.91702243  0.11408837  0.93533070  1
  Te  Te174  1  0.90381285  0.41249535  0.25188760  1
  Te  Te175  1  0.91211777  0.41802877  0.59714743  1
  Te  Te176  1  0.90223976  0.39978723  0.90786556  1
  Te  Te177  1  0.89774913  0.72048204  0.24505908  1
  Te  Te178  1  0.86345617  0.74435812  0.59694329  1
  Te  Te179  1  0.89194467  0.74549857  0.92219570  1
