# generated using pymatgen
data_In2Te3
_symmetry_space_group_name_H-M   'P 1'
_cell_length_a   18.94148481
_cell_length_b   18.96257322
_cell_length_c   18.90173963
_cell_angle_alpha   90.20630430
_cell_angle_beta   90.21779681
_cell_angle_gamma   89.88872300
_symmetry_Int_Tables_number   1
_chemical_formula_structural   In2Te3
_chemical_formula_sum   'In72 Te108'
_cell_volume   6789.00778690
_cell_formula_units_Z   36
loop_
 _symmetry_equiv_pos_site_id
 _symmetry_equiv_pos_as_xyz
  1  'x, y, z'
loop_
 _atom_site_type_symbol
 _atom_site_label
 _atom_site_symmetry_multiplicity
 _atom_site_fract_x
 _atom_site_fract_y
 _atom_site_fract_z
 _atom_site_occupancy
  In  In0  1  0.48976294  0.34675941  0.15299577  1
  In  In1  1  0.31363486  0.48322706  0.14769999  1
  In  In2  1  0.48593352  -0.00643332  0.83707333  1
  In  In3  1  0.66617274  0.31955389  -0.01014480  1
  In  In4  1  0.68910949  0.65393338  0.65626267  1
  In  In5  1  0.67107633  0.70378640  0.34778134  1
  In  In6  1  0.87559302  0.35371129  0.53789022  1
  In  In7  1  0.51270705  0.85515640  0.30691749  1
  In  In8  1  0.16212345  0.13777306  0.00211183  1
  In  In9  1  0.69227428  0.83913144  0.51167872  1
  In  In10  1  0.25845507  0.15234904  0.60771603  1
  In  In11  1  0.85714541  0.63652948  0.82928860  1
  In  In12  1  0.32425019  0.35404731  0.31127663  1
  In  In13  1  0.66908480  0.51356850  0.83827212  1
  In  In14  1  0.63338374  0.19995479  0.54428567  1
  In  In15  1  0.16132610  0.62714372  0.15390370  1
  In  In16  1  0.17345684  0.81061759  0.69857110  1
  In  In17  1  0.67726515  0.18048105  0.81915890  1
  In  In18  1  0.03007048  0.19929299  0.49748814  1
  In  In19  1  0.00049239  0.66906465  0.64983292  1
  In  In20  1  0.85715884  0.17405595  0.68335014  1
  In  In21  1  0.66593454  -0.00332768  0.33876999  1
  In  In22  1  -0.01293692  0.83712407  0.17425715  1
  In  In23  1  0.79940394  0.83483236  0.36420866  1
  In  In24  1  0.15730373  0.31215991  0.84103799  1
  In  In25  1  0.85802362  0.65663689  0.16150144  1
  In  In26  1  0.30508333  0.83399444  0.51608782  1
  In  In27  1  0.82001041  0.01685441  0.52337532  1
  In  In28  1  0.85798699  0.47778639  -0.02991369  1
  In  In29  1  0.19003165  -0.00933070  0.15805766  1
  In  In30  1  0.50880339  0.51557640  0.33249317  1
  In  In31  1  0.17541566  0.49219760  -0.02478725  1
  In  In32  1  0.44526900  -0.01538062  0.08343419  1
  In  In33  1  0.68767840  0.52002379  0.15326219  1
  In  In34  1  0.31132823  0.30788788  -0.02287518  1
  In  In35  1  0.47516295  0.80576227  0.69989581  1
  In  In36  1  0.17930980  0.82706864  0.34152454  1
  In  In37  1  0.00748122  0.16964062  0.85807528  1
  In  In38  1  0.18578335  0.84485646  -0.08427838  1
  In  In39  1  0.45024767  0.54289356  0.73143550  1
  In  In40  1  0.86758933  0.51283686  0.35416145  1
  In  In41  1  0.33419025  0.66903508  0.32858571  1
  In  In42  1  0.87808138  0.31840158  0.13864641  1
  In  In43  1  0.18007561  0.35055133  0.52540850  1
  In  In44  1  0.15629344  0.66661036  0.50520238  1
  In  In45  1  0.65134728  0.83840520  0.18241771  1
  In  In46  1  0.15856889  0.00515215  0.81958929  1
  In  In47  1  0.02143411  0.64333822  -0.00909405  1
  In  In48  1  0.66981229  -0.00543250  -0.03483555  1
  In  In49  1  0.33676949  0.49330636  0.52277383  1
  In  In50  1  0.36069002  -0.00781872  0.33119939  1
  In  In51  1  0.47956304  0.34690408  0.82578644  1
  In  In52  1  -0.00465049  0.67781000  0.38425729  1
  In  In53  1  0.67299966  0.39706893  0.65900581  1
  In  In54  1  0.48473478  0.16265863  0.68951111  1
  In  In55  1  0.49342428  0.32704688  0.53426605  1
  In  In56  1  0.80458356  0.82638638  -0.00773638  1
  In  In57  1  0.17044474  0.18064380  0.31650542  1
  In  In58  1  0.59962197  0.65337293  -0.01310315  1
  In  In59  1  0.47095239  0.00489856  0.52319256  1
  In  In60  1  0.71493798  0.35528772  0.32111127  1
  In  In61  1  0.50168219  0.67459987  0.48922187  1
  In  In62  1  0.82887928  0.16326867  0.32209290  1
  In  In63  1  0.68121254  0.81996277  0.81670889  1
  In  In64  1  0.51170589  0.19659027  0.34124979  1
  In  In65  1  0.01935390  0.32994186  0.32553915  1
  In  In66  1  0.34811126  0.79024936  0.00557710  1
  In  In67  1  -0.00605522  0.85903990  0.78614334  1
  In  In68  1  0.15990084  0.48675111  0.32100530  1
  In  In69  1  0.63863964  0.14450640  0.14544918  1
  In  In70  1  0.83011549  0.02854611  0.13197617  1
  In  In71  1  -0.01721047  0.02076176  0.34078307  1
  Te  Te72  1  0.07859811  0.05130089  0.08648838  1
  Te  Te73  1  0.09610227  0.09011371  0.41532681  1
  Te  Te74  1  0.06113714  0.08739387  0.74462556  1
  Te  Te75  1  0.11282526  0.45349618  0.10166801  1
  Te  Te76  1  0.08092782  0.42056847  0.43149620  1
  Te  Te77  1  0.05821940  0.39523577  0.76464091  1
  Te  Te78  1  0.07566398  0.74312477  0.09490372  1
  Te  Te79  1  0.08058398  0.78629457  0.44890128  1
  Te  Te80  1  0.06978625  0.73085203  0.77510667  1
  Te  Te81  1  0.35848818  0.09721694  0.03923592  1
  Te  Te82  1  0.41875179  0.10307601  0.42096309  1
  Te  Te83  1  0.39184490  0.06712726  0.74895186  1
  Te  Te84  1  0.40197547  0.41183298  0.04893903  1
  Te  Te85  1  0.42121689  0.41819795  0.41177923  1
  Te  Te86  1  0.39573537  0.40616214  0.71847684  1
  Te  Te87  1  0.47828001  0.73104871  0.04622827  1
  Te  Te88  1  0.40972087  0.77106517  0.41313729  1
  Te  Te89  1  0.40774061  0.73796865  0.81228335  1
  Te  Te90  1  0.74328376  0.10969572  0.03957461  1
  Te  Te91  1  0.73353963  0.10222960  0.42426514  1
  Te  Te92  1  0.75880630  0.08380582  0.74395324  1
  Te  Te93  1  0.76049395  0.40744694  0.08187156  1
  Te  Te94  1  0.77571433  0.42558170  0.43870822  1
  Te  Te95  1  0.77125420  0.43468789  0.76425126  1
  Te  Te96  1  0.74620576  0.74457992  0.10657039  1
  Te  Te97  1  0.77525762  0.71368513  0.46312694  1
  Te  Te98  1  0.78377453  0.73868334  0.73919960  1
  Te  Te99  1  0.07396525  0.24076223  0.22268585  1
  Te  Te100  1  0.11044351  0.24949133  0.61353617  1
  Te  Te101  1  0.08468963  0.26442258  0.96504505  1
  Te  Te102  1  0.07088704  0.59820196  0.27290351  1
  Te  Te103  1  0.11169163  0.57629858  0.61127629  1
  Te  Te104  1  0.07339618  0.55455135  0.88128907  1
  Te  Te105  1  0.07802966  0.91970855  0.26568679  1
  Te  Te106  1  0.08666912  0.90374003  0.61708589  1
  Te  Te107  1  0.05510947  0.92245110  0.90638052  1
  Te  Te108  1  0.41100655  0.25052829  0.23965394  1
  Te  Te109  1  0.39261424  0.23181778  0.58701358  1
  Te  Te110  1  0.40659004  0.23797744  0.88990943  1
  Te  Te111  1  0.40510719  0.57144144  0.23662852  1
  Te  Te112  1  0.41499855  0.60401698  0.59071295  1
  Te  Te113  1  0.42519139  0.58899771  0.87263354  1
  Te  Te114  1  0.40569807  0.90514590  0.21356813  1
  Te  Te115  1  0.39700929  0.90824577  0.61199947  1
  Te  Te116  1  0.41952701  0.91715172  0.94951976  1
  Te  Te117  1  0.73510197  0.23705047  0.22660252  1
  Te  Te118  1  0.75993607  0.26430694  0.59427675  1
  Te  Te119  1  0.76787034  0.27764449  0.88987100  1
  Te  Te120  1  0.76021246  0.58946559  0.26725562  1
  Te  Te121  1  0.75189317  0.52488761  0.62074834  1
  Te  Te122  1  0.75289150  0.59166885  0.93990862  1
  Te  Te123  1  0.76793489  0.93576659  0.24427998  1
  Te  Te124  1  0.76618658  0.91413434  0.61556387  1
  Te  Te125  1  0.77593959  0.92520298  0.88017505  1
  Te  Te126  1  0.26560996  0.21501768  0.08547201  1
  Te  Te127  1  0.24861415  0.27079095  0.41200514  1
  Te  Te128  1  0.22908052  0.23188747  0.72941098  1
  Te  Te129  1  0.27268327  0.59459832  0.05427216  1
  Te  Te130  1  0.25368033  0.57334062  0.41395832  1
  Te  Te131  1  0.29432879  0.63047063  0.80078441  1
  Te  Te132  1  0.23650537  0.88907083  0.05709271  1
  Te  Te133  1  0.24967375  0.93811650  0.42082805  1
  Te  Te134  1  0.26034313  0.89084201  0.79085900  1
  Te  Te135  1  0.55622210  0.24227957  0.06350853  1
  Te  Te136  1  0.60668580  0.28593212  0.42039365  1
  Te  Te137  1  0.58611098  0.27180965  0.73709426  1
  Te  Te138  1  0.56310686  0.54854755  0.08156475  1
  Te  Te139  1  0.60603763  0.58445279  0.42567554  1
  Te  Te140  1  0.58730077  0.61401470  0.76033502  1
  Te  Te141  1  0.59539677  0.94350323  0.09049081  1
  Te  Te142  1  0.57438733  0.91768739  0.43475964  1
  Te  Te143  1  0.57767655  0.90791467  0.74695153  1
  Te  Te144  1  0.92742854  0.23341747  0.02826053  1
  Te  Te145  1  0.91022002  0.25528253  0.41219315  1
  Te  Te146  1  0.90540252  0.26081229  0.79451305  1
  Te  Te147  1  0.93435967  0.55624483  0.08143491  1
  Te  Te148  1  0.93993431  0.57126188  0.47113599  1
  Te  Te149  1  0.91846446  0.56058411  0.71638069  1
  Te  Te150  1  0.90576088  0.91232885  0.07032459  1
  Te  Te151  1  0.90330160  0.92837712  0.42990030  1
  Te  Te152  1  0.93740342  0.90853556  0.66120279  1
  Te  Te153  1  0.26868446  0.08223012  0.24999616  1
  Te  Te154  1  0.17592776  0.03241910  0.63055284  1
  Te  Te155  1  0.25988457  0.07175896  0.91042733  1
  Te  Te156  1  0.21057848  0.38841952  0.20707032  1
  Te  Te157  1  0.24097178  0.44502465  0.62420642  1
  Te  Te158  1  0.26147978  0.41727859  0.87759391  1
  Te  Te159  1  0.24093587  0.74066675  0.23419470  1
  Te  Te160  1  0.25914150  0.72392533  0.60570588  1
  Te  Te161  1  0.24253954  0.70514148  0.92877434  1
  Te  Te162  1  0.56432935  0.07754855  0.25951218  1
  Te  Te163  1  0.58204204  0.07289791  0.60312598  1
  Te  Te164  1  0.57705874  0.09642605  0.90286503  1
  Te  Te165  1  0.59289949  0.41436607  0.24668506  1
  Te  Te166  1  0.55685465  0.44874129  0.58513855  1
  Te  Te167  1  0.57938898  0.42038169  0.91657869  1
  Te  Te168  1  0.56311975  0.72716064  0.24367943  1
  Te  Te169  1  0.58280667  0.75743692  0.58988100  1
  Te  Te170  1  0.59085382  0.78901737  0.93184491  1
  Te  Te171  1  0.92786458  0.10273213  0.22392520  1
  Te  Te172  1  0.93418796  0.10425683  0.57120805  1
  Te  Te173  1  0.91403587  0.10392618  0.95137243  1
  Te  Te174  1  0.92273296  0.41833407  0.24720985  1
  Te  Te175  1  0.96327351  0.41204268  0.63973570  1
  Te  Te176  1  0.97569603  0.43019919  0.89426466  1
  Te  Te177  1  0.90661323  0.75406970  0.27605831  1
  Te  Te178  1  0.90926941  0.72243075  0.54532306  1
  Te  Te179  1  0.91232727  0.73485267  0.93314635  1
