# generated using pymatgen
data_In2Te3
_symmetry_space_group_name_H-M   'P 1'
_cell_length_a   18.78143888
_cell_length_b   18.79231548
_cell_length_c   18.78875844
_cell_angle_alpha   89.98592827
_cell_angle_beta   89.97920991
_cell_angle_gamma   90.01236843
_symmetry_Int_Tables_number   1
_chemical_formula_structural   In2Te3
_chemical_formula_sum   'In72 Te108'
_cell_volume   6631.42996096
_cell_formula_units_Z   36
loop_
 _symmetry_equiv_pos_site_id
 _symmetry_equiv_pos_as_xyz
  1  'x, y, z'
loop_
 _atom_site_type_symbol
 _atom_site_label
 _atom_site_symmetry_multiplicity
 _atom_site_fract_x
 _atom_site_fract_y
 _atom_site_fract_z
 _atom_site_occupancy
  In  In0  1  0.82300304  0.19149116  -0.00785373  1
  In  In1  1  0.33787747  0.31936426  0.65465832  1
  In  In2  1  0.67731141  0.18980605  0.16388384  1
  In  In3  1  0.84798511  0.52276179  0.00202867  1
  In  In4  1  0.32541429  0.50740323  0.17821370  1
  In  In5  1  0.67871313  0.65527683  0.66079627  1
  In  In6  1  0.84438545  -0.01531532  0.81832714  1
  In  In7  1  0.49211639  0.66853257  0.82938080  1
  In  In8  1  0.65593432  0.14258209  0.49468815  1
  In  In9  1  0.18604853  0.33464586  0.84770364  1
  In  In10  1  0.83186601  -0.00288657  0.50403892  1
  In  In11  1  0.84716782  0.68177305  0.15977414  1
  In  In12  1  0.65917355  0.83049335  0.83148637  1
  In  In13  1  0.66164255  0.31901244  0.00231953  1
  In  In14  1  0.17710807  -0.00822456  0.83562019  1
  In  In15  1  0.33065203  0.82941389  0.17072982  1
  In  In16  1  0.84300955  0.67115927  0.84100483  1
  In  In17  1  0.02199389  -0.03434812  0.66894424  1
  In  In18  1  0.01019811  0.33818953  0.64987589  1
  In  In19  1  0.67672755  -0.00697304  0.34087783  1
  In  In20  1  0.82399050  0.15555001  0.66974345  1
  In  In21  1  0.01061654  0.00282122  0.33873757  1
  In  In22  1  0.50520104  0.51008278  0.01155000  1
  In  In23  1  0.84949461  0.00200272  0.18507588  1
  In  In24  1  0.84763413  0.33415492  0.17236198  1
  In  In25  1  0.02626201  0.70468713  0.69275197  1
  In  In26  1  0.32125602  0.16977416  0.16899881  1
  In  In27  1  0.84354420  0.49344673  0.32117499  1
  In  In28  1  0.02126960  0.02208610  0.04350152  1
  In  In29  1  0.67824846  0.84333312  0.50084288  1
  In  In30  1  0.00093357  0.16995789  0.47870031  1
  In  In31  1  0.15819751  0.68880375  0.49562729  1
  In  In32  1  0.49176889  0.63997098  0.49776351  1
  In  In33  1  0.47839444  0.83976322  0.01319964  1
  In  In34  1  0.15903906  0.49511858  0.32310040  1
  In  In35  1  0.32216516  -0.00939969  0.33848518  1
  In  In36  1  0.00425132  0.16161707  0.83644596  1
  In  In37  1  0.48822042  0.32859304  0.47837943  1
  In  In38  1  0.18094300  0.31633112  0.47579240  1
  In  In39  1  0.32915593  -0.00363428  -0.00368633  1
  In  In40  1  0.37110898  0.50630978  0.50056210  1
  In  In41  1  0.32433510  0.83323462  0.49743669  1
  In  In42  1  0.49777558  -0.00559469  0.84468833  1
  In  In43  1  0.84315503  0.53674243  0.66868953  1
  In  In44  1  0.30374786  0.49931651  0.84470131  1
  In  In45  1  0.00677251  0.34029552  0.03367203  1
  In  In46  1  0.48687686  0.17055118  0.32872230  1
  In  In47  1  0.17577779  0.84460383  -0.01124450  1
  In  In48  1  0.65131061  0.79673030  0.18812647  1
  In  In49  1  0.01655080  0.49138093  0.48428555  1
  In  In50  1  -0.00359861  0.83621021  0.18069579  1
  In  In51  1  0.83255102  0.33039509  0.86756198  1
  In  In52  1  0.32221596  0.35170878  0.01175345  1
  In  In53  1  0.33645011  0.66228501  0.33064826  1
  In  In54  1  0.32355159  0.15845461  0.49061199  1
  In  In55  1  0.01999587  0.65917130  -0.02495102  1
  In  In56  1  0.48669840  0.83712655  0.67475859  1
  In  In57  1  0.50383845  0.48968790  0.32966695  1
  In  In58  1  0.65525410  0.50379366  0.17139385  1
  In  In59  1  0.51181534  0.30952276  0.81151812  1
  In  In60  1  0.65147428  0.33071715  0.65993822  1
  In  In61  1  0.32142712  0.15732136  0.84495034  1
  In  In62  1  0.00083400  0.83306232  0.49529612  1
  In  In63  1  0.48825995  0.49950402  0.64664898  1
  In  In64  1  0.31397149  -0.01129413  0.65996347  1
  In  In65  1  0.17531934  0.66111903  0.18352517  1
  In  In66  1  0.47277449  0.00806122  0.17057020  1
  In  In67  1  0.82682851  0.68208686  0.49012232  1
  In  In68  1  0.66064310  -0.00195881  -0.01681948  1
  In  In69  1  0.84410247  0.32404258  0.45817263  1
  In  In70  1  0.70122091  0.50072401  0.84472672  1
  In  In71  1  0.17830640  0.50948058  0.67588794  1
  Te  Te72  1  0.10088570  0.10240671  0.14062375  1
  Te  Te73  1  0.10661728  0.08914863  0.41465275  1
  Te  Te74  1  0.09274170  0.08238572  0.74350656  1
  Te  Te75  1  0.09031186  0.40290058  0.14490449  1
  Te  Te76  1  0.07277728  0.38472040  0.39262137  1
  Te  Te77  1  0.08902668  0.41361567  0.75495146  1
  Te  Te78  1  0.09286637  0.75546050  0.08509817  1
  Te  Te79  1  0.06592572  0.74270448  0.39444594  1
  Te  Te80  1  0.11651196  0.77748908  0.78697646  1
  Te  Te81  1  0.41837872  0.09898665  0.06302108  1
  Te  Te82  1  0.42658810  0.06722875  0.42129092  1
  Te  Te83  1  0.40581590  0.07464534  0.75063564  1
  Te  Te84  1  0.42572138  0.41736986  0.10197649  1
  Te  Te85  1  0.39017763  0.40402076  0.38978578  1
  Te  Te86  1  0.40639928  0.41681336  0.75472617  1
  Te  Te87  1  0.38164964  0.73867706  0.06537378  1
  Te  Te88  1  0.42612626  0.75130271  0.41687119  1
  Te  Te89  1  0.39711190  0.75755212  0.76081930  1
  Te  Te90  1  0.75281912  0.08063996  0.08365018  1
  Te  Te91  1  0.77043326  0.09550104  0.40514967  1
  Te  Te92  1  0.74174376  0.07269471  0.75910495  1
  Te  Te93  1  0.75818636  0.41534942  0.07056252  1
  Te  Te94  1  0.74500509  0.41535954  0.40032582  1
  Te  Te95  1  0.76307092  0.41312068  0.73673482  1
  Te  Te96  1  0.74842929  0.76226423  0.08325537  1
  Te  Te97  1  0.73046273  0.74860435  0.40128061  1
  Te  Te98  1  0.75837549  0.75428708  0.74274659  1
  Te  Te99  1  0.10084617  0.25598541  0.17853219  1
  Te  Te100  1  0.09832481  0.23936797  0.57952361  1
  Te  Te101  1  0.08168039  0.25413633  0.92894486  1
  Te  Te102  1  0.07009466  0.59765314  0.26591755  1
  Te  Te103  1  0.07176235  0.58744549  0.59078964  1
  Te  Te104  1  0.11250184  0.56500198  0.90827240  1
  Te  Te105  1  0.09505263  0.93018603  0.23866030  1
  Te  Te106  1  0.11091031  0.90636436  0.56540612  1
  Te  Te107  1  0.06735082  0.93339434  0.92723098  1
  Te  Te108  1  0.41270794  0.26168346  0.24057339  1
  Te  Te109  1  0.43459335  0.22961808  0.58105050  1
  Te  Te110  1  0.40705167  0.26451007  0.91302716  1
  Te  Te111  1  0.44164472  0.60479422  0.23381089  1
  Te  Te112  1  0.38643820  0.60648087  0.61443939  1
  Te  Te113  1  0.40438316  0.58459293  0.92326950  1
  Te  Te114  1  0.42667361  0.90061033  0.26632964  1
  Te  Te115  1  0.42273874  0.92713646  0.57055608  1
  Te  Te116  1  0.39212368  0.89811750  0.89901873  1
  Te  Te117  1  0.75308126  0.26612000  0.26457491  1
  Te  Te118  1  0.75674973  0.25104358  0.57104581  1
  Te  Te119  1  0.71825544  0.23291157  0.88776022  1
  Te  Te120  1  0.75345489  0.59194054  0.24638252  1
  Te  Te121  1  0.74446308  0.56741828  0.55660823  1
  Te  Te122  1  0.73984398  0.61122298  0.93971625  1
  Te  Te123  1  0.75199064  0.90191784  0.24606532  1
  Te  Te124  1  0.74881622  0.92477073  0.60120649  1
  Te  Te125  1  0.76048569  0.90200209  0.92026544  1
  Te  Te126  1  0.23248522  0.24787739  0.07381647  1
  Te  Te127  1  0.25578559  0.23231815  0.38094343  1
  Te  Te128  1  0.24162116  0.23914583  0.74153245  1
  Te  Te129  1  0.26149534  0.59852424  0.08083714  1
  Te  Te130  1  0.24944411  0.57569590  0.42658470  1
  Te  Te131  1  0.22514559  0.61009655  0.77759169  1
  Te  Te132  1  0.24000981  0.92992706  0.09960545  1
  Te  Te133  1  0.22474643  0.92164554  0.42949993  1
  Te  Te134  1  0.23174996  0.88998533  0.74028974  1
  Te  Te135  1  0.56513403  0.25343977  0.09114618  1
  Te  Te136  1  0.59488786  0.24966111  0.40362401  1
  Te  Te137  1  0.58620728  0.21000071  0.72551868  1
  Te  Te138  1  0.59374814  0.60446935  0.08155693  1
  Te  Te139  1  0.59119752  0.58105161  0.40672270  1
  Te  Te140  1  0.58901471  0.56801109  0.75025941  1
  Te  Te141  1  0.58077007  0.92203257  0.09241796  1
  Te  Te142  1  0.57985843  0.92955776  0.43100371  1
  Te  Te143  1  0.58941488  0.92999140  0.74015643  1
  Te  Te144  1  0.92588913  0.22506616  0.09813646  1
  Te  Te145  1  0.93504220  0.24698316  0.36834129  1
  Te  Te146  1  0.91793477  0.25835169  0.75130555  1
  Te  Te147  1  0.94921161  0.58641799  0.09218212  1
  Te  Te148  1  0.92264354  0.58753624  0.41388117  1
  Te  Te149  1  0.94730724  0.58895060  0.76372354  1
  Te  Te150  1  0.91540406  0.91693954  0.07731376  1
  Te  Te151  1  0.90476199  0.90927837  0.40471885  1
  Te  Te152  1  0.93439974  0.88522775  0.75582986  1
  Te  Te153  1  0.23671081  0.06920595  0.24184798  1
  Te  Te154  1  0.23287662  0.08286290  0.57948018  1
  Te  Te155  1  0.22322154  0.09291029  0.94148433  1
  Te  Te156  1  0.23846766  0.40173891  0.23754689  1
  Te  Te157  1  0.24932023  0.41801372  0.57473605  1
  Te  Te158  1  0.20655938  0.44570690  0.95683005  1
  Te  Te159  1  0.23912617  0.76579168  0.27599485  1
  Te  Te160  1  0.25323594  0.74323205  0.59293626  1
  Te  Te161  1  0.21490758  0.73158314  0.90038039  1
  Te  Te162  1  0.58808964  0.08040643  0.24341907  1
  Te  Te163  1  0.57470779  0.10551156  0.60919406  1
  Te  Te164  1  0.56434068  0.09580686  0.92951030  1
  Te  Te165  1  0.58272330  0.39817694  0.24355748  1
  Te  Te166  1  0.58284898  0.42148565  0.55721401  1
  Te  Te167  1  0.58301858  0.41925218  0.90436542  1
  Te  Te168  1  0.54296914  0.72310834  0.25166693  1
  Te  Te169  1  0.57432097  0.73953621  0.58996477  1
  Te  Te170  1  0.57369558  0.75133163  0.92872558  1
  Te  Te171  1  0.91959249  0.10140783  0.26889622  1
  Te  Te172  1  0.93250484  0.07833779  0.59064544  1
  Te  Te173  1  0.91082861  0.08225078  0.92707026  1
  Te  Te174  1  0.94622272  0.43086595  0.23095834  1
  Te  Te175  1  0.90842668  0.42156871  0.57295247  1
  Te  Te176  1  0.93492753  0.42793400  0.91963002  1
  Te  Te177  1  0.91474667  0.75288240  0.27171049  1
  Te  Te178  1  0.91684407  0.75158170  0.59375837  1
  Te  Te179  1  0.92768266  0.76030659  0.92158840  1
