# generated using pymatgen
data_In2Te3
_symmetry_space_group_name_H-M   'P 1'
_cell_length_a   18.82836599
_cell_length_b   18.83875723
_cell_length_c   18.82132411
_cell_angle_alpha   90.01199608
_cell_angle_beta   89.99618306
_cell_angle_gamma   89.99334607
_symmetry_Int_Tables_number   1
_chemical_formula_structural   In2Te3
_chemical_formula_sum   'In72 Te108'
_cell_volume   6675.98022301
_cell_formula_units_Z   36
loop_
 _symmetry_equiv_pos_site_id
 _symmetry_equiv_pos_as_xyz
  1  'x, y, z'
loop_
 _atom_site_type_symbol
 _atom_site_label
 _atom_site_symmetry_multiplicity
 _atom_site_fract_x
 _atom_site_fract_y
 _atom_site_fract_z
 _atom_site_occupancy
  In  In0  1  0.83208844  0.34467551  0.84094975  1
  In  In1  1  0.15680354  0.82962089  -0.00919763  1
  In  In2  1  0.00675384  0.34256140  0.00655192  1
  In  In3  1  0.50504431  0.50120679  0.01111289  1
  In  In4  1  0.17776866  0.84315875  0.65375507  1
  In  In5  1  0.14836326  0.16111194  0.65522855  1
  In  In6  1  0.32150113  0.82296142  0.18412808  1
  In  In7  1  0.17707061  0.50545639  0.66807232  1
  In  In8  1  0.66561897  -0.01372867  0.33494190  1
  In  In9  1  0.81741151  0.35343677  0.47045441  1
  In  In10  1  0.17056423  0.34076713  0.52690964  1
  In  In11  1  0.32326725  0.82848437  0.84747079  1
  In  In12  1  0.67113723  0.82151717  0.16818861  1
  In  In13  1  0.51694812  0.33395280  0.50684686  1
  In  In14  1  0.64905790  0.33876040  -0.00344542  1
  In  In15  1  0.16279277  0.63585341  0.85151075  1
  In  In16  1  0.50190573  0.66272506  0.84739768  1
  In  In17  1  0.14880646  0.16613263  0.02057400  1
  In  In18  1  0.02201357  0.48510312  0.84873561  1
  In  In19  1  -0.00171624  0.00165019  0.32095595  1
  In  In20  1  0.16241074  -0.02474166  0.83926281  1
  In  In21  1  -0.02263444  0.32142556  0.66395956  1
  In  In22  1  0.18255086  -0.00757015  0.47135637  1
  In  In23  1  0.67745682  0.82639346  0.83290245  1
  In  In24  1  0.65423966  0.83934410  0.50255420  1
  In  In25  1  0.81535150  0.64916794  0.87118948  1
  In  In26  1  0.17800106  0.49905002  0.02192574  1
  In  In27  1  0.16830873  0.67020419  0.16946206  1
  In  In28  1  0.34954902  0.35314286  0.66932966  1
  In  In29  1  0.51024855  0.82938278  0.00159628  1
  In  In30  1  0.35107372  0.16789003  0.82135227  1
  In  In31  1  0.32618337  -0.01488812  -0.00297841  1
  In  In32  1  0.32375694  0.14967711  0.48717585  1
  In  In33  1  -0.00401319  0.66479430  0.33927435  1
  In  In34  1  0.33301170  0.65759172  0.67448653  1
  In  In35  1  0.51488141  0.15679162  0.67174200  1
  In  In36  1  0.47439987  0.69209491  0.46493578  1
  In  In37  1  0.84077918  0.83197555  0.01025880  1
  In  In38  1  -0.01977936  0.32309044  0.32145411  1
  In  In39  1  0.18067383  0.67538291  0.45175338  1
  In  In40  1  0.17698552  0.50469433  0.31405868  1
  In  In41  1  0.66259764  0.01297135  0.66843602  1
  In  In42  1  0.50083000  -0.01123458  0.15894024  1
  In  In43  1  0.33025524  0.35039559  0.32314719  1
  In  In44  1  0.82043038  0.49657935  0.68670390  1
  In  In45  1  0.17875618  0.31939036  0.86328444  1
  In  In46  1  0.49626418  0.66060675  0.17160125  1
  In  In47  1  0.70996747  0.17020588  0.16172292  1
  In  In48  1  -0.00637913  0.16200167  0.17402118  1
  In  In49  1  0.67189129  0.18277510  0.50308331  1
  In  In50  1  0.01081123  0.52256909  0.48467816  1
  In  In51  1  0.50493941  0.17049260  -0.02424664  1
  In  In52  1  0.67484613  0.66459746  0.66664177  1
  In  In53  1  0.30740037  0.17104347  0.17054996  1
  In  In54  1  0.82177697  0.36392932  0.16428093  1
  In  In55  1  0.67484983  0.64823468  0.30250980  1
  In  In56  1  0.00770195  0.85144677  0.17376937  1
  In  In57  1  0.47658465  0.86554299  0.63569063  1
  In  In58  1  0.82550270  0.82690499  0.32376894  1
  In  In59  1  0.81867269  -0.00457560  0.49970817  1
  In  In60  1  0.50075755  0.15943951  0.34994623  1
  In  In61  1  0.15727284  0.15547382  0.31488677  1
  In  In62  1  -0.00691178  0.69054790  0.67816323  1
  In  In63  1  0.81702529  0.16412331  0.66231843  1
  In  In64  1  0.50815157  0.50735844  0.66854966  1
  In  In65  1  0.51897612  0.36103927  0.17796698  1
  In  In66  1  -0.00006634  -0.01357071  0.67196271  1
  In  In67  1  0.66092068  0.17423662  0.83645993  1
  In  In68  1  0.86425595  0.13175907  -0.01225129  1
  In  In69  1  0.84921806  0.66505081  0.51087436  1
  In  In70  1  -0.00470722  0.84356287  0.83433434  1
  In  In71  1  0.50852586  0.50702601  0.32080286  1
  Te  Te72  1  0.08804908  0.06750571  0.10985187  1
  Te  Te73  1  0.07461399  0.08927994  0.42272607  1
  Te  Te74  1  0.07777249  0.08105388  0.76387614  1
  Te  Te75  1  0.07835108  0.42539415  0.10343050  1
  Te  Te76  1  0.09156342  0.41333285  0.41645866  1
  Te  Te77  1  0.08948985  0.40047407  0.73878083  1
  Te  Te78  1  0.06828664  0.74552292  0.08066174  1
  Te  Te79  1  0.07234488  0.76699737  0.41410702  1
  Te  Te80  1  0.11084495  0.75497963  0.76722365  1
  Te  Te81  1  0.40992096  0.08537383  0.07805261  1
  Te  Te82  1  0.40711643  0.05778506  0.40463512  1
  Te  Te83  1  0.41998623  0.06760391  0.73972427  1
  Te  Te84  1  0.41224950  0.42653692  0.10339060  1
  Te  Te85  1  0.42680528  0.41942177  0.41784070  1
  Te  Te86  1  0.43785539  0.41857258  0.76689215  1
  Te  Te87  1  0.40971950  0.75047920  0.08079778  1
  Te  Te88  1  0.38424898  0.77732288  0.38347821  1
  Te  Te89  1  0.42282375  0.75603335  0.74953010  1
  Te  Te90  1  0.75119191  0.07102930  0.06198628  1
  Te  Te91  1  0.74984500  0.09301372  0.40641643  1
  Te  Te92  1  0.75760599  0.07448202  0.76944047  1
  Te  Te93  1  0.72694862  0.44295016  0.07512670  1
  Te  Te94  1  0.72425061  0.41519133  0.37635424  1
  Te  Te95  1  0.72741677  0.41278285  0.76324016  1
  Te  Te96  1  0.75403152  0.72664761  0.08508833  1
  Te  Te97  1  0.74008461  0.74222792  0.41942733  1
  Te  Te98  1  0.77560295  0.73797879  0.75291136  1
  Te  Te99  1  0.09147926  0.26436575  0.23348214  1
  Te  Te100  1  0.05886946  0.24211955  0.56214642  1
  Te  Te101  1  0.06287683  0.23744230  0.91217303  1
  Te  Te102  1  0.06617477  0.57619670  0.23726599  1
  Te  Te103  1  0.08956201  0.60269348  0.58881697  1
  Te  Te104  1  0.06357502  0.58582257  0.95373494  1
  Te  Te105  1  0.09907183  0.90100127  0.27967879  1
  Te  Te106  1  0.08177318  0.91652071  0.56422358  1
  Te  Te107  1  0.05530215  0.94075009  0.94732329  1
  Te  Te108  1  0.42211722  0.24847675  0.25145403  1
  Te  Te109  1  0.40857723  0.24454309  0.57596163  1
  Te  Te110  1  0.40476450  0.26266393  0.91949170  1
  Te  Te111  1  0.40106352  0.58697247  0.25909203  1
  Te  Te112  1  0.42250565  0.59046117  0.57214133  1
  Te  Te113  1  0.41143626  0.59348967  0.93819468  1
  Te  Te114  1  0.42567690  0.90429575  0.25400730  1
  Te  Te115  1  0.39570289  0.92646401  0.53077862  1
  Te  Te116  1  0.43056743  0.91983569  0.90739821  1
  Te  Te117  1  0.76000252  0.26684218  0.26020827  1
  Te  Te118  1  0.74908776  0.27906158  0.59137846  1
  Te  Te119  1  0.75837115  0.24802898  0.93790795  1
  Te  Te120  1  0.78809583  0.60731271  0.21556257  1
  Te  Te121  1  0.74737653  0.56923896  0.57258414  1
  Te  Te122  1  0.74713479  0.54589108  0.95358881  1
  Te  Te123  1  0.76099535  0.92870070  0.23103525  1
  Te  Te124  1  0.74895599  0.90517492  0.60080762  1
  Te  Te125  1  0.76126841  0.91453903  0.91540564  1
  Te  Te126  1  0.25289369  0.25943148  0.06662066  1
  Te  Te127  1  0.23985712  0.25526739  0.41327006  1
  Te  Te128  1  0.24316029  0.25464088  0.73207420  1
  Te  Te129  1  0.26871446  0.58710650  0.09985039  1
  Te  Te130  1  0.27445931  0.57451431  0.40138317  1
  Te  Te131  1  0.27243998  0.56007947  0.77412614  1
  Te  Te132  1  0.23400713  0.91358650  0.09264423  1
  Te  Te133  1  0.27971410  0.88374898  0.43420007  1
  Te  Te134  1  0.27063515  0.92567195  0.74193004  1
  Te  Te135  1  0.58023827  0.24322255  0.09737033  1
  Te  Te136  1  0.59923508  0.26598638  0.39656690  1
  Te  Te137  1  0.58322917  0.26166552  0.74696383  1
  Te  Te138  1  0.59634990  0.58506983  0.09404373  1
  Te  Te139  1  0.58477584  0.59639180  0.41799975  1
  Te  Te140  1  0.60277301  0.57937255  0.76891660  1
  Te  Te141  1  0.60723955  0.92286607  0.07202480  1
  Te  Te142  1  0.56449735  0.91488935  0.41448014  1
  Te  Te143  1  0.58006696  0.90748470  0.74111846  1
  Te  Te144  1  0.90771471  0.25409769  0.08390407  1
  Te  Te145  1  0.90869453  0.24706507  0.42496421  1
  Te  Te146  1  0.90843707  0.23483009  0.76583247  1
  Te  Te147  1  0.84582227  0.59992242  0.06895989  1
  Te  Te148  1  0.89227248  0.56856370  0.40132038  1
  Te  Te149  1  0.93009774  0.57744650  0.75977502  1
  Te  Te150  1  0.90918344  0.93116890  0.09784988  1
  Te  Te151  1  0.91199674  0.91091705  0.41531421  1
  Te  Te152  1  0.89778979  0.91423224  0.75053470  1
  Te  Te153  1  0.26083690  0.06573425  0.26197204  1
  Te  Te154  1  0.24754042  0.06690578  0.59050557  1
  Te  Te155  1  0.24501496  0.08395103  0.91212800  1
  Te  Te156  1  0.25475417  0.42062831  0.21827358  1
  Te  Te157  1  0.27462385  0.44267041  0.56885339  1
  Te  Te158  1  0.25779711  0.42973811  0.91560153  1
  Te  Te159  1  0.23663528  0.74538899  0.28027724  1
  Te  Te160  1  0.25653954  0.74132299  0.57394077  1
  Te  Te161  1  0.25478151  0.72657512  0.93583664  1
  Te  Te162  1  0.58922336  0.08738441  0.24136225  1
  Te  Te163  1  0.57815696  0.07582840  0.55808231  1
  Te  Te164  1  0.58201238  0.06957307  0.90393851  1
  Te  Te165  1  0.62584338  0.43556295  0.25548336  1
  Te  Te166  1  0.60012023  0.42549713  0.58538526  1
  Te  Te167  1  0.55416640  0.40559133  0.90550883  1
  Te  Te168  1  0.57424421  0.75690738  0.26453958  1
  Te  Te169  1  0.56841041  0.74258986  0.58899391  1
  Te  Te170  1  0.60702869  0.73433306  0.93240779  1
  Te  Te171  1  0.89769940  0.08962933  0.25925068  1
  Te  Te172  1  0.91488646  0.08074412  0.58204245  1
  Te  Te173  1  0.94921778  0.04775141  0.90362706  1
  Te  Te174  1  0.92155785  0.43597275  0.24709760  1
  Te  Te175  1  0.92252801  0.43549080  0.57982177  1
  Te  Te176  1  0.90719277  0.43579437  0.93719321  1
  Te  Te177  1  0.91458235  0.74288033  0.23544707  1
  Te  Te178  1  0.92185932  0.77224660  0.57949584  1
  Te  Te179  1  0.92729184  0.73829683  0.92110330  1
