# generated using pymatgen
data_In2Te3
_symmetry_space_group_name_H-M   'P 1'
_cell_length_a   18.95045356
_cell_length_b   18.99060268
_cell_length_c   18.97209068
_cell_angle_alpha   89.92639387
_cell_angle_beta   89.93939597
_cell_angle_gamma   90.00038411
_symmetry_Int_Tables_number   1
_chemical_formula_structural   In2Te3
_chemical_formula_sum   'In72 Te108'
_cell_volume   6827.67667339
_cell_formula_units_Z   36
loop_
 _symmetry_equiv_pos_site_id
 _symmetry_equiv_pos_as_xyz
  1  'x, y, z'
loop_
 _atom_site_type_symbol
 _atom_site_label
 _atom_site_symmetry_multiplicity
 _atom_site_fract_x
 _atom_site_fract_y
 _atom_site_fract_z
 _atom_site_occupancy
  In  In0  1  0.20836859  0.62870946  0.13155747  1
  In  In1  1  0.65902233  -0.02709537  0.33230867  1
  In  In2  1  -0.00868564  0.79893998  0.85984236  1
  In  In3  1  0.35366828  0.19610072  0.48562530  1
  In  In4  1  0.19007342  0.86967761  0.33324302  1
  In  In5  1  0.14293522  -0.00887114  0.17253229  1
  In  In6  1  -0.03614871  0.79997359  0.10858504  1
  In  In7  1  0.35332013  0.34608156  -0.00495586  1
  In  In8  1  0.02661661  0.18092655  0.82278445  1
  In  In9  1  0.16617402  0.32801250  0.18058394  1
  In  In10  1  0.50662763  0.85314840  0.67405498  1
  In  In11  1  -0.02077669  0.01486470  0.33245627  1
  In  In12  1  0.81040796  0.83321330  0.65550617  1
  In  In13  1  0.12849106  0.17115722  0.32401243  1
  In  In14  1  0.81613203  0.34681086  0.14969148  1
  In  In15  1  0.67780747  0.16284916  0.15350570  1
  In  In16  1  0.82272464  0.15681760  -0.02487271  1
  In  In17  1  0.49161242  0.52231251  0.34095411  1
  In  In18  1  0.67163021  0.81824109  0.17001538  1
  In  In19  1  0.68970518  0.63004918  0.31840007  1
  In  In20  1  0.14649617  0.16547484  0.64539397  1
  In  In21  1  0.81403494  0.65053154  0.49553385  1
  In  In22  1  0.33038500  0.34016554  0.32829684  1
  In  In23  1  0.64571555  0.15938599  0.81219828  1
  In  In24  1  0.51380504  0.81155641  0.33589437  1
  In  In25  1  0.82994784  0.47982757  0.00474354  1
  In  In26  1  0.68126333  0.31730846  0.64107480  1
  In  In27  1  0.35179785  0.14502410  0.84145989  1
  In  In28  1  0.33867706  0.85697635  0.82697145  1
  In  In29  1  0.65615893  0.69285448  0.69779641  1
  In  In30  1  0.46736329  0.02514761  0.13500638  1
  In  In31  1  0.14327807  0.46730236  0.34015759  1
  In  In32  1  0.00604020  0.84919218  0.50168661  1
  In  In33  1  0.69292001  0.36202233  0.37109487  1
  In  In34  1  0.84749468  -0.01903898  0.83258240  1
  In  In35  1  0.16122172  0.34743935  0.82069319  1
  In  In36  1  0.19763808  0.82430857  0.67962812  1
  In  In37  1  -0.00906056  0.50941180  0.16595546  1
  In  In38  1  0.64839333  0.49371289  0.84847464  1
  In  In39  1  0.82866093  0.33033641  0.84737075  1
  In  In40  1  0.64649747  0.36440727  0.03146210  1
  In  In41  1  0.63809242  0.64639328  0.01892415  1
  In  In42  1  0.34203388  0.83661908  0.16010176  1
  In  In43  1  0.14414951  0.65759583  0.86512868  1
  In  In44  1  0.49912776  -0.00224142  0.82549550  1
  In  In45  1  0.34057313  0.52072097  0.87706441  1
  In  In46  1  -0.00113141  0.64333476  0.65902630  1
  In  In47  1  0.17055473  0.49647675  0.64903518  1
  In  In48  1  0.20020297  -0.00196267  0.49084547  1
  In  In49  1  0.33594832  0.01514365  0.34306237  1
  In  In50  1  0.66204638  -0.01909917  -0.02007941  1
  In  In51  1  0.67360581  0.00292643  0.66872811  1
  In  In52  1  0.34129499  0.50278385  0.51068585  1
  In  In53  1  0.50327558  0.81653774  -0.00184714  1
  In  In54  1  0.51247534  0.47511019  0.67215057  1
  In  In55  1  0.50442869  0.33793686  0.18662602  1
  In  In56  1  -0.00901997  0.35375081  0.01288419  1
  In  In57  1  0.84632434  0.82245348  0.33427020  1
  In  In58  1  0.22440152  0.13907727  0.01561670  1
  In  In59  1  -0.05320602  0.04164417  0.65120595  1
  In  In60  1  0.65989097  0.14107493  0.50695693  1
  In  In61  1  -0.02630484  0.33063613  0.65092246  1
  In  In62  1  0.51854512  0.17576269  0.33514660  1
  In  In63  1  0.33921262  0.67465801  0.32899088  1
  In  In64  1  0.83395466  0.51871134  0.67461267  1
  In  In65  1  -0.01285423  0.67127586  0.34842727  1
  In  In66  1  0.32765974  0.32986816  0.66697409  1
  In  In67  1  0.84738816  0.19191317  0.35121578  1
  In  In68  1  0.35024524  0.65582391  0.69515091  1
  In  In69  1  0.15951301  0.65418928  0.51245129  1
  In  In70  1  0.02941156  -0.01169409  0.00496489  1
  In  In71  1  0.16659738  0.82505047  -0.00111142  1
  Te  Te72  1  0.08889564  0.10192954  0.08570370  1
  Te  Te73  1  0.08208684  0.07178172  0.42890596  1
  Te  Te74  1  0.07343449  0.06711000  0.73413403  1
  Te  Te75  1  0.09586928  0.42936556  0.09046565  1
  Te  Te76  1  0.04258802  0.36849907  0.38167583  1
  Te  Te77  1  0.06597985  0.42488767  0.73362049  1
  Te  Te78  1  0.09931463  0.72816160  0.09023680  1
  Te  Te79  1  0.10207865  0.75993684  0.41913353  1
  Te  Te80  1  0.08211113  0.74489889  0.74197109  1
  Te  Te81  1  0.36745170  0.09502772  0.05751075  1
  Te  Te82  1  0.44032492  0.08381374  0.42778922  1
  Te  Te83  1  0.44067796  0.09629818  0.73270677  1
  Te  Te84  1  0.42666639  0.42866871  0.09714409  1
  Te  Te85  1  0.42396215  0.41117223  0.42235437  1
  Te  Te86  1  0.39005683  0.43565465  0.75447256  1
  Te  Te87  1  0.42172123  0.73543647  0.09108504  1
  Te  Te88  1  0.43019373  0.73235682  0.42694953  1
  Te  Te89  1  0.43374922  0.75483279  0.77047561  1
  Te  Te90  1  0.75573905  0.06219892  0.07227923  1
  Te  Te91  1  0.74181808  0.08439222  0.39244593  1
  Te  Te92  1  0.76463460  0.08744617  0.75812040  1
  Te  Te93  1  0.72137925  0.46897173  0.11775989  1
  Te  Te94  1  0.79791005  0.43860266  0.43966907  1
  Te  Te95  1  0.74547548  0.41767375  0.75562857  1
  Te  Te96  1  0.74461933  0.72606759  0.08413273  1
  Te  Te97  1  0.73887968  0.74902499  0.40902006  1
  Te  Te98  1  0.78447589  0.73455256  0.76059426  1
  Te  Te99  1  0.04649212  0.26990464  0.24666371  1
  Te  Te100  1  0.07761020  0.26777632  0.56588032  1
  Te  Te101  1  0.08867793  0.26672653  0.92905166  1
  Te  Te102  1  0.08184229  0.58529598  0.26504995  1
  Te  Te103  1  0.05967637  0.54911208  0.55648772  1
  Te  Te104  1  0.05895578  0.58085921  0.95267903  1
  Te  Te105  1  0.05959800  0.90303455  0.26329769  1
  Te  Te106  1  0.11484407  0.91185840  0.58391035  1
  Te  Te107  1  0.09192373  0.90605248  0.89348039  1
  Te  Te108  1  0.40923898  0.23642334  0.24993695  1
  Te  Te109  1  0.43130130  0.27444668  0.58048251  1
  Te  Te110  1  0.41938721  0.26368314  0.89335159  1
  Te  Te111  1  0.40736026  0.58389299  0.23726566  1
  Te  Te112  1  0.43646089  0.58623526  0.59119537  1
  Te  Te113  1  0.43411770  0.61629936  0.94331932  1
  Te  Te114  1  0.42231595  0.92867480  0.25061911  1
  Te  Te115  1  0.38914548  0.92069402  0.62009346  1
  Te  Te116  1  0.41889586  0.92579149  0.93389667  1
  Te  Te117  1  0.73550300  0.26193094  0.25270785  1
  Te  Te118  1  0.77114729  0.21700223  0.57537739  1
  Te  Te119  1  0.72542451  0.26670246  0.93717154  1
  Te  Te120  1  0.78458007  0.54516744  0.24207488  1
  Te  Te121  1  0.72432930  0.59225281  0.60102748  1
  Te  Te122  1  0.74584887  0.57713091  0.92538603  1
  Te  Te123  1  0.76534044  0.91294207  0.24262575  1
  Te  Te124  1  0.76000504  0.93823980  0.56821183  1
  Te  Te125  1  0.76248485  0.89650214  0.91566352  1
  Te  Te126  1  0.27019473  0.26228234  0.09349704  1
  Te  Te127  1  0.23660390  0.24785424  0.40217614  1
  Te  Te128  1  0.23848082  0.23796206  0.75128833  1
  Te  Te129  1  0.29450587  0.58776044  0.01669638  1
  Te  Te130  1  0.24343560  0.57232038  0.41582546  1
  Te  Te131  1  0.23192713  0.58090133  0.75794338  1
  Te  Te132  1  0.24552195  0.92319298  0.08228162  1
  Te  Te133  1  0.29838308  0.89653885  0.43436802  1
  Te  Te134  1  0.27841213  0.94593533  0.72133999  1
  Te  Te135  1  0.56884229  0.24320109  0.08615786  1
  Te  Te136  1  0.59600309  0.25904923  0.43250149  1
  Te  Te137  1  0.58759625  0.27489244  0.74669659  1
  Te  Te138  1  0.53154155  0.53909981  0.03163855  1
  Te  Te139  1  0.60398613  0.57113793  0.42227606  1
  Te  Te140  1  0.56557441  0.58530005  0.76252556  1
  Te  Te141  1  0.57675406  0.91903761  0.09694881  1
  Te  Te142  1  0.56712143  0.91270624  0.42754026  1
  Te  Te143  1  0.60992816  0.91132976  0.77074722  1
  Te  Te144  1  0.90048882  0.24724992  0.07238292  1
  Te  Te145  1  0.95068249  0.25444399  0.43887782  1
  Te  Te146  1  0.90603119  0.24068983  0.75331687  1
  Te  Te147  1  0.93431284  0.58249265  0.04745466  1
  Te  Te148  1  0.90560110  0.56536599  0.41375556  1
  Te  Te149  1  0.90738112  0.60666763  0.76910006  1
  Te  Te150  1  0.91821202  0.93789189  0.08426327  1
  Te  Te151  1  0.90001765  0.92866481  0.43108292  1
  Te  Te152  1  0.92703362  0.90838584  0.72526299  1
  Te  Te153  1  0.23373132  0.08218794  0.25493081  1
  Te  Te154  1  0.26589385  0.10524312  0.57375079  1
  Te  Te155  1  0.23792355  0.06715938  0.89108769  1
  Te  Te156  1  0.25476749  0.43684847  0.24004026  1
  Te  Te157  1  0.24133345  0.39860396  0.55997492  1
  Te  Te158  1  0.23687271  0.42110757  0.92745465  1
  Te  Te159  1  0.23869297  0.75773797  0.24223098  1
  Te  Te160  1  0.26862876  0.72863184  0.58615649  1
  Te  Te161  1  0.25720127  0.75133502  0.90371761  1
  Te  Te162  1  0.57960314  0.07699526  0.23532298  1
  Te  Te163  1  0.56681273  0.08667694  0.60938587  1
  Te  Te164  1  0.57431525  0.09120645  0.92559120  1
  Te  Te165  1  0.59141236  0.42355005  0.27491590  1
  Te  Te166  1  0.60910820  0.42570347  0.57312312  1
  Te  Te167  1  0.55317499  0.40765993  0.92374360  1
  Te  Te168  1  0.58552748  0.71722180  0.24277873  1
  Te  Te169  1  0.59578191  0.77176011  0.59081732  1
  Te  Te170  1  0.60239896  0.74711898  0.91775538  1
  Te  Te171  1  0.91026275  0.11021749  0.24668637  1
  Te  Te172  1  0.90585773  0.13916442  0.55019016  1
  Te  Te173  1  0.94048048  0.08462581  0.91132694  1
  Te  Te174  1  0.89301665  0.43053957  0.24785537  1
  Te  Te175  1  0.87713673  0.41561239  0.57256888  1
  Te  Te176  1  0.93037500  0.42871423  0.89626720  1
  Te  Te177  1  0.90628434  0.72711080  0.23491859  1
  Te  Te178  1  0.92115406  0.74114010  0.56615904  1
  Te  Te179  1  0.91287114  0.75597239  0.97414383  1
