# generated using pymatgen
data_In2Te3
_symmetry_space_group_name_H-M   'P 1'
_cell_length_a   19.01242561
_cell_length_b   18.99059131
_cell_length_c   19.01924988
_cell_angle_alpha   89.81248327
_cell_angle_beta   89.85113283
_cell_angle_gamma   89.76644122
_symmetry_Int_Tables_number   1
_chemical_formula_structural   In2Te3
_chemical_formula_sum   'In72 Te108'
_cell_volume   6866.92042212
_cell_formula_units_Z   36
loop_
 _symmetry_equiv_pos_site_id
 _symmetry_equiv_pos_as_xyz
  1  'x, y, z'
loop_
 _atom_site_type_symbol
 _atom_site_label
 _atom_site_symmetry_multiplicity
 _atom_site_fract_x
 _atom_site_fract_y
 _atom_site_fract_z
 _atom_site_occupancy
  In  In0  1  0.67637493  0.13986945  0.83558953  1
  In  In1  1  0.66683409  0.50787753  0.51992318  1
  In  In2  1  0.81802665  0.64838450  0.80811965  1
  In  In3  1  -0.01136588  -0.02456355  0.65262333  1
  In  In4  1  0.64188340  0.30828961  0.34839855  1
  In  In5  1  0.33567886  0.68140109  0.35394794  1
  In  In6  1  0.17982731  0.18700066  0.32559043  1
  In  In7  1  0.14416178  0.54992571  0.33806908  1
  In  In8  1  0.84593756  0.81020036  0.00214062  1
  In  In9  1  0.50454141  0.67028824  0.50825060  1
  In  In10  1  0.00590894  0.32730796  0.67227946  1
  In  In11  1  0.49483089  0.01304713  0.18100068  1
  In  In12  1  0.17326798  0.33646226  0.15623414  1
  In  In13  1  0.66886314  0.81052363  0.84377804  1
  In  In14  1  0.16998207  0.83102250  0.65652131  1
  In  In15  1  0.66060711  0.50353394  0.82440124  1
  In  In16  1  0.32049573  0.85057139  0.16543554  1
  In  In17  1  0.48797250  0.34953982  0.82619634  1
  In  In18  1  0.51785493  0.67636260  0.18168656  1
  In  In19  1  0.34510740  0.02428208  -0.00127692  1
  In  In20  1  0.64489892  0.34097017  -0.00064615  1
  In  In21  1  0.81639438  0.12458045  0.32913298  1
  In  In22  1  0.86861204  -0.00579440  0.82515830  1
  In  In23  1  0.32948195  0.18919065  0.83854952  1
  In  In24  1  0.64219880  0.85290594  0.19217568  1
  In  In25  1  -0.00069717  0.48051979  0.81276339  1
  In  In26  1  0.31467360  0.34838894  -0.00692193  1
  In  In27  1  0.84385403  0.67475524  0.50163354  1
  In  In28  1  0.68248605  -0.04241123  0.64140731  1
  In  In29  1  0.83392311  0.31698622  0.15375847  1
  In  In30  1  0.28429088  0.76678665  0.82704546  1
  In  In31  1  0.15774809  0.52319712  0.00266546  1
  In  In32  1  -0.01761780  -0.04126276  0.33763676  1
  In  In33  1  0.49787875  0.50452313  0.68752494  1
  In  In34  1  0.84503222  0.16101902  -0.01105529  1
  In  In35  1  0.34388965  0.34514602  0.34177180  1
  In  In36  1  0.32803647  0.31185245  0.65815817  1
  In  In37  1  0.14678706  0.18770829  -0.02888219  1
  In  In38  1  0.49619553  0.34468808  0.15969390  1
  In  In39  1  0.81853227  0.52293909  0.35100202  1
  In  In40  1  0.00751926  0.51099285  0.16149354  1
  In  In41  1  0.00073282  0.11776354  0.48148146  1
  In  In42  1  0.66859200  0.32903003  0.66516718  1
  In  In43  1  0.33789574  0.68371877  0.65583858  1
  In  In44  1  0.85350434  0.33054815  0.82192025  1
  In  In45  1  0.49466929  0.51181249  0.36198992  1
  In  In46  1  0.14712990  0.82371555  0.33441769  1
  In  In47  1  0.49955535  -0.00199630  0.85472267  1
  In  In48  1  0.19128281  0.00452694  0.50917472  1
  In  In49  1  0.15599567  0.03455843  0.14939136  1
  In  In50  1  0.01607637  0.68056202  0.66487089  1
  In  In51  1  0.84025011  -0.01966062  0.14735755  1
  In  In52  1  0.15093608  -0.05088073  0.85358118  1
  In  In53  1  0.83763373  0.19399556  0.67347076  1
  In  In54  1  0.15316928  0.15303960  0.67503702  1
  In  In55  1  0.00378150  0.33998698  0.31723611  1
  In  In56  1  0.66663395  0.65818794  0.00316760  1
  In  In57  1  0.85911278  0.71091082  0.17622247  1
  In  In58  1  0.83625794  0.30292822  0.49549134  1
  In  In59  1  0.00696352  0.66860147  0.00445966  1
  In  In60  1  0.51496878  0.13829679  0.66464293  1
  In  In61  1  0.48397498  0.84998459  0.64281605  1
  In  In62  1  0.68363243  0.02042514  -0.01295899  1
  In  In63  1  0.29706474  0.51471398  0.17238252  1
  In  In64  1  0.66225365  -0.03709473  0.36876942  1
  In  In65  1  0.69157253  0.51428350  0.18908885  1
  In  In66  1  0.48973537  0.15130214  0.34181266  1
  In  In67  1  0.51570090  0.82288349  -0.00744674  1
  In  In68  1  0.17818851  0.32383002  0.49789583  1
  In  In69  1  0.33116680  -0.00079254  0.33943321  1
  In  In70  1  0.32141180  0.55719031  0.85808265  1
  In  In71  1  0.00381526  0.51446329  0.52738187  1
  Te  Te72  1  0.06397214  0.09299918  0.04990084  1
  Te  Te73  1  0.10565688  0.06776518  0.38753911  1
  Te  Te74  1  0.08261798  0.04215651  0.74970469  1
  Te  Te75  1  0.07614036  0.41223330  0.06933607  1
  Te  Te76  1  0.07516247  0.41532965  0.42568971  1
  Te  Te77  1  0.09772331  0.43291766  0.71204703  1
  Te  Te78  1  0.10576917  0.77226276  0.04583300  1
  Te  Te79  1  0.05145470  0.72939029  0.39352915  1
  Te  Te80  1  0.08078100  0.77457942  0.75848698  1
  Te  Te81  1  0.42049180  0.10320033  0.09386467  1
  Te  Te82  1  0.42784543  0.05266689  0.43842484  1
  Te  Te83  1  0.41462111  0.08519494  0.76494120  1
  Te  Te84  1  0.39554014  0.43372086  0.08739875  1
  Te  Te85  1  0.40636555  0.42857064  0.44248332  1
  Te  Te86  1  0.38349448  0.42893982  0.75422481  1
  Te  Te87  1  0.42533657  0.75906908  0.09577874  1
  Te  Te88  1  0.42630125  0.77013932  0.42971316  1
  Te  Te89  1  0.42153662  0.76632571  0.74935764  1
  Te  Te90  1  0.75472820  0.09604317  0.09488164  1
  Te  Te91  1  0.73599953  0.07049984  0.43666007  1
  Te  Te92  1  0.75717442  0.07136885  0.73021731  1
  Te  Te93  1  0.74653113  0.41906300  0.08444087  1
  Te  Te94  1  0.74901854  0.40907204  0.42438041  1
  Te  Te95  1  0.75848623  0.41917013  0.74215112  1
  Te  Te96  1  0.72468081  0.76845742  0.08776040  1
  Te  Te97  1  0.79068513  0.78858049  0.41798018  1
  Te  Te98  1  0.75906484  0.76477223  0.73870037  1
  Te  Te99  1  0.07709835  0.24247080  0.22788257  1
  Te  Te100  1  0.06999977  0.23073099  0.56441449  1
  Te  Te101  1  0.07198450  0.25344440  0.86491676  1
  Te  Te102  1  0.08479396  0.62017489  0.22351444  1
  Te  Te103  1  0.10308557  0.61207523  0.56633868  1
  Te  Te104  1  0.07322909  0.58683512  0.89581482  1
  Te  Te105  1  0.09071995  0.92361569  0.23511716  1
  Te  Te106  1  0.08313300  0.91003374  0.55523329  1
  Te  Te107  1  0.05975210  0.88332398  0.94688189  1
  Te  Te108  1  0.41480195  0.25257110  0.24772406  1
  Te  Te109  1  0.43867229  0.24146721  0.59144372  1
  Te  Te110  1  0.42343985  0.26178356  0.93162438  1
  Te  Te111  1  0.41198559  0.57962541  0.25124247  1
  Te  Te112  1  0.41363491  0.57518013  0.58236970  1
  Te  Te113  1  0.43903867  0.61025395  0.91858001  1
  Te  Te114  1  0.42320136  0.90733620  0.25994270  1
  Te  Te115  1  0.42285722  0.96246933  0.57312372  1
  Te  Te116  1  0.40611081  0.90248444  0.92435981  1
  Te  Te117  1  0.75405772  0.24926436  0.26545337  1
  Te  Te118  1  0.72849407  0.22754815  0.57110508  1
  Te  Te119  1  0.74500548  0.25504816  0.90860219  1
  Te  Te120  1  0.75966482  0.62966887  0.26027013  1
  Te  Te121  1  0.75739731  0.59529190  0.59182166  1
  Te  Te122  1  0.75692097  0.56884952  0.92252243  1
  Te  Te123  1  0.76361961  0.90958562  0.25731784  1
  Te  Te124  1  0.76441290  0.89020799  0.53431804  1
  Te  Te125  1  0.76350289  0.91475901  0.91505579  1
  Te  Te126  1  0.25026220  0.23797323  0.07339776  1
  Te  Te127  1  0.27840951  0.23371082  0.42841773  1
  Te  Te128  1  0.22217326  0.25939505  0.75855311  1
  Te  Te129  1  0.25509885  0.61329791  0.06878318  1
  Te  Te130  1  0.25500634  0.58116512  0.42421530  1
  Te  Te131  1  0.23884787  0.63469131  0.76139436  1
  Te  Te132  1  0.24258534  0.93751269  0.07005575  1
  Te  Te133  1  0.25107914  0.89868185  0.41800337  1
  Te  Te134  1  0.25926360  0.90139061  0.75847426  1
  Te  Te135  1  0.59671912  0.25392148  0.10550923  1
  Te  Te136  1  0.54920244  0.24408612  0.43982567  1
  Te  Te137  1  0.58440446  0.24801938  0.76389270  1
  Te  Te138  1  0.58487715  0.57089437  0.09677001  1
  Te  Te139  1  0.60512813  0.59822644  0.41588537  1
  Te  Te140  1  0.59874222  0.59892017  0.73207153  1
  Te  Te141  1  0.58061819  0.93610978  0.07053353  1
  Te  Te142  1  0.57402333  0.85823771  0.42453737  1
  Te  Te143  1  0.59688050  0.92286016  0.76811860  1
  Te  Te144  1  0.92976096  0.25054194  0.06812352  1
  Te  Te145  1  0.92684979  0.23054956  0.39729323  1
  Te  Te146  1  0.95017407  0.21527459  0.77637296  1
  Te  Te147  1  0.90287674  0.59507535  0.08887434  1
  Te  Te148  1  0.93891422  0.58785675  0.40859395  1
  Te  Te149  1  0.91920104  0.57473758  0.72462120  1
  Te  Te150  1  0.94006335  0.89533171  0.07693275  1
  Te  Te151  1  0.89606338  0.90010431  0.44579523  1
  Te  Te152  1  0.90029136  0.88687249  0.73168412  1
  Te  Te153  1  0.26340113  0.09219879  0.24114468  1
  Te  Te154  1  0.26272489  0.08891472  0.60264950  1
  Te  Te155  1  0.24126923  0.07891468  0.89859491  1
  Te  Te156  1  0.22417533  0.41991417  0.27103866  1
  Te  Te157  1  0.23742308  0.41279514  0.59701608  1
  Te  Te158  1  0.23411870  0.43568927  0.90374273  1
  Te  Te159  1  0.24774389  0.74732249  0.24819327  1
  Te  Te160  1  0.25104947  0.75405655  0.56143756  1
  Te  Te161  1  0.23356274  0.73825514  0.96147872  1
  Te  Te162  1  0.59781270  0.07035246  0.27310793  1
  Te  Te163  1  0.57410901  0.03521664  0.57357373  1
  Te  Te164  1  0.56879102  0.10533087  0.93625318  1
  Te  Te165  1  0.58800161  0.42515346  0.26606537  1
  Te  Te166  1  0.57075090  0.41354662  0.58796699  1
  Te  Te167  1  0.56117252  0.44094848  0.92124330  1
  Te  Te168  1  0.58025319  0.75833639  0.28789166  1
  Te  Te169  1  0.59064624  0.77659363  0.56993678  1
  Te  Te170  1  0.56111342  0.70697772  0.90167511  1
  Te  Te171  1  0.92532222  0.06609973  0.24443689  1
  Te  Te172  1  0.90159234  0.08271373  0.58633937  1
  Te  Te173  1  0.93992530  0.06058590  0.93352886  1
  Te  Te174  1  0.90461029  0.43354823  0.25073343  1
  Te  Te175  1  0.90943062  0.40155448  0.58133045  1
  Te  Te176  1  0.91530070  0.42013265  0.91677352  1
  Te  Te177  1  0.96925165  0.74790360  0.26512045  1
  Te  Te178  1  0.94289374  0.76379294  0.56442756  1
  Te  Te179  1  0.91367520  0.72728112  0.89861157  1
