# generated using pymatgen
data_In2Te3
_symmetry_space_group_name_H-M   'P 1'
_cell_length_a   18.88190686
_cell_length_b   18.91181706
_cell_length_c   18.92359845
_cell_angle_alpha   89.98887407
_cell_angle_beta   89.84218545
_cell_angle_gamma   89.91268324
_symmetry_Int_Tables_number   1
_chemical_formula_structural   In2Te3
_chemical_formula_sum   'In72 Te108'
_cell_volume   6757.41627677
_cell_formula_units_Z   36
loop_
 _symmetry_equiv_pos_site_id
 _symmetry_equiv_pos_as_xyz
  1  'x, y, z'
loop_
 _atom_site_type_symbol
 _atom_site_label
 _atom_site_symmetry_multiplicity
 _atom_site_fract_x
 _atom_site_fract_y
 _atom_site_fract_z
 _atom_site_occupancy
  In  In0  1  0.28997796  0.32054508  0.65977323  1
  In  In1  1  0.35674596  0.14955772  0.82334428  1
  In  In2  1  -0.02426006  0.15347380  0.16132997  1
  In  In3  1  0.16440084  0.49687047  0.31105173  1
  In  In4  1  0.35796072  0.68699310  0.35057602  1
  In  In5  1  -0.03702865  0.49561756  0.83709087  1
  In  In6  1  0.15365990  0.81461210  -0.00964272  1
  In  In7  1  0.37601579  0.85664078  0.85147368  1
  In  In8  1  0.67917006  0.51366438  0.84491820  1
  In  In9  1  0.52700291  0.17235127  0.01472342  1
  In  In10  1  0.51587135  0.14638792  0.66053439  1
  In  In11  1  0.65422292  0.32832857  0.65004100  1
  In  In12  1  0.81433541  0.18165454  0.34321877  1
  In  In13  1  0.82774093  0.50296825  0.65534500  1
  In  In14  1  0.37599095  0.15040332  0.16915638  1
  In  In15  1  0.14791495  0.31263609  0.13352834  1
  In  In16  1  0.15242984  0.16535837  0.35781554  1
  In  In17  1  0.67373554  0.00610469  0.67011509  1
  In  In18  1  0.12295935  0.67012009  0.14959019  1
  In  In19  1  0.52183821  0.00581355  0.14363316  1
  In  In20  1  0.49837125  0.31821687  0.48546124  1
  In  In21  1  0.52495923  0.67611817  0.15300254  1
  In  In22  1  0.82957981  0.32636655  0.51635286  1
  In  In23  1  0.17947822  0.84605115  0.31801447  1
  In  In24  1  0.79661643  0.69293621  0.84019499  1
  In  In25  1  -0.00689709  0.50354398  0.48781013  1
  In  In26  1  0.34626726  0.48444032  0.13247904  1
  In  In27  1  0.32087022  0.13120064  0.54294640  1
  In  In28  1  0.67365276  0.02324804  -0.00564422  1
  In  In29  1  0.18667630  0.17004690  -0.01768488  1
  In  In30  1  0.84551508  0.30309904  0.81901980  1
  In  In31  1  0.66569078  0.67191091  0.33548338  1
  In  In32  1  0.33215056  0.30506806  0.32326829  1
  In  In33  1  0.16469758  0.64616357  0.50494651  1
  In  In34  1  0.51938717  0.52140784  0.30809608  1
  In  In35  1  0.65792363  0.86388922  0.50722713  1
  In  In36  1  0.85468143  0.65003586  0.16575297  1
  In  In37  1  0.48249701  0.49561487  0.67643344  1
  In  In38  1  0.00019742  0.82690508  0.53744163  1
  In  In39  1  -0.05034521  0.32538573  0.32589123  1
  In  In40  1  0.85627923  -0.00965442  0.81722901  1
  In  In41  1  0.15522763  0.01171197  0.79937959  1
  In  In42  1  0.34970332  0.81475184  0.15617391  1
  In  In43  1  0.52569146  0.67416018  0.84211900  1
  In  In44  1  0.35020336  0.65978249  0.00968193  1
  In  In45  1  0.82116066  0.18002026  0.00643892  1
  In  In46  1  0.75440605  0.42143242  0.25760368  1
  In  In47  1  0.68927583  0.83446137  0.17502914  1
  In  In48  1  0.14550029  0.67009787  0.84089708  1
  In  In49  1  -0.02615099  0.68857654  0.36501712  1
  In  In50  1  0.14010804  0.50321114  -0.02782931  1
  In  In51  1  0.85197716  0.02298310  0.51548539  1
  In  In52  1  0.34288602  0.88545472  0.52681178  1
  In  In53  1  0.29406437  0.50988983  0.85375726  1
  In  In54  1  0.33272645  0.46267679  0.50596898  1
  In  In55  1  0.17176079  0.82470262  0.66917330  1
  In  In56  1  0.83255996  0.85978838  0.33312106  1
  In  In57  1  0.19136644  -0.00198362  0.15835940  1
  In  In58  1  0.52500262  0.49387700  0.01370932  1
  In  In59  1  0.55040656  0.16282065  0.35082378  1
  In  In60  1  -0.01539301  -0.01126161  0.00040942  1
  In  In61  1  0.08316678  0.28031388  0.75996700  1
  In  In62  1  0.82276303  0.85261871  -0.01029358  1
  In  In63  1  0.50136217  0.70609903  0.52307150  1
  In  In64  1  0.49953751  0.35277284  0.83521323  1
  In  In65  1  0.36856938  0.01404247  0.34027228  1
  In  In66  1  0.83431869  0.67232557  0.52655485  1
  In  In67  1  0.03706707  0.01482628  0.34561256  1
  In  In68  1  0.00111365  0.34545012  -0.01641326  1
  In  In69  1  0.13444969  0.31773518  0.51528194  1
  In  In70  1  0.33147183  0.67480590  0.68926601  1
  In  In71  1  0.34946182  0.37039524  0.00648712  1
  Te  Te72  1  0.09365512  0.08903091  0.08156098  1
  Te  Te73  1  0.09149152  0.08383679  0.46625667  1
  Te  Te74  1  0.03285845  0.07218546  0.74279236  1
  Te  Te75  1  0.07302469  0.43643556  0.09416437  1
  Te  Te76  1  0.07956467  0.40463988  0.39771976  1
  Te  Te77  1  0.07524872  0.42764671  0.77172469  1
  Te  Te78  1  0.04163416  0.76007304  0.06891686  1
  Te  Te79  1  0.10005751  0.76425129  0.42014762  1
  Te  Te80  1  0.06806324  0.75973849  0.75280382  1
  Te  Te81  1  0.41561654  0.06495881  0.05291947  1
  Te  Te82  1  0.42792324  0.11284282  0.43586161  1
  Te  Te83  1  0.40778190  0.05791861  0.71634684  1
  Te  Te84  1  0.46380211  0.38874342  0.10566886  1
  Te  Te85  1  0.42061352  0.41981701  0.38688512  1
  Te  Te86  1  0.37901657  0.41418936  0.75340358  1
  Te  Te87  1  0.45001559  0.76514739  0.05081100  1
  Te  Te88  1  0.42760491  0.79741270  0.42529513  1
  Te  Te89  1  0.43961636  0.76106556  0.74863187  1
  Te  Te90  1  0.77665713  0.06600800  0.09318410  1
  Te  Te91  1  0.74878180  0.07707883  0.42482884  1
  Te  Te92  1  0.77081985  0.09068943  0.74594304  1
  Te  Te93  1  0.71245212  0.35391000  0.12450432  1
  Te  Te94  1  0.74806386  0.39089076  0.40938339  1
  Te  Te95  1  0.74573601  0.40770551  0.74500984  1
  Te  Te96  1  0.76575647  0.74276285  0.08118987  1
  Te  Te97  1  0.75301078  0.76257996  0.42221605  1
  Te  Te98  1  0.70931535  0.76397598  0.74377422  1
  Te  Te99  1  0.07557378  0.24594677  0.25026077  1
  Te  Te100  1  0.07828462  0.22796373  0.61635248  1
  Te  Te101  1  0.06944701  0.23229143  0.91053280  1
  Te  Te102  1  0.06259253  0.60034114  0.26996597  1
  Te  Te103  1  0.05154912  0.59885883  0.58350745  1
  Te  Te104  1  0.03818942  0.60320175  0.92553370  1
  Te  Te105  1  0.08111993  0.92080217  0.23011035  1
  Te  Te106  1  0.09717027  0.92824664  0.59001521  1
  Te  Te107  1  0.08733315  0.92440912  0.90943447  1
  Te  Te108  1  0.45399403  0.24312564  0.25673835  1
  Te  Te109  1  0.41646186  0.25722880  0.60097658  1
  Te  Te110  1  0.41920569  0.25468488  0.92227851  1
  Te  Te111  1  0.41048613  0.59375473  0.22534535  1
  Te  Te112  1  0.40285336  0.58472014  0.58024729  1
  Te  Te113  1  0.42717900  0.56515683  0.90901568  1
  Te  Te114  1  0.42468860  0.92185310  0.23407207  1
  Te  Te115  1  0.46837946  0.94121269  0.59063726  1
  Te  Te116  1  0.48923581  0.94826323  0.87702695  1
  Te  Te117  1  0.74736843  0.23355858  0.21930244  1
  Te  Te118  1  0.74579907  0.22725729  0.59065700  1
  Te  Te119  1  0.74053596  0.23463221  0.89632298  1
  Te  Te120  1  0.74492423  0.58100335  0.24768781  1
  Te  Te121  1  0.73373102  0.57466978  0.56913999  1
  Te  Te122  1  0.76242891  0.58826086  0.93877505  1
  Te  Te123  1  0.72104267  0.93900541  0.27627689  1
  Te  Te124  1  0.77205901  0.91661826  0.59239400  1
  Te  Te125  1  0.73519847  0.92801118  0.89101795  1
  Te  Te126  1  0.27591373  0.24162305  0.08773663  1
  Te  Te127  1  0.25604116  0.24897624  0.44267952  1
  Te  Te128  1  0.23947501  0.22398168  0.76047647  1
  Te  Te129  1  0.23485322  0.58105582  0.07361351  1
  Te  Te130  1  0.25699695  0.57305677  0.40504395  1
  Te  Te131  1  0.22263390  0.58272525  0.73977411  1
  Te  Te132  1  0.25877265  0.89808481  0.06672102  1
  Te  Te133  1  0.25607632  0.93826600  0.41100056  1
  Te  Te134  1  0.26424398  0.90552596  0.76025731  1
  Te  Te135  1  0.62912509  0.21995595  0.11267296  1
  Te  Te136  1  0.62160811  0.27983075  0.41090659  1
  Te  Te137  1  0.57780465  0.24929861  0.75618643  1
  Te  Te138  1  0.61562394  0.58821509  0.07857607  1
  Te  Te139  1  0.56705867  0.60089002  0.42725883  1
  Te  Te140  1  0.59033046  0.58083394  0.74008714  1
  Te  Te141  1  0.60542547  0.90424070  0.06886087  1
  Te  Te142  1  0.54450289  0.94433225  0.45853469  1
  Te  Te143  1  0.54898384  0.94645339  0.73321053  1
  Te  Te144  1  0.91681675  0.27044627  0.08861614  1
  Te  Te145  1  0.92638974  0.23231726  0.44126421  1
  Te  Te146  1  0.94141508  0.23414023  0.72701533  1
  Te  Te147  1  0.92556297  0.53251373  0.11315337  1
  Te  Te148  1  0.88489791  0.57668762  0.41216536  1
  Te  Te149  1  0.89020976  0.59745628  0.75396549  1
  Te  Te150  1  0.88390497  0.93789514  0.09742789  1
  Te  Te151  1  0.93871571  0.91723633  0.42763715  1
  Te  Te152  1  0.92954523  0.87122018  0.76336546  1
  Te  Te153  1  0.25461454  0.09584090  0.25804168  1
  Te  Te154  1  0.21006396  0.04788235  0.58677539  1
  Te  Te155  1  0.25906255  0.06321239  0.90588843  1
  Te  Te156  1  0.25358521  0.40114988  0.23110936  1
  Te  Te157  1  0.20897351  0.42947929  0.58855952  1
  Te  Te158  1  0.22700401  0.38977459  0.91839072  1
  Te  Te159  1  0.24499980  0.73607583  0.23546917  1
  Te  Te160  1  0.26686352  0.75223656  0.56705873  1
  Te  Te161  1  0.26850831  0.73905915  0.90813000  1
  Te  Te162  1  0.60216014  0.06222696  0.25496899  1
  Te  Te163  1  0.62701977  0.10957084  0.56855837  1
  Te  Te164  1  0.57498118  0.08822927  0.90094823  1
  Te  Te165  1  0.60048365  0.42035178  0.23990599  1
  Te  Te166  1  0.56718710  0.42534820  0.57121333  1
  Te  Te167  1  0.60929024  0.40113688  0.92699229  1
  Te  Te168  1  0.57633477  0.76832966  0.26055717  1
  Te  Te169  1  0.61006863  0.76082481  0.60617180  1
  Te  Te170  1  0.63772699  0.76360646  0.87534107  1
  Te  Te171  1  0.91744984  0.08089459  0.27869746  1
  Te  Te172  1  0.91077773  0.06892828  0.64544641  1
  Te  Te173  1  0.91440171  0.09116532  0.91742594  1
  Te  Te174  1  0.90835767  0.43440669  0.23353258  1
  Te  Te175  1  0.93141143  0.41086129  0.59150740  1
  Te  Te176  1  0.87630675  0.40911581  0.92720676  1
  Te  Te177  1  0.91659760  0.76633271  0.24845339  1
  Te  Te178  1  0.89488981  0.76734109  0.62408899  1
  Te  Te179  1  0.91157250  0.78477663  0.88729460  1
