# generated using pymatgen
data_In2Te3
_symmetry_space_group_name_H-M   'P 1'
_cell_length_a   18.77937120
_cell_length_b   18.77051263
_cell_length_c   18.77664367
_cell_angle_alpha   89.91076943
_cell_angle_beta   89.95919180
_cell_angle_gamma   89.93447848
_symmetry_Int_Tables_number   1
_chemical_formula_structural   In2Te3
_chemical_formula_sum   'In72 Te108'
_cell_volume   6618.72328374
_cell_formula_units_Z   36
loop_
 _symmetry_equiv_pos_site_id
 _symmetry_equiv_pos_as_xyz
  1  'x, y, z'
loop_
 _atom_site_type_symbol
 _atom_site_label
 _atom_site_symmetry_multiplicity
 _atom_site_fract_x
 _atom_site_fract_y
 _atom_site_fract_z
 _atom_site_occupancy
  In  In0  1  0.31417718  -0.03560508  0.01794375  1
  In  In1  1  0.33915535  0.49737497  0.16325605  1
  In  In2  1  0.36491319  0.54667586  0.86727656  1
  In  In3  1  0.80563931  -0.00249462  0.83396860  1
  In  In4  1  0.32390558  0.84849056  0.49558709  1
  In  In5  1  0.65537193  0.35636193  0.00610421  1
  In  In6  1  0.16026107  0.32478675  0.87444122  1
  In  In7  1  0.14935272  0.13769933  0.04470523  1
  In  In8  1  0.17667624  0.67042752  0.16126636  1
  In  In9  1  0.34802691  0.00648039  0.65934921  1
  In  In10  1  0.16292974  0.50375729  0.67480791  1
  In  In11  1  0.47773050  0.86252127  0.30419275  1
  In  In12  1  -0.00288317  0.48954393  0.49500606  1
  In  In13  1  0.00348904  0.33111353  0.00723162  1
  In  In14  1  0.81287901  0.35349795  0.81882078  1
  In  In15  1  0.34558556  0.33689660  0.02345887  1
  In  In16  1  0.16413880  0.83176777  0.64968029  1
  In  In17  1  0.51109295  0.35060320  0.84465130  1
  In  In18  1  0.67173297  0.50710485  0.51755535  1
  In  In19  1  0.14398127  0.17298200  0.28788335  1
  In  In20  1  0.85558031  0.82308432  0.34071670  1
  In  In21  1  0.18292845  0.68705186  0.49058596  1
  In  In22  1  0.84632113  0.31640224  0.50376339  1
  In  In23  1  0.64693226  0.65519628  -0.01579168  1
  In  In24  1  -0.00475730  0.15848526  0.48535851  1
  In  In25  1  0.83155808  0.48853016  0.33213981  1
  In  In26  1  0.52156535  0.83131517  -0.01235005  1
  In  In27  1  0.83754049  0.00438763  0.16832328  1
  In  In28  1  0.82408868  0.17299388  0.67940227  1
  In  In29  1  0.34237881  0.32589663  0.30367367  1
  In  In30  1  0.16665377  0.00232916  0.83584273  1
  In  In31  1  0.00178776  -0.01464038  0.65993681  1
  In  In32  1  0.51046466  0.18043621  0.00500172  1
  In  In33  1  -0.02559650  0.67864906  0.66899861  1
  In  In34  1  0.35897639  0.13657962  0.46371350  1
  In  In35  1  0.82580175  0.32750424  0.16296457  1
  In  In36  1  0.67100477  0.16588176  0.83299675  1
  In  In37  1  0.63129066  0.35051073  0.31124791  1
  In  In38  1  0.16014885  0.33095894  0.47536819  1
  In  In39  1  0.33964887  0.52065504  0.49071770  1
  In  In40  1  0.83773953  0.14539761  0.00467779  1
  In  In41  1  0.66378879  0.82502664  0.15142427  1
  In  In42  1  -0.01467275  0.49284432  0.83946137  1
  In  In43  1  0.00525965  0.84998456  0.85666620  1
  In  In44  1  0.84931175  0.65344637  0.18641504  1
  In  In45  1  0.50659740  0.84349934  0.68890607  1
  In  In46  1  0.51385131  0.65662257  0.49925881  1
  In  In47  1  0.66903127  0.15869501  0.50139426  1
  In  In48  1  0.32031681  0.66572299  0.33651119  1
  In  In49  1  0.35576373  0.81351700  0.83609438  1
  In  In50  1  0.16969135  0.49233043  0.02386812  1
  In  In51  1  0.78132907  0.67679629  0.80978890  1
  In  In52  1  0.67092180  0.64564505  0.33595131  1
  In  In53  1  0.82581363  0.67525014  0.52223025  1
  In  In54  1  0.18890067  0.67583135  0.84936744  1
  In  In55  1  0.00264184  -0.01568982  0.32466622  1
  In  In56  1  0.82662725  0.17395246  0.35290650  1
  In  In57  1  0.51173002  0.16767822  0.65136608  1
  In  In58  1  0.50665938  0.33788615  0.51091881  1
  In  In59  1  0.33724753  0.14669927  0.80892107  1
  In  In60  1  0.17062955  0.14254406  0.66533308  1
  In  In61  1  0.84674365  0.83968389  -0.00247561  1
  In  In62  1  0.16840139  0.82486878  0.32237373  1
  In  In63  1  0.65226717  0.02359901  0.31935083  1
  In  In64  1  -0.03554708  0.32729103  0.66102266  1
  In  In65  1  0.67396879  -0.00898397  0.01326026  1
  In  In66  1  0.01261425  0.67534931  0.31580891  1
  In  In67  1  0.48429571  0.66735793  0.14882177  1
  In  In68  1  0.66491439  0.86168016  0.52618870  1
  In  In69  1  -0.00442057  0.66884871  0.02023061  1
  In  In70  1  0.35132599  0.35047228  0.68236351  1
  In  In71  1  0.33672425  0.16465774  0.16458772  1
  Te  Te72  1  0.05864393  0.04681749  0.11806671  1
  Te  Te73  1  0.09436828  0.08190373  0.40197482  1
  Te  Te74  1  0.06458793  0.08626354  0.75842012  1
  Te  Te75  1  0.09149050  0.39863351  0.11135559  1
  Te  Te76  1  0.07971499  0.42289613  0.39302843  1
  Te  Te77  1  0.07405302  0.40302135  0.74978896  1
  Te  Te78  1  0.09536384  0.76140787  0.07364883  1
  Te  Te79  1  0.06993972  0.76447700  0.42595624  1
  Te  Te80  1  0.08745966  0.74920128  0.75614423  1
  Te  Te81  1  0.40987109  0.07906308  0.06175514  1
  Te  Te82  1  0.44297492  0.05378198  0.36900459  1
  Te  Te83  1  0.45280742  0.06561523  0.75419918  1
  Te  Te84  1  0.44990510  0.41628570  0.09697115  1
  Te  Te85  1  0.41243154  0.41010087  0.41443317  1
  Te  Te86  1  0.42949610  0.45235725  0.76119771  1
  Te  Te87  1  0.41940996  0.78343961  0.08421211  1
  Te  Te88  1  0.42094770  0.75350053  0.41267031  1
  Te  Te89  1  0.43832351  0.72448479  0.75013637  1
  Te  Te90  1  0.73203194  0.09709574  0.10563699  1
  Te  Te91  1  0.75786538  0.05886519  0.42588972  1
  Te  Te92  1  0.72224422  0.06900322  0.72649591  1
  Te  Te93  1  0.75552364  0.43235048  0.08478174  1
  Te  Te94  1  0.73991385  0.40066609  0.42029146  1
  Te  Te95  1  0.71024770  0.43242182  0.75049193  1
  Te  Te96  1  0.76683197  0.73689738  0.07951680  1
  Te  Te97  1  0.73591685  0.75269343  0.42276167  1
  Te  Te98  1  0.73145320  0.79427765  0.72501708  1
  Te  Te99  1  0.07143598  0.27278797  0.20776903  1
  Te  Te100  1  0.07865302  0.24928593  0.58673849  1
  Te  Te101  1  0.07125338  0.21606093  0.93260262  1
  Te  Te102  1  0.08357037  0.57872556  0.23102901  1
  Te  Te103  1  0.08033784  0.59397181  0.58151861  1
  Te  Te104  1  0.09094459  0.57237188  0.91635044  1
  Te  Te105  1  0.09799395  0.92707424  0.21804058  1
  Te  Te106  1  0.09838066  0.93032439  0.56285089  1
  Te  Te107  1  0.11055478  0.91115371  0.93850401  1
  Te  Te108  1  0.44449005  0.23461861  0.24304255  1
  Te  Te109  1  0.39266100  0.23843414  0.58428746  1
  Te  Te110  1  0.40602028  0.25145229  0.90297366  1
  Te  Te111  1  0.42177274  0.58191116  0.26169112  1
  Te  Te112  1  0.42366974  0.58385534  0.59234765  1
  Te  Te113  1  0.48209639  0.60193133  0.94188392  1
  Te  Te114  1  0.37619986  0.96174760  0.25935223  1
  Te  Te115  1  0.43562673  0.91907028  0.57087993  1
  Te  Te116  1  0.42146782  0.92657042  0.91384109  1
  Te  Te117  1  0.73273527  0.24740726  0.25778436  1
  Te  Te118  1  0.73477597  0.26211591  0.59366982  1
  Te  Te119  1  0.75259234  0.25074098  0.92945935  1
  Te  Te120  1  0.73649416  0.55698790  0.23211095  1
  Te  Te121  1  0.73657827  0.60031734  0.61970629  1
  Te  Te122  1  0.75124928  0.57734793  0.91352460  1
  Te  Te123  1  0.75169048  0.90487278  0.24963638  1
  Te  Te124  1  0.77557961  0.89741082  0.61542957  1
  Te  Te125  1  0.72730266  0.88596786  0.91360156  1
  Te  Te126  1  0.23692164  0.25932234  0.09248859  1
  Te  Te127  1  0.25349505  0.23533998  0.40139565  1
  Te  Te128  1  0.24102229  0.25471233  0.74756945  1
  Te  Te129  1  0.27360211  0.59394648  0.06436569  1
  Te  Te130  1  0.22257942  0.56925437  0.40303762  1
  Te  Te131  1  0.26454426  0.58577282  0.75196260  1
  Te  Te132  1  0.22040876  0.91116842  0.11836740  1
  Te  Te133  1  0.24810276  0.92644929  0.39577231  1
  Te  Te134  1  0.25856090  0.91561730  0.74641449  1
  Te  Te135  1  0.58933276  0.25975132  0.09935544  1
  Te  Te136  1  0.57655973  0.24345179  0.41474719  1
  Te  Te137  1  0.58799638  0.26101583  0.74701567  1
  Te  Te138  1  0.59665451  0.58014185  0.10563266  1
  Te  Te139  1  0.57457521  0.55101097  0.40613309  1
  Te  Te140  1  0.62824314  0.55844824  0.72317816  1
  Te  Te141  1  0.56547255  0.93039034  0.10321027  1
  Te  Te142  1  0.58816233  0.90946702  0.40008848  1
  Te  Te143  1  0.61960505  0.89410417  0.77050135  1
  Te  Te144  1  0.92591695  0.23040585  0.09505697  1
  Te  Te145  1  0.94144322  0.26850092  0.39470934  1
  Te  Te146  1  0.91408167  0.24373555  0.77953405  1
  Te  Te147  1  0.92575995  0.56428328  0.09534355  1
  Te  Te148  1  0.90866712  0.59737460  0.41100996  1
  Te  Te149  1  0.89580587  0.57934923  0.75233560  1
  Te  Te150  1  0.93276685  0.93667296  0.07290979  1
  Te  Te151  1  0.91072287  0.92879890  0.42649982  1
  Te  Te152  1  0.90957933  0.90905700  0.75501768  1
  Te  Te153  1  0.25079211  0.07471557  0.24887644  1
  Te  Te154  1  0.25227860  0.07147689  0.55960098  1
  Te  Te155  1  0.25141896  0.09551719  0.92535905  1
  Te  Te156  1  0.24478158  0.42016562  0.24629561  1
  Te  Te157  1  0.24725368  0.41510178  0.57936929  1
  Te  Te158  1  0.26894925  0.42793260  0.91617604  1
  Te  Te159  1  0.27633772  0.76477261  0.22940424  1
  Te  Te160  1  0.27599321  0.74109432  0.59696141  1
  Te  Te161  1  0.26813905  0.75808160  0.94162930  1
  Te  Te162  1  0.54059487  0.09539246  0.25262919  1
  Te  Te163  1  0.57741509  0.06349764  0.56934494  1
  Te  Te164  1  0.58457369  0.07578806  0.92010656  1
  Te  Te165  1  0.55426190  0.42939821  0.21371865  1
  Te  Te166  1  0.57273495  0.43361186  0.60555600  1
  Te  Te167  1  0.57500938  0.45708255  0.92741199  1
  Te  Te168  1  0.58276474  0.74469615  0.25485427  1
  Te  Te169  1  0.58822749  0.74801517  0.59460179  1
  Te  Te170  1  0.56091510  0.72715492  0.88158925  1
  Te  Te171  1  0.91892441  0.09650475  0.25831670  1
  Te  Te172  1  0.90800494  0.08537849  0.58544618  1
  Te  Te173  1  0.91425822  0.05296138  0.91829783  1
  Te  Te174  1  0.92022898  0.40749782  0.24717712  1
  Te  Te175  1  0.88874028  0.43885118  0.59013736  1
  Te  Te176  1  0.89764540  0.41374153  0.93431622  1
  Te  Te177  1  0.93817862  0.77297296  0.22340631  1
  Te  Te178  1  0.91841999  0.77813061  0.57494830  1
  Te  Te179  1  0.91302228  0.73351936  0.90221911  1
