# generated using pymatgen
data_In2Te3
_symmetry_space_group_name_H-M   'P 1'
_cell_length_a   18.89284426
_cell_length_b   18.89243849
_cell_length_c   18.88694489
_cell_angle_alpha   90.03684033
_cell_angle_beta   89.87082759
_cell_angle_gamma   89.95889041
_symmetry_Int_Tables_number   1
_chemical_formula_structural   In2Te3
_chemical_formula_sum   'In72 Te108'
_cell_volume   6741.33281707
_cell_formula_units_Z   36
loop_
 _symmetry_equiv_pos_site_id
 _symmetry_equiv_pos_as_xyz
  1  'x, y, z'
loop_
 _atom_site_type_symbol
 _atom_site_label
 _atom_site_symmetry_multiplicity
 _atom_site_fract_x
 _atom_site_fract_y
 _atom_site_fract_z
 _atom_site_occupancy
  In  In0  1  0.50184671  -0.00074784  0.15640517  1
  In  In1  1  0.48925417  0.66042550  0.84241719  1
  In  In2  1  0.35443176  0.45956966  0.14414090  1
  In  In3  1  0.67209194  0.34538358  0.64135369  1
  In  In4  1  -0.01417444  0.66031683  0.34851764  1
  In  In5  1  0.64625114  0.19880313  0.12665540  1
  In  In6  1  0.33104079  0.50193308  0.85132808  1
  In  In7  1  0.00402836  0.85282865  0.82453682  1
  In  In8  1  0.52065708  0.49682146  0.66806105  1
  In  In9  1  0.66328980  0.82790670  0.49493017  1
  In  In10  1  0.66671844  0.01104415  -0.01828222  1
  In  In11  1  0.02953871  0.01988838  0.67656279  1
  In  In12  1  0.16352630  0.19002416  0.33856123  1
  In  In13  1  0.51277173  0.35152897  0.84598689  1
  In  In14  1  0.15458856  0.66859020  0.15911435  1
  In  In15  1  -0.00472684  0.45251385  0.85708357  1
  In  In16  1  0.00498334  0.49042319  0.17046351  1
  In  In17  1  0.86066620  0.49125010  0.67636145  1
  In  In18  1  0.86718577  0.16670787  -0.01128554  1
  In  In19  1  0.16372304  0.33581997  0.17530193  1
  In  In20  1  0.18163633  0.84749289  0.32924681  1
  In  In21  1  -0.03722980  0.80078010  0.53255428  1
  In  In22  1  0.14153012  0.64718878  0.50558466  1
  In  In23  1  0.66561274  0.33826720  0.33441659  1
  In  In24  1  0.46917528  0.00957183  0.50532062  1
  In  In25  1  0.31278423  0.64589933  0.34485473  1
  In  In26  1  0.02388432  0.01592608  0.34155798  1
  In  In27  1  0.17422013  0.84687173  0.65043078  1
  In  In28  1  0.51632172  0.85700840  0.31830963  1
  In  In29  1  0.68137590  0.50216503  0.50817220  1
  In  In30  1  0.84211310  -0.00401786  0.16966503  1
  In  In31  1  0.86200147  0.20138553  0.69586726  1
  In  In32  1  0.51065858  0.69476196  0.51393656  1
  In  In33  1  0.68610515  0.83967187  0.15901166  1
  In  In34  1  0.66887998  0.48680878  0.84774685  1
  In  In35  1  -0.00822658  0.66403425  0.00672197  1
  In  In36  1  0.84833806  0.00591651  0.48334220  1
  In  In37  1  0.31485949  0.64067786  0.68198238  1
  In  In38  1  0.83410146  0.84721620  0.00744954  1
  In  In39  1  0.50536320  0.48212307  0.32490411  1
  In  In40  1  -0.00062752  0.48821413  0.50616044  1
  In  In41  1  0.52425446  0.84902303  0.66387059  1
  In  In42  1  0.66209377  -0.01982836  0.68363114  1
  In  In43  1  0.34900934  0.65120998  0.00636026  1
  In  In44  1  0.16203467  0.01939880  0.13994733  1
  In  In45  1  0.33566986  0.18273562  0.16932221  1
  In  In46  1  0.18250545  0.45399122  -0.00991419  1
  In  In47  1  0.34932655  0.00758132  0.34698745  1
  In  In48  1  0.84109615  0.19386483  0.34882678  1
  In  In49  1  0.84193442  0.63482515  0.17876684  1
  In  In50  1  0.34157829  0.46949864  0.50043014  1
  In  In51  1  0.13406685  0.17810870  -0.01974960  1
  In  In52  1  0.67414844  0.16930436  0.52377852  1
  In  In53  1  0.50053776  0.16502898  0.32113601  1
  In  In54  1  0.33255415  0.84272924  0.48186665  1
  In  In55  1  0.83554648  0.81316878  0.31815313  1
  In  In56  1  -0.00883283  0.20450561  0.51534244  1
  In  In57  1  0.50432511  0.65471627  0.14690560  1
  In  In58  1  0.28556035  0.07194320  0.68486555  1
  In  In59  1  0.82317751  0.34607939  0.13323954  1
  In  In60  1  0.29898724  0.31557489  0.67879818  1
  In  In61  1  0.65489404  0.63860143  -0.01053702  1
  In  In62  1  0.67245547  0.17980491  0.85691600  1
  In  In63  1  0.14476955  0.67802141  0.83538476  1
  In  In64  1  0.47028531  0.18062588  0.68559818  1
  In  In65  1  0.15119518  0.33282247  0.50734250  1
  In  In66  1  0.17019427  0.85478788  -0.03795838  1
  In  In67  1  0.68723327  0.64514787  0.32729695  1
  In  In68  1  0.82404384  0.66680507  0.80054996  1
  In  In69  1  0.33354931  0.85897262  0.81788715  1
  In  In70  1  0.31838463  0.00203277  -0.00937545  1
  In  In71  1  0.83524574  0.01227031  0.83613548  1
  Te  Te72  1  0.06132996  0.11575144  0.09418965  1
  Te  Te73  1  0.08704428  0.10453297  0.44738968  1
  Te  Te74  1  0.09674612  0.14009456  0.73130874  1
  Te  Te75  1  0.06672886  0.39562856  0.06794627  1
  Te  Te76  1  0.07174960  0.40454797  0.40405819  1
  Te  Te77  1  0.08609911  0.37787608  0.76794392  1
  Te  Te78  1  0.09047854  0.76544480  0.06217894  1
  Te  Te79  1  0.08932264  0.75819281  0.41508587  1
  Te  Te80  1  0.07519314  0.75700849  0.72714364  1
  Te  Te81  1  0.41157606  0.08941095  0.07599325  1
  Te  Te82  1  0.40055950  0.12229130  0.43185287  1
  Te  Te83  1  0.41628343  0.06566236  0.75585731  1
  Te  Te84  1  0.42102970  0.36407925  0.05125803  1
  Te  Te85  1  0.40738470  0.39310190  0.39217157  1
  Te  Te86  1  0.41395933  0.42084156  0.74413228  1
  Te  Te87  1  0.43043092  0.75477307  0.07094818  1
  Te  Te88  1  0.42207951  0.75265427  0.39670817  1
  Te  Te89  1  0.41198874  0.74332404  0.73866661  1
  Te  Te90  1  0.75754118  0.08662139  0.07706454  1
  Te  Te91  1  0.74551412  0.09223845  0.41288663  1
  Te  Te92  1  0.74782204  0.10141004  0.74217091  1
  Te  Te93  1  0.70324463  0.41640638  0.08020300  1
  Te  Te94  1  0.75704314  0.40505924  0.42827335  1
  Te  Te95  1  0.75478862  0.40704684  0.75158653  1
  Te  Te96  1  0.76053870  0.73050843  0.08463782  1
  Te  Te97  1  0.76257226  0.73400222  0.42549310  1
  Te  Te98  1  0.78908206  0.78836853  0.72689469  1
  Te  Te99  1  0.06596203  0.25127384  0.24809575  1
  Te  Te100  1  0.08709210  0.24909173  0.62376141  1
  Te  Te101  1  0.07286505  0.28320696  0.88539639  1
  Te  Te102  1  0.08566796  0.58124647  0.26241185  1
  Te  Te103  1  0.06411754  0.57740069  0.60646633  1
  Te  Te104  1  0.09720795  0.57645814  0.93898528  1
  Te  Te105  1  0.08620072  0.92225466  0.23872779  1
  Te  Te106  1  0.06131762  0.91245569  0.57260682  1
  Te  Te107  1  0.07397898  0.95368455  0.90901169  1
  Te  Te108  1  0.42052617  0.26915581  0.25282437  1
  Te  Te109  1  0.40119055  0.26254206  0.58723424  1
  Te  Te110  1  0.40990131  0.27466347  0.92013008  1
  Te  Te111  1  0.40957480  0.58054021  0.24218564  1
  Te  Te112  1  0.42016170  0.58734447  0.57626775  1
  Te  Te113  1  0.44425075  0.55183763  0.94047429  1
  Te  Te114  1  0.40275986  0.91475508  0.23772821  1
  Te  Te115  1  0.40141833  0.91156163  0.59895743  1
  Te  Te116  1  0.41331272  0.90393567  0.93126363  1
  Te  Te117  1  0.75045242  0.24361390  0.23485695  1
  Te  Te118  1  0.78167271  0.26210224  0.57683399  1
  Te  Te119  1  0.76563140  0.26628421  0.93460053  1
  Te  Te120  1  0.76867285  0.53852689  0.26467996  1
  Te  Te121  1  0.76368270  0.58124724  0.60328848  1
  Te  Te122  1  0.77200452  0.57707779  0.91434320  1
  Te  Te123  1  0.74575996  0.92531405  0.26818656  1
  Te  Te124  1  0.75266282  0.92491691  0.57242480  1
  Te  Te125  1  0.74574936  0.90744428  0.90069301  1
  Te  Te126  1  0.23749678  0.24699215  0.07642180  1
  Te  Te127  1  0.25345251  0.27268802  0.41976503  1
  Te  Te128  1  0.24795492  0.20001608  0.76083827  1
  Te  Te129  1  0.24666077  0.56805251  0.08489236  1
  Te  Te130  1  0.23126199  0.55137888  0.42689926  1
  Te  Te131  1  0.21637458  0.56243107  0.76345427  1
  Te  Te132  1  0.24662747  0.90572204  0.08404887  1
  Te  Te133  1  0.23159711  0.95151200  0.43984779  1
  Te  Te134  1  0.22330795  0.94101597  0.75715912  1
  Te  Te135  1  0.53071309  0.25168932  0.05162472  1
  Te  Te136  1  0.58536026  0.24249711  0.42362078  1
  Te  Te137  1  0.59310233  0.26295663  0.74354589  1
  Te  Te138  1  0.60994198  0.55858837  0.10716485  1
  Te  Te139  1  0.57686416  0.58961194  0.41849480  1
  Te  Te140  1  0.59840148  0.58816799  0.75718560  1
  Te  Te141  1  0.58850323  0.90912474  0.06860519  1
  Te  Te142  1  0.58039079  0.93885260  0.42555102  1
  Te  Te143  1  0.57163859  0.91935765  0.78284956  1
  Te  Te144  1  0.93225839  0.25503656  0.08746965  1
  Te  Te145  1  0.94873094  0.28539940  0.39796492  1
  Te  Te146  1  0.93247747  0.27908638  0.80519819  1
  Te  Te147  1  0.90808361  0.55380240  0.06790691  1
  Te  Te148  1  0.90321128  0.57291773  0.42934463  1
  Te  Te149  1  0.94285061  0.57158750  0.77758714  1
  Te  Te150  1  0.93362423  0.92510795  0.07963671  1
  Te  Te151  1  0.92792794  0.90262416  0.40382543  1
  Te  Te152  1  0.91329671  0.93126574  0.73138093  1
  Te  Te153  1  0.24868302  0.08058210  0.25602648  1
  Te  Te154  1  0.22966846  0.06289046  0.55109354  1
  Te  Te155  1  0.24088456  0.10035903  0.91122539  1
  Te  Te156  1  0.25216644  0.43109224  0.24414264  1
  Te  Te157  1  0.23538156  0.42767472  0.60019292  1
  Te  Te158  1  0.26923198  0.37447165  0.89895438  1
  Te  Te159  1  0.25655120  0.74545526  0.24343479  1
  Te  Te160  1  0.25649598  0.73722276  0.57054095  1
  Te  Te161  1  0.26542169  0.73881936  0.90513818  1
  Te  Te162  1  0.59647706  0.08985733  0.23013675  1
  Te  Te163  1  0.57413632  0.07967401  0.59592442  1
  Te  Te164  1  0.56761332  0.09703460  0.91630906  1
  Te  Te165  1  0.58216410  0.40035436  0.22858801  1
  Te  Te166  1  0.56576417  0.40830234  0.55411222  1
  Te  Te167  1  0.61508680  0.39153537  0.95283266  1
  Te  Te168  1  0.59707476  0.74604074  0.25173299  1
  Te  Te169  1  0.61603702  0.73899183  0.61256724  1
  Te  Te170  1  0.59444963  0.74143155  0.90541460  1
  Te  Te171  1  0.91786002  0.09048892  0.26302306  1
  Te  Te172  1  0.91257987  0.09025932  0.59233863  1
  Te  Te173  1  0.95007906  0.07873278  0.90115143  1
  Te  Te174  1  0.89525349  0.42045583  0.24171711  1
  Te  Te175  1  0.93363397  0.39090308  0.59797391  1
  Te  Te176  1  0.87787050  0.37959979  0.91174769  1
  Te  Te177  1  0.93575872  0.74395897  0.22808656  1
  Te  Te178  1  0.86964138  0.71972575  0.61820208  1
  Te  Te179  1  0.91760342  0.75410796  0.90804008  1
