# generated using pymatgen
data_In2Te3
_symmetry_space_group_name_H-M   'P 1'
_cell_length_a   18.99986283
_cell_length_b   18.98656115
_cell_length_c   19.02147932
_cell_angle_alpha   90.19965732
_cell_angle_beta   89.91257823
_cell_angle_gamma   89.91254034
_symmetry_Int_Tables_number   1
_chemical_formula_structural   In2Te3
_chemical_formula_sum   'In72 Te108'
_cell_volume   6861.78988734
_cell_formula_units_Z   36
loop_
 _symmetry_equiv_pos_site_id
 _symmetry_equiv_pos_as_xyz
  1  'x, y, z'
loop_
 _atom_site_type_symbol
 _atom_site_label
 _atom_site_symmetry_multiplicity
 _atom_site_fract_x
 _atom_site_fract_y
 _atom_site_fract_z
 _atom_site_occupancy
  In  In0  1  0.52306399  0.64296361  0.51636708  1
  In  In1  1  0.16806372  0.70583947  0.17843720  1
  In  In2  1  0.52894100  0.00051888  0.82086068  1
  In  In3  1  -0.01620405  0.85401712  0.15998071  1
  In  In4  1  0.66771322  0.64886762  -0.00654365  1
  In  In5  1  0.33861374  0.16303972  0.83729585  1
  In  In6  1  0.15824038  0.00673372  0.84419993  1
  In  In7  1  0.82820410  0.35006457  0.50252135  1
  In  In8  1  -0.01286887  0.17129620  0.81580489  1
  In  In9  1  0.12092123  -0.01281176  0.52493794  1
  In  In10  1  0.19513026  0.33506467  0.82658537  1
  In  In11  1  0.68165002  0.47195192  0.82703915  1
  In  In12  1  0.47466945  0.71002999  0.16184171  1
  In  In13  1  0.47350731  -0.03026353  0.18400481  1
  In  In14  1  0.31224171  0.50826353  0.49095651  1
  In  In15  1  0.34669927  0.16788684  0.17159713  1
  In  In16  1  0.50091455  -0.00274789  0.50204140  1
  In  In17  1  0.15890025  0.49140271  0.69063571  1
  In  In18  1  -0.00444153  0.29366204  0.00435585  1
  In  In19  1  0.82540426  0.80920774  0.66519341  1
  In  In20  1  0.48782083  0.83045946  -0.02334109  1
  In  In21  1  0.84259454  0.50925301  0.64533255  1
  In  In22  1  0.50426947  0.64456190  0.82300475  1
  In  In23  1  0.16404725  0.51588533  -0.00095770  1
  In  In24  1  -0.02012086  0.35814393  0.33735271  1
  In  In25  1  0.33732508  0.85941383  0.50068967  1
  In  In26  1  0.75914096  0.14246835  0.14819093  1
  In  In27  1  0.64596273  0.81299766  0.52369125  1
  In  In28  1  0.16904800  0.70087908  0.49920353  1
  In  In29  1  0.16316522  0.32571255  0.53429314  1
  In  In30  1  0.81723332  -0.00181728  0.84322265  1
  In  In31  1  0.84109487  0.67005739  0.82335593  1
  In  In32  1  0.15151737  0.51671381  0.31546470  1
  In  In33  1  0.01655552  0.32349931  0.68730075  1
  In  In34  1  0.87193419  0.00982367  0.52578532  1
  In  In35  1  0.83679192  0.66018234  0.15159886  1
  In  In36  1  0.67605448  0.04020733  0.33562505  1
  In  In37  1  0.16209201  -0.03863289  0.13490732  1
  In  In38  1  0.64261820  0.65828945  0.33494131  1
  In  In39  1  0.53490056  0.31924575  0.14129309  1
  In  In40  1  0.31569130  0.82216529  0.82596489  1
  In  In41  1  -0.01140974  -0.01045263  -0.00906672  1
  In  In42  1  0.67396549  0.18254261  0.50303858  1
  In  In43  1  0.50389936  0.15705514  0.00584647  1
  In  In44  1  0.47927836  0.84334612  0.34741249  1
  In  In45  1  -0.02803791  0.67916145  -0.00783409  1
  In  In46  1  0.56800547  0.32159124  0.60253452  1
  In  In47  1  0.34895792  0.00649362  0.66879694  1
  In  In48  1  0.79355025  0.83670041  0.33955087  1
  In  In49  1  0.51119441  0.32902631  0.83072156  1
  In  In50  1  0.32596018  0.65759085  0.66624175  1
  In  In51  1  0.35824779  0.48826481  0.83494522  1
  In  In52  1  0.16823054  0.16044868  0.02146263  1
  In  In53  1  0.83540820  0.32617174  0.17037166  1
  In  In54  1  -0.02733349  0.01011891  0.30344052  1
  In  In55  1  0.16312366  0.16847558  0.36498781  1
  In  In56  1  0.32222976  0.01086880  0.33348458  1
  In  In57  1  0.34572188  0.52903737  0.15681935  1
  In  In58  1  0.51722144  0.18957421  0.37899154  1
  In  In59  1  0.67794598  0.00259198  0.67223995  1
  In  In60  1  0.12361302  0.69526895  0.81074641  1
  In  In61  1  -0.00937943  0.68724421  0.64614647  1
  In  In62  1  0.01395016  0.68028147  0.33247583  1
  In  In63  1  0.14948085  0.14156625  0.68617170  1
  In  In64  1  0.51328067  0.49622887  -0.01122309  1
  In  In65  1  0.14998936  0.32025159  0.16090141  1
  In  In66  1  0.00608762  0.52534069  0.48179877  1
  In  In67  1  0.70423625  0.20064588  0.83958445  1
  In  In68  1  0.66960555  0.84612380  0.13584957  1
  In  In69  1  0.68103768  0.49186363  0.13629066  1
  In  In70  1  0.30634579  0.31836470  0.32249606  1
  In  In71  1  0.49014758  0.49110400  0.29453757  1
  Te  Te72  1  0.07108417  0.07388943  0.09487997  1
  Te  Te73  1  0.05860610  0.07359438  0.41609075  1
  Te  Te74  1  0.04266682  0.04369102  0.74085376  1
  Te  Te75  1  0.07572849  0.40998124  0.06568770  1
  Te  Te76  1  0.11061498  0.41842677  0.42650861  1
  Te  Te77  1  0.07368721  0.41863806  0.79223243  1
  Te  Te78  1  0.06817071  0.76157404  0.07683471  1
  Te  Te79  1  0.06361260  0.77902854  0.43178807  1
  Te  Te80  1  0.07584997  0.79373489  0.70907893  1
  Te  Te81  1  0.40896461  0.06464996  0.08172475  1
  Te  Te82  1  0.40611013  0.08856457  0.42981733  1
  Te  Te83  1  0.43928878  0.10223262  0.74231442  1
  Te  Te84  1  0.43101713  0.41930572  0.09102773  1
  Te  Te85  1  0.39086234  0.42471951  0.39144845  1
  Te  Te86  1  0.41185583  0.38933831  0.74157553  1
  Te  Te87  1  0.38065447  0.77930093  0.06942393  1
  Te  Te88  1  0.42848408  0.74703940  0.44946567  1
  Te  Te89  1  0.42128470  0.74429154  0.74573291  1
  Te  Te90  1  0.75693870  0.02945830  0.04269674  1
  Te  Te91  1  0.77517055  0.09121487  0.43481673  1
  Te  Te92  1  0.76923601  0.09942498  0.74174007  1
  Te  Te93  1  0.75989373  0.39347124  0.05868146  1
  Te  Te94  1  0.78720411  0.47208062  0.43232873  1
  Te  Te95  1  0.78373392  0.41031753  0.73935721  1
  Te  Te96  1  0.75830947  0.75240983  0.05780701  1
  Te  Te97  1  0.73496301  0.73022414  0.43090307  1
  Te  Te98  1  0.73730580  0.70521314  0.72447171  1
  Te  Te99  1  0.07775873  0.25330301  0.27227756  1
  Te  Te100  1  0.06646295  0.22116137  0.58459314  1
  Te  Te101  1  0.10470115  0.23197132  0.90259284  1
  Te  Te102  1  0.06710314  0.59341825  0.21985779  1
  Te  Te103  1  0.10661225  0.58934108  0.58756157  1
  Te  Te104  1  0.06907727  0.59302519  0.91065133  1
  Te  Te105  1  0.08522073  0.91425110  0.25445114  1
  Te  Te106  1  0.04714519  0.87051919  0.57551976  1
  Te  Te107  1  0.08687917  0.90603229  0.92131543  1
  Te  Te108  1  0.43231627  0.25876890  0.25802084  1
  Te  Te109  1  0.47067382  0.25333693  0.51286292  1
  Te  Te110  1  0.41883433  0.25438374  0.92755361  1
  Te  Te111  1  0.40904855  0.61693549  0.26256771  1
  Te  Te112  1  0.41475215  0.56265732  0.58857303  1
  Te  Te113  1  0.41271071  0.59405673  0.93197473  1
  Te  Te114  1  0.35926884  0.88173833  0.25693432  1
  Te  Te115  1  0.44141736  0.90440533  0.60452721  1
  Te  Te116  1  0.41453567  0.92593880  0.88562771  1
  Te  Te117  1  0.75301083  0.23950373  0.25828636  1
  Te  Te118  1  0.76750624  0.25170394  0.59146517  1
  Te  Te119  1  0.77495214  0.25974176  0.95806254  1
  Te  Te120  1  0.73851244  0.58620185  0.24082403  1
  Te  Te121  1  0.73192872  0.54699178  0.55108583  1
  Te  Te122  1  0.76423345  0.56909166  0.90986050  1
  Te  Te123  1  0.73538277  0.93618448  0.24157770  1
  Te  Te124  1  0.75422292  0.91690210  0.56974255  1
  Te  Te125  1  0.73312537  0.92651118  0.93978799  1
  Te  Te126  1  0.26514983  0.25971345  0.08238231  1
  Te  Te127  1  0.26194796  0.24619486  0.44868494  1
  Te  Te128  1  0.25912722  0.23699192  0.73041466  1
  Te  Te129  1  0.24697620  0.61226294  0.08106462  1
  Te  Te130  1  0.23895316  0.60625031  0.40210785  1
  Te  Te131  1  0.24822379  0.58264388  0.77361978  1
  Te  Te132  1  0.27123633  0.89088654  0.07436477  1
  Te  Te133  1  0.23090249  0.93476385  0.42689191  1
  Te  Te134  1  0.24376740  0.92884644  0.74450067  1
  Te  Te135  1  0.60975045  0.19569492  0.10615302  1
  Te  Te136  1  0.60450673  0.30371195  0.43812298  1
  Te  Te137  1  0.60380167  0.25650316  0.73645566  1
  Te  Te138  1  0.56629193  0.60050583  0.09654351  1
  Te  Te139  1  0.57422621  0.54678659  0.40931538  1
  Te  Te140  1  0.57064697  0.53446542  0.74665138  1
  Te  Te141  1  0.56333415  0.92792716  0.06701742  1
  Te  Te142  1  0.59768174  0.91755868  0.41678194  1
  Te  Te143  1  0.61982144  0.90287045  0.76073916  1
  Te  Te144  1  0.93020802  0.22085509  0.11503916  1
  Te  Te145  1  0.92129488  0.26287601  0.42867098  1
  Te  Te146  1  0.89476329  0.27207905  0.75589850  1
  Te  Te147  1  0.89877888  0.56910172  0.05618872  1
  Te  Te148  1  0.91188469  0.58771473  0.38878760  1
  Te  Te149  1  0.93486539  0.58417669  0.74022424  1
  Te  Te150  1  0.88465379  0.93259965  0.08238473  1
  Te  Te151  1  0.90188303  0.92059875  0.40373397  1
  Te  Te152  1  0.89268316  0.89075723  0.76991744  1
  Te  Te153  1  0.23484641  0.09878867  0.24673683  1
  Te  Te154  1  0.23768053  0.06849065  0.58638189  1
  Te  Te155  1  0.25918129  0.07660738  0.93263039  1
  Te  Te156  1  0.24425693  0.43011529  0.22868379  1
  Te  Te157  1  0.26019367  0.41861213  0.60367621  1
  Te  Te158  1  0.26261183  0.41968182  0.93204538  1
  Te  Te159  1  0.25740201  0.76521466  0.27418561  1
  Te  Te160  1  0.25627768  0.77343532  0.59761340  1
  Te  Te161  1  0.21934524  0.74856081  0.90682242  1
  Te  Te162  1  0.54315873  0.07242673  0.27395067  1
  Te  Te163  1  0.58687132  0.08686635  0.58596108  1
  Te  Te164  1  0.60193930  0.10480565  0.90303552  1
  Te  Te165  1  0.60642954  0.40843912  0.23951299  1
  Te  Te166  1  0.61415177  0.46109077  0.61267814  1
  Te  Te167  1  0.60473466  0.39096996  0.93272115  1
  Te  Te168  1  0.58499942  0.77411653  0.24724808  1
  Te  Te169  1  0.60089989  0.71277575  0.62136123  1
  Te  Te170  1  0.58834314  0.74125228  0.90395076  1
  Te  Te171  1  0.88624516  0.10397871  0.22885362  1
  Te  Te172  1  0.95128366  0.08546332  0.62127933  1
  Te  Te173  1  0.90917431  0.09708265  0.91905506  1
  Te  Te174  1  0.91238296  0.43387757  0.23531226  1
  Te  Te175  1  0.95936461  0.42509233  0.58419926  1
  Te  Te176  1  0.89023818  0.34481987  0.91458730  1
  Te  Te177  1  0.89743366  0.76414172  0.25087907  1
  Te  Te178  1  0.89111112  0.73809542  0.55374828  1
  Te  Te179  1  0.91973499  0.77524777  0.89132841  1
