# generated using pymatgen
data_In2Te3
_symmetry_space_group_name_H-M   'P 1'
_cell_length_a   18.92840348
_cell_length_b   18.94496395
_cell_length_c   18.93296225
_cell_angle_alpha   90.20718773
_cell_angle_beta   90.05460105
_cell_angle_gamma   89.98081265
_symmetry_Int_Tables_number   1
_chemical_formula_structural   In2Te3
_chemical_formula_sum   'In72 Te108'
_cell_volume   6789.27306527
_cell_formula_units_Z   36
loop_
 _symmetry_equiv_pos_site_id
 _symmetry_equiv_pos_as_xyz
  1  'x, y, z'
loop_
 _atom_site_type_symbol
 _atom_site_label
 _atom_site_symmetry_multiplicity
 _atom_site_fract_x
 _atom_site_fract_y
 _atom_site_fract_z
 _atom_site_occupancy
  In  In0  1  0.84476246  0.85023425  0.33471465  1
  In  In1  1  0.47594498  0.34684633  0.83543353  1
  In  In2  1  0.00644089  -0.01327601  0.67830423  1
  In  In3  1  0.31983995  0.65180551  0.32061146  1
  In  In4  1  -0.00459930  0.36763233  0.64681814  1
  In  In5  1  0.48328408  0.34389246  0.19789759  1
  In  In6  1  0.32254301  0.80367522  0.82105641  1
  In  In7  1  0.33883108  0.51835398  0.15684060  1
  In  In8  1  0.86844051  -0.03190868  0.85948879  1
  In  In9  1  0.49837494  0.66450100  0.82210145  1
  In  In10  1  0.48276264  0.03444253  0.49751717  1
  In  In11  1  0.00586009  0.00040201  0.32950248  1
  In  In12  1  0.65362344  0.83251672  0.48170974  1
  In  In13  1  0.15829214  0.81639670  0.66834576  1
  In  In14  1  0.14972188  0.50217124  0.30586698  1
  In  In15  1  0.69308396  0.83296979  0.87048990  1
  In  In16  1  0.33193202  0.42847565  0.56630999  1
  In  In17  1  0.84381151  0.48658880  0.31177791  1
  In  In18  1  0.18819831  0.01654771  0.20445849  1
  In  In19  1  0.68503521  0.31571411  0.64357276  1
  In  In20  1  0.67377558  0.50510058  0.48744382  1
  In  In21  1  0.01797625  -0.01916933  0.03217607  1
  In  In22  1  0.52283185  0.00949944  0.85385147  1
  In  In23  1  0.33617082  -0.00459433  0.02163609  1
  In  In24  1  0.66834019  -0.00302065  0.66299056  1
  In  In25  1  0.65224963  0.14388271  0.85473635  1
  In  In26  1  0.50889823  0.85476285  0.63878954  1
  In  In27  1  0.49994231  0.00240706  0.17588394  1
  In  In28  1  0.69161100  0.14718156  0.47541119  1
  In  In29  1  0.66427936  0.49002149  0.81251763  1
  In  In30  1  0.47757313  0.83895863  0.01648176  1
  In  In31  1  0.33036035  0.62411554  0.63670514  1
  In  In32  1  0.65734571  0.67518820  0.66084969  1
  In  In33  1  0.01560693  0.66854277  0.32625166  1
  In  In34  1  0.67188965  0.65923649  0.02299900  1
  In  In35  1  0.19418141  -0.02312899  0.46342312  1
  In  In36  1  0.00987816  0.19600787  0.82594232  1
  In  In37  1  0.00413855  0.17880852  0.21377119  1
  In  In38  1  0.00573254  0.32355566  0.00419968  1
  In  In39  1  0.29646670  0.19374400  0.46044083  1
  In  In40  1  0.00348560  0.81713160  0.86471392  1
  In  In41  1  0.83478387  -0.00647918  0.50105140  1
  In  In42  1  0.49037645  0.19934339  0.67824635  1
  In  In43  1  0.67017622  0.64381034  0.32933500  1
  In  In44  1  0.68087872  0.81296752  0.17819444  1
  In  In45  1  0.14797131  0.66718134  0.49835794  1
  In  In46  1  0.81089223  0.33613621  0.83169169  1
  In  In47  1  0.02139496  0.82377690  0.15880083  1
  In  In48  1  0.15942958  0.32477341  0.16364124  1
  In  In49  1  0.68592494  0.20442371  0.19520760  1
  In  In50  1  0.49872889  0.83092574  0.34154431  1
  In  In51  1  0.82133731  0.15736761  0.64569107  1
  In  In52  1  0.32929220  0.32822957  0.00472410  1
  In  In53  1  0.66726419  0.33842678  0.01356458  1
  In  In54  1  0.85626581  0.52135045  0.01494693  1
  In  In55  1  0.32416250  0.15543646  0.84683415  1
  In  In56  1  0.16165575  0.18296833  0.65914899  1
  In  In57  1  0.32904331  0.48457887  0.82471705  1
  In  In58  1  0.00983729  0.51485380  0.82817529  1
  In  In59  1  0.16353137  0.66753013  0.86059979  1
  In  In60  1  0.48430773  0.17548020  0.32393706  1
  In  In61  1  0.33041598  -0.00944234  0.66009064  1
  In  In62  1  0.17542666  0.32553265  0.85378664  1
  In  In63  1  0.32465198  0.66470221  0.00229432  1
  In  In64  1  0.31790312  0.81267252  0.18451844  1
  In  In65  1  0.66378184  0.48635720  0.17008804  1
  In  In66  1  0.85964632  0.66366741  0.84435509  1
  In  In67  1  -0.00851863  0.18996262  0.45859366  1
  In  In68  1  0.86765550  0.69475943  0.52441023  1
  In  In69  1  0.85323523  0.14705016  0.03805967  1
  In  In70  1  0.49917150  0.33416311  0.47723062  1
  In  In71  1  0.01474501  0.50251096  0.48341365  1
  Te  Te72  1  0.08439818  0.08625406  0.11659842  1
  Te  Te73  1  0.09646624  0.08488558  0.41756581  1
  Te  Te74  1  0.09219103  0.08885177  0.75479819  1
  Te  Te75  1  0.08286555  0.42053488  0.08125287  1
  Te  Te76  1  0.07128290  0.39731219  0.38642762  1
  Te  Te77  1  0.09443484  0.41022495  0.75686749  1
  Te  Te78  1  0.04034031  0.72117697  0.05059424  1
  Te  Te79  1  0.07338479  0.76573602  0.42028620  1
  Te  Te80  1  0.07066635  0.73235360  0.75869964  1
  Te  Te81  1  0.41496034  0.09194939  0.09624892  1
  Te  Te82  1  0.37969643  0.07668068  0.39111468  1
  Te  Te83  1  0.43239272  0.07262930  0.74135686  1
  Te  Te84  1  0.42555049  0.41897796  0.07798204  1
  Te  Te85  1  0.38426321  0.41004439  0.42819777  1
  Te  Te86  1  0.40682890  0.41055445  0.72045258  1
  Te  Te87  1  0.41869475  0.73160792  0.10290014  1
  Te  Te88  1  0.38735811  0.75521563  0.40982465  1
  Te  Te89  1  0.42334235  0.75087259  0.72018483  1
  Te  Te90  1  0.74375900  0.09295207  0.11660534  1
  Te  Te91  1  0.78564208  0.07517082  0.38662624  1
  Te  Te92  1  0.75661850  0.07773381  0.75735536  1
  Te  Te93  1  0.77512345  0.41599375  0.08826597  1
  Te  Te94  1  0.73062711  0.41307515  0.38007680  1
  Te  Te95  1  0.76370833  0.42478767  0.71804081  1
  Te  Te96  1  0.77039693  0.75460178  0.07420543  1
  Te  Te97  1  0.75591620  0.74361804  0.41367697  1
  Te  Te98  1  0.74777767  0.73880402  0.76529108  1
  Te  Te99  1  0.12943033  0.23176438  0.28202602  1
  Te  Te100  1  0.07481935  0.26431218  0.56624120  1
  Te  Te101  1  0.10441407  0.22533375  0.94157335  1
  Te  Te102  1  0.04298144  0.56496264  0.22070436  1
  Te  Te103  1  0.08004560  0.57725516  0.59775828  1
  Te  Te104  1  0.06697329  0.59088610  0.94340438  1
  Te  Te105  1  0.10260065  0.90549051  0.26306622  1
  Te  Te106  1  0.10375925  0.92526022  0.57866951  1
  Te  Te107  1  0.08454968  0.92825889  0.91298854  1
  Te  Te108  1  0.37922746  0.24872646  0.24881413  1
  Te  Te109  1  0.40858617  0.23912711  0.55942737  1
  Te  Te110  1  0.42793342  0.23511057  0.92256192  1
  Te  Te111  1  0.42583042  0.56713152  0.26525924  1
  Te  Te112  1  0.41474070  0.55038579  0.54292167  1
  Te  Te113  1  0.41312747  0.57824878  0.91229809  1
  Te  Te114  1  0.40542044  0.91472802  0.25621567  1
  Te  Te115  1  0.40152974  0.91427383  0.54942957  1
  Te  Te116  1  0.41591008  0.90644834  0.89460310  1
  Te  Te117  1  0.77376359  0.28822168  0.28110880  1
  Te  Te118  1  0.77820066  0.25645438  0.53918008  1
  Te  Te119  1  0.75478183  0.23927941  0.93401716  1
  Te  Te120  1  0.76620154  0.58660245  0.22734561  1
  Te  Te121  1  0.75684692  0.59949729  0.57580796  1
  Te  Te122  1  0.74732721  0.57004394  0.91280222  1
  Te  Te123  1  0.73042379  0.91523518  0.27157591  1
  Te  Te124  1  0.74843201  0.89754535  0.58215069  1
  Te  Te125  1  0.74976274  0.94703181  0.94126484  1
  Te  Te126  1  0.24715960  0.23683118  0.08218125  1
  Te  Te127  1  0.20211186  0.29274970  0.40540401  1
  Te  Te128  1  0.26181398  0.25410412  0.74984416  1
  Te  Te129  1  0.23153230  0.60747147  0.10259524  1
  Te  Te130  1  0.23043717  0.56805608  0.41782013  1
  Te  Te131  1  0.24404602  0.58774957  0.75427334  1
  Te  Te132  1  0.23871710  0.91233985  0.10165514  1
  Te  Te133  1  0.28241243  0.87318266  0.41096538  1
  Te  Te134  1  0.24084453  0.91325813  0.75397429  1
  Te  Te135  1  0.57636487  0.26148011  0.10447849  1
  Te  Te136  1  0.59518939  0.24139717  0.40486722  1
  Te  Te137  1  0.60164096  0.26015837  0.76445501  1
  Te  Te138  1  0.57696188  0.56959192  0.08505555  1
  Te  Te139  1  0.56950576  0.57986322  0.41489259  1
  Te  Te140  1  0.56804657  0.56964610  0.72625474  1
  Te  Te141  1  0.58602862  0.90593096  0.09423241  1
  Te  Te142  1  0.57643361  0.94488856  0.41653116  1
  Te  Te143  1  0.59445731  0.90112576  0.75710018  1
  Te  Te144  1  0.92017667  0.25984842  0.11164975  1
  Te  Te145  1  0.90806134  0.26688526  0.35896961  1
  Te  Te146  1  0.90708511  0.25702644  0.73191195  1
  Te  Te147  1  0.94521989  0.60740837  0.09646502  1
  Te  Te148  1  0.90722942  0.59222543  0.41172077  1
  Te  Te149  1  0.91225760  0.57677691  0.73873691  1
  Te  Te150  1  0.91669443  0.91857561  0.11433763  1
  Te  Te151  1  0.94189184  0.90894250  0.43510231  1
  Te  Te152  1  0.90339099  0.88939594  0.73379835  1
  Te  Te153  1  0.28369716  0.10858595  0.27080737  1
  Te  Te154  1  0.25237877  0.09108925  0.57645074  1
  Te  Te155  1  0.24705761  0.05868388  0.92203736  1
  Te  Te156  1  0.25616834  0.42005416  0.23749124  1
  Te  Te157  1  0.18998519  0.47164638  0.56070517  1
  Te  Te158  1  0.24081592  0.43389203  0.93706648  1
  Te  Te159  1  0.21705137  0.71376031  0.23132298  1
  Te  Te160  1  0.25571849  0.74202316  0.57878518  1
  Te  Te161  1  0.23677481  0.77332886  0.94177865  1
  Te  Te162  1  0.59089075  0.09335567  0.25613553  1
  Te  Te163  1  0.59003493  0.10604857  0.59184278  1
  Te  Te164  1  0.58084114  0.08200756  0.96680928  1
  Te  Te165  1  0.58650938  0.41658614  0.27587751  1
  Te  Te166  1  0.58885030  0.40870313  0.57618730  1
  Te  Te167  1  0.57997718  0.42085187  0.91791273  1
  Te  Te168  1  0.57394144  0.73458365  0.25107161  1
  Te  Te169  1  0.56363384  0.73750892  0.55801286  1
  Te  Te170  1  0.57241198  0.74831239  0.92544093  1
  Te  Te171  1  0.90187496  0.08141870  0.26159358  1
  Te  Te172  1  0.93781862  0.08711071  0.57804476  1
  Te  Te173  1  0.92444313  0.09975589  0.91074007  1
  Te  Te174  1  0.95602027  0.39327205  0.27904704  1
  Te  Te175  1  0.90761374  0.42141598  0.54431219  1
  Te  Te176  1  0.91542713  0.41316447  0.90998064  1
  Te  Te177  1  0.91581676  0.75227188  0.24583381  1
  Te  Te178  1  0.92992658  0.78573711  0.61792762  1
  Te  Te179  1  0.89468206  0.76314213  0.95018201  1
