# generated using pymatgen
data_In2Te3
_symmetry_space_group_name_H-M   'P 1'
_cell_length_a   18.79197262
_cell_length_b   18.80114065
_cell_length_c   18.79218458
_cell_angle_alpha   89.80677048
_cell_angle_beta   89.97376655
_cell_angle_gamma   89.98045095
_symmetry_Int_Tables_number   1
_chemical_formula_structural   In2Te3
_chemical_formula_sum   'In72 Te108'
_cell_volume   6639.43767510
_cell_formula_units_Z   36
loop_
 _symmetry_equiv_pos_site_id
 _symmetry_equiv_pos_as_xyz
  1  'x, y, z'
loop_
 _atom_site_type_symbol
 _atom_site_label
 _atom_site_symmetry_multiplicity
 _atom_site_fract_x
 _atom_site_fract_y
 _atom_site_fract_z
 _atom_site_occupancy
  In  In0  1  0.50358467  0.18571475  0.66314052  1
  In  In1  1  0.51668310  0.17311518  0.34435877  1
  In  In2  1  0.14807604  0.02802884  0.83924034  1
  In  In3  1  0.49358485  0.81067342  0.00340089  1
  In  In4  1  -0.03039151  0.20385154  0.81085041  1
  In  In5  1  0.17164763  0.16057948  0.33913447  1
  In  In6  1  0.31686886  0.66484735  0.64754929  1
  In  In7  1  0.49982033  -0.01905621  0.85071445  1
  In  In8  1  0.51313984  0.81369618  0.63652222  1
  In  In9  1  0.32486211  0.30956652  -0.03237163  1
  In  In10  1  0.79482163  0.18509885  0.31603017  1
  In  In11  1  0.83503828  0.47464064  0.01513600  1
  In  In12  1  0.81011779  0.32413844  0.51402596  1
  In  In13  1  0.33549664  0.35221807  0.35826110  1
  In  In14  1  0.19020276  0.80870853  0.64141643  1
  In  In15  1  0.84228898  0.02103634  0.48264052  1
  In  In16  1  0.49174971  0.66126167  0.16694593  1
  In  In17  1  0.68115490  0.83368295  0.17201241  1
  In  In18  1  0.65396167  0.18090906  0.81264153  1
  In  In19  1  0.01306043  0.67252396  -0.01600483  1
  In  In20  1  0.18479444  -0.00360109  0.50151661  1
  In  In21  1  0.31735658  0.01830743  0.66691411  1
  In  In22  1  0.31073447  0.17196054  0.83819620  1
  In  In23  1  0.84117856  0.83057983  0.33736187  1
  In  In24  1  0.49226651  0.00882072  0.19713503  1
  In  In25  1  -0.01076155  0.67521696  0.34234432  1
  In  In26  1  0.32163806  0.82250817  0.47911832  1
  In  In27  1  0.33009015  0.17988756  0.50447755  1
  In  In28  1  0.52239915  0.35140450  0.15999746  1
  In  In29  1  0.82308951  0.00050576  0.85886670  1
  In  In30  1  0.33970318  0.51078228  0.82434961  1
  In  In31  1  0.51315187  0.34309090  0.50103551  1
  In  In32  1  0.65740953  0.01288258  0.65585234  1
  In  In33  1  0.16860848  0.34810731  0.82035290  1
  In  In34  1  0.84173343  -0.00980133  0.18104115  1
  In  In35  1  0.20059239  0.69957819  0.19503725  1
  In  In36  1  0.34468528  0.15746690  0.18067917  1
  In  In37  1  0.34726242  0.51521372  0.16734027  1
  In  In38  1  0.01623424  0.20086283  0.52581980  1
  In  In39  1  0.01487561  -0.01641216  0.31121182  1
  In  In40  1  0.80888916  0.50625617  0.63071988  1
  In  In41  1  0.81045319  0.64598198  0.81356853  1
  In  In42  1  0.64521046  0.66586787  0.01045747  1
  In  In43  1  0.18247296  0.65129908  0.80235573  1
  In  In44  1  0.13722101  0.13613766  0.02535762  1
  In  In45  1  0.47520324  0.18184276  0.00068089  1
  In  In46  1  0.01228269  0.83558372  0.82278851  1
  In  In47  1  0.51255502  0.49785122  0.32692760  1
  In  In48  1  0.50196654  0.50562423  -0.00560154  1
  In  In49  1  0.66442103  0.32956487  0.00187717  1
  In  In50  1  0.83918957  0.85226479  0.00216955  1
  In  In51  1  0.66019328  0.82637322  0.49943122  1
  In  In52  1  0.84958789  0.65998670  0.20530345  1
  In  In53  1  0.85114832  0.79923785  0.63437786  1
  In  In54  1  0.33190953  0.65737401  0.00773746  1
  In  In55  1  0.66838696  0.65377143  0.34362139  1
  In  In56  1  0.68863317  -0.00774322  0.00124310  1
  In  In57  1  0.34164364  0.83423247  0.81725344  1
  In  In58  1  -0.00233626  0.32568414  0.00349887  1
  In  In59  1  0.67107557  0.48904146  0.80494083  1
  In  In60  1  0.01448326  0.51235703  0.18701892  1
  In  In61  1  0.02795614  0.51639534  0.50807583  1
  In  In62  1  0.01523520  0.33367006  0.35201986  1
  In  In63  1  0.51539608  -0.01028195  0.51352330  1
  In  In64  1  0.00439490  0.00944689  0.68256122  1
  In  In65  1  0.49666030  0.50765290  0.66140455  1
  In  In66  1  0.32362268  -0.01750130  0.33337721  1
  In  In67  1  -0.01122177  0.50460849  0.81365687  1
  In  In68  1  0.83907720  0.47217065  0.34663855  1
  In  In69  1  0.18549644  0.84504904  0.02157127  1
  In  In70  1  0.84661518  0.17115990  0.00195028  1
  In  In71  1  0.16299962  0.34070593  0.17239112  1
  Te  Te72  1  0.05398762  0.04336349  0.10464231  1
  Te  Te73  1  0.07461253  0.08297957  0.42795371  1
  Te  Te74  1  0.08358038  0.12582304  0.74203415  1
  Te  Te75  1  0.08368778  0.42931684  0.07684072  1
  Te  Te76  1  0.10728103  0.44396551  0.39874719  1
  Te  Te77  1  0.06323149  0.40572556  0.72973935  1
  Te  Te78  1  0.09069772  0.74527297  0.09079268  1
  Te  Te79  1  0.06357688  0.75396041  0.44218058  1
  Te  Te80  1  0.07873089  0.73723835  0.72923604  1
  Te  Te81  1  0.41145209  0.06694969  0.07832375  1
  Te  Te82  1  0.40966229  0.08142877  0.42015880  1
  Te  Te83  1  0.42826746  0.07914730  0.75222394  1
  Te  Te84  1  0.40597761  0.40554053  0.07064343  1
  Te  Te85  1  0.41645770  0.44724404  0.44299340  1
  Te  Te86  1  0.41248642  0.41364429  0.74252664  1
  Te  Te87  1  0.39055156  0.75845165  0.10512253  1
  Te  Te88  1  0.40755154  0.73085583  0.40343434  1
  Te  Te89  1  0.42199354  0.73734514  0.73572686  1
  Te  Te90  1  0.75746605  0.08766591  0.09655204  1
  Te  Te91  1  0.73336942  0.09467822  0.41610360  1
  Te  Te92  1  0.75532559  0.08456244  0.74934709  1
  Te  Te93  1  0.75211498  0.39136584  0.10792067  1
  Te  Te94  1  0.73181141  0.42345105  0.43664419  1
  Te  Te95  1  0.78294596  0.41058007  0.74586718  1
  Te  Te96  1  0.76406482  0.73953216  0.08421950  1
  Te  Te97  1  0.76551787  0.73682320  0.42800434  1
  Te  Te98  1  0.74188634  0.74031709  0.71841808  1
  Te  Te99  1  0.07773656  0.23854165  0.24695227  1
  Te  Te100  1  0.09687408  0.30575204  0.59253820  1
  Te  Te101  1  0.09534129  0.24469375  0.91820915  1
  Te  Te102  1  0.10326271  0.60237952  0.26927584  1
  Te  Te103  1  0.09826156  0.61713610  0.59141993  1
  Te  Te104  1  0.09309486  0.57341793  0.90197091  1
  Te  Te105  1  0.10678193  0.91627966  0.21436259  1
  Te  Te106  1  0.09049852  0.91913493  0.59484530  1
  Te  Te107  1  0.08548906  0.91751946  0.92603830  1
  Te  Te108  1  0.41968076  0.26724081  0.25424088  1
  Te  Te109  1  0.40440845  0.27795249  0.59159977  1
  Te  Te110  1  0.43718776  0.25871853  0.87674783  1
  Te  Te111  1  0.40493090  0.59900972  0.28055120  1
  Te  Te112  1  0.40900652  0.58479721  0.56486938  1
  Te  Te113  1  0.43045877  0.60541482  0.90470320  1
  Te  Te114  1  0.42038844  0.89771993  0.26074757  1
  Te  Te115  1  0.39703682  0.91279969  0.58772512  1
  Te  Te116  1  0.39445201  0.91101012  0.93719066  1
  Te  Te117  1  0.73527455  0.29414596  0.23645466  1
  Te  Te118  1  0.75903262  0.23986970  0.62511477  1
  Te  Te119  1  0.75351376  0.24955801  0.90720012  1
  Te  Te120  1  0.74787741  0.56065778  0.25043221  1
  Te  Te121  1  0.72704495  0.62438844  0.59074707  1
  Te  Te122  1  0.74257178  0.56709556  0.93331925  1
  Te  Te123  1  0.73900226  0.92688209  0.27684358  1
  Te  Te124  1  0.75618793  0.92189804  0.57728445  1
  Te  Te125  1  0.72930100  0.88574664  0.89932836  1
  Te  Te126  1  0.25042936  0.24303661  0.08878021  1
  Te  Te127  1  0.22833042  0.26842688  0.42964520  1
  Te  Te128  1  0.26024425  0.26610255  0.73739096  1
  Te  Te129  1  0.23258425  0.58189615  0.09213656  1
  Te  Te130  1  0.23976901  0.51078122  0.45378337  1
  Te  Te131  1  0.23856543  0.54420226  0.71226799  1
  Te  Te132  1  0.24329451  0.91118348  0.13928267  1
  Te  Te133  1  0.21320279  0.89346777  0.39398139  1
  Te  Te134  1  0.23131711  0.92156162  0.75540259  1
  Te  Te135  1  0.58584779  0.23048011  0.09177683  1
  Te  Te136  1  0.60784682  0.26530039  0.41704387  1
  Te  Te137  1  0.60928134  0.28394717  0.71049321  1
  Te  Te138  1  0.58970758  0.55918650  0.10708565  1
  Te  Te139  1  0.58570343  0.56997977  0.43430735  1
  Te  Te140  1  0.58021720  0.59095169  0.75315508  1
  Te  Te141  1  0.58402174  0.91272744  0.08207730  1
  Te  Te142  1  0.57010340  0.90274544  0.40975439  1
  Te  Te143  1  0.57766073  0.91089525  0.73818485  1
  Te  Te144  1  0.92910525  0.24041017  0.10183671  1
  Te  Te145  1  0.90983114  0.24446812  0.41878364  1
  Te  Te146  1  0.88238572  0.27552928  0.71226385  1
  Te  Te147  1  0.92178582  0.58677274  0.07880456  1
  Te  Te148  1  0.90709754  0.58023240  0.42863726  1
  Te  Te149  1  0.91233284  0.59172742  0.71578665  1
  Te  Te150  1  0.93798736  0.93704610  0.07626245  1
  Te  Te151  1  0.93495385  0.91496477  0.42336655  1
  Te  Te152  1  0.90260045  0.91231461  0.74757970  1
  Te  Te153  1  0.23568492  0.06739775  0.23710997  1
  Te  Te154  1  0.22423122  0.11252911  0.59337243  1
  Te  Te155  1  0.25177454  0.07376123  0.94043829  1
  Te  Te156  1  0.25265220  0.43115561  0.25552333  1
  Te  Te157  1  0.21047753  0.40851972  0.55276204  1
  Te  Te158  1  0.24918660  0.43307646  0.92223640  1
  Te  Te159  1  0.27658377  0.73578222  0.31835813  1
  Te  Te160  1  0.21102731  0.70409196  0.52945137  1
  Te  Te161  1  0.24397351  0.74489405  0.90863162  1
  Te  Te162  1  0.59894108  0.09273660  0.25172363  1
  Te  Te163  1  0.59056360  0.11283465  0.56045980  1
  Te  Te164  1  0.58950337  0.08411846  0.92130301  1
  Te  Te165  1  0.60575342  0.38791967  0.27938018  1
  Te  Te166  1  0.59946330  0.41021160  0.60446512  1
  Te  Te167  1  0.57819377  0.41005205  0.90526913  1
  Te  Te168  1  0.58559088  0.74713556  0.25350180  1
  Te  Te169  1  0.59301197  0.70638480  0.56569990  1
  Te  Te170  1  0.58155446  0.74639959  0.90441368  1
  Te  Te171  1  0.91131312  0.08875056  0.27294029  1
  Te  Te172  1  0.92049354  0.09815511  0.59014582  1
  Te  Te173  1  0.93608397  0.08835230  0.90836424  1
  Te  Te174  1  0.92786533  0.40163659  0.24424927  1
  Te  Te175  1  0.91949162  0.42354980  0.56326734  1
  Te  Te176  1  0.91172247  0.40453856  0.90449291  1
  Te  Te177  1  0.93738132  0.77875633  0.23172972  1
  Te  Te178  1  0.95476274  0.73328053  0.55229704  1
  Te  Te179  1  0.90655860  0.74572243  0.90090873  1
