# generated using pymatgen
data_In2Te3
_symmetry_space_group_name_H-M   'P 1'
_cell_length_a   18.83132060
_cell_length_b   18.83545055
_cell_length_c   18.83939302
_cell_angle_alpha   90.05011024
_cell_angle_beta   89.91680229
_cell_angle_gamma   89.90028472
_symmetry_Int_Tables_number   1
_chemical_formula_structural   In2Te3
_chemical_formula_sum   'In72 Te108'
_cell_volume   6682.24529959
_cell_formula_units_Z   36
loop_
 _symmetry_equiv_pos_site_id
 _symmetry_equiv_pos_as_xyz
  1  'x, y, z'
loop_
 _atom_site_type_symbol
 _atom_site_label
 _atom_site_symmetry_multiplicity
 _atom_site_fract_x
 _atom_site_fract_y
 _atom_site_fract_z
 _atom_site_occupancy
  In  In0  1  0.49267083  0.15437203  0.68096014  1
  In  In1  1  0.36188100  0.34417137  0.31979809  1
  In  In2  1  -0.00386803  -0.01018753  -0.00008402  1
  In  In3  1  0.66274456  0.34443918  0.00564037  1
  In  In4  1  0.32201161  0.82834317  0.13881763  1
  In  In5  1  0.13228510  0.48618637  0.65968238  1
  In  In6  1  0.66133049  0.00689340  0.68614172  1
  In  In7  1  0.02661085  0.35696633  0.67707731  1
  In  In8  1  -0.01611398  0.32625225  0.32170029  1
  In  In9  1  0.17760231  0.32817914  0.82706370  1
  In  In10  1  0.14645701  0.65381298  0.84875678  1
  In  In11  1  0.33397620  0.00822794  0.68725139  1
  In  In12  1  0.12824142  0.66521164  0.15142583  1
  In  In13  1  0.49902340  0.51682178  0.00237837  1
  In  In14  1  -0.00668223  0.15306856  0.17476933  1
  In  In15  1  0.36849130  0.82066700  0.51313245  1
  In  In16  1  0.68140194  0.67943964  0.30621291  1
  In  In17  1  0.68423275  0.31803924  0.67945146  1
  In  In18  1  0.17032221  0.83471346  0.32123937  1
  In  In19  1  0.32388579  0.65602358  0.01515959  1
  In  In20  1  0.64884601  0.13244041  0.85854244  1
  In  In21  1  0.84068762  0.00634645  0.48622773  1
  In  In22  1  0.65315137  0.15492489  0.15544799  1
  In  In23  1  0.67679156  0.66745630  0.69185056  1
  In  In24  1  0.37409077  0.16218871  0.49543307  1
  In  In25  1  0.32948855  0.51771481  0.16229751  1
  In  In26  1  0.33890234  0.45487824  0.49879358  1
  In  In27  1  0.80951455  -0.01425573  0.84561032  1
  In  In28  1  0.52327014  0.68998197  0.17891357  1
  In  In29  1  0.16308803  -0.00307946  0.49472091  1
  In  In30  1  0.15841777  0.82448539  0.00698602  1
  In  In31  1  0.47763448  0.67847219  0.49411797  1
  In  In32  1  0.81294217  0.68253009  0.50751742  1
  In  In33  1  0.50404929  -0.00430633  0.12960399  1
  In  In34  1  0.01079115  0.16394124  0.81494930  1
  In  In35  1  0.33825216  0.69814383  0.36583853  1
  In  In36  1  0.65254516  0.68836666  0.00062535  1
  In  In37  1  0.15139065  0.17219436  0.33493404  1
  In  In38  1  0.35156007  0.01190405  0.33020970  1
  In  In39  1  0.81354355  0.17778048  0.34756410  1
  In  In40  1  0.17910283  0.18245177  0.68351716  1
  In  In41  1  0.82774586  0.33858281  0.48922084  1
  In  In42  1  0.20117242  0.15239605  -0.04420449  1
  In  In43  1  0.67656319  0.50973804  0.50546737  1
  In  In44  1  0.50714316  0.49068020  0.32245625  1
  In  In45  1  0.81153412  0.15914637  0.01347442  1
  In  In46  1  0.34234206  0.31904472  -0.01859484  1
  In  In47  1  0.01290177  0.48781314  0.51105443  1
  In  In48  1  0.65388955  0.51147284  0.85640745  1
  In  In49  1  -0.04140742  0.70700974  0.34111858  1
  In  In50  1  0.85079266  0.34770900  0.82935618  1
  In  In51  1  -0.00731080  0.82392970  0.86197203  1
  In  In52  1  0.83750194  0.82857877  0.00082660  1
  In  In53  1  0.17574698  -0.02035865  0.14784860  1
  In  In54  1  0.51676638  0.49369412  0.68007250  1
  In  In55  1  0.17665035  0.32658368  0.50432600  1
  In  In56  1  0.50795205  0.83953440  0.68493498  1
  In  In57  1  0.34640884  0.17815559  0.15409476  1
  In  In58  1  0.32478933  0.48277752  0.82202191  1
  In  In59  1  0.51500424  0.32717534  0.18165919  1
  In  In60  1  0.14855617  0.64153107  0.50538021  1
  In  In61  1  0.17804989  0.85156001  0.68301911  1
  In  In62  1  0.82685450  0.34252464  0.15034053  1
  In  In63  1  0.00350030  0.00934487  0.65703989  1
  In  In64  1  0.64986093  0.85455271  0.49151576  1
  In  In65  1  -0.02737914  -0.02601061  0.30952566  1
  In  In66  1  -0.00364633  0.39207088  0.00432856  1
  In  In67  1  0.16858961  0.51875204  0.30434195  1
  In  In68  1  0.82818918  0.81758982  0.68144400  1
  In  In69  1  0.34132365  0.67840932  0.67754487  1
  In  In70  1  0.64903124  0.17792676  0.46801198  1
  In  In71  1  0.80972966  0.51382982  0.33939010  1
  Te  Te72  1  0.09206214  0.08615962  0.07435823  1
  Te  Te73  1  0.06607333  0.06572811  0.40009843  1
  Te  Te74  1  0.10922993  0.06553881  0.75272756  1
  Te  Te75  1  0.08166904  0.43641652  0.11381904  1
  Te  Te76  1  0.09888994  0.41449390  0.40423097  1
  Te  Te77  1  0.07016458  0.44261069  0.80672437  1
  Te  Te78  1  0.04160753  0.75433975  0.06867145  1
  Te  Te79  1  0.08562786  0.75065497  0.41625093  1
  Te  Te80  1  0.08042136  0.75660645  0.75578992  1
  Te  Te81  1  0.41538550  0.09271185  0.05569015  1
  Te  Te82  1  0.45993299  0.06285179  0.42120102  1
  Te  Te83  1  0.42849667  0.07000617  0.79040883  1
  Te  Te84  1  0.41504084  0.41213003  0.09002055  1
  Te  Te85  1  0.46372345  0.38884099  0.43031365  1
  Te  Te86  1  0.42652868  0.40253139  0.75232275  1
  Te  Te87  1  0.43226433  0.74909928  0.06888220  1
  Te  Te88  1  0.46005109  0.79018500  0.38798076  1
  Te  Te89  1  0.41278667  0.76477809  0.77104466  1
  Te  Te90  1  0.73758515  0.05435344  0.08309036  1
  Te  Te91  1  0.72858135  0.06150341  0.39940469  1
  Te  Te92  1  0.76065017  0.09849818  0.75644860  1
  Te  Te93  1  0.75643538  0.44171370  0.06478874  1
  Te  Te94  1  0.72318192  0.40482922  0.40196423  1
  Te  Te95  1  0.74492783  0.43368876  0.75816775  1
  Te  Te96  1  0.74288116  0.76079415  0.10176436  1
  Te  Te97  1  0.74930914  0.77550939  0.40583574  1
  Te  Te98  1  0.74219781  0.76045722  0.78552343  1
  Te  Te99  1  0.08746951  0.26193875  0.23023380  1
  Te  Te100  1  0.08074793  0.24044743  0.58225847  1
  Te  Te101  1  0.08155598  0.24999891  0.91782781  1
  Te  Te102  1  0.04844876  0.60217705  0.26623210  1
  Te  Te103  1  0.04177658  0.60671131  0.61243194  1
  Te  Te104  1  0.04173493  0.62561062  0.95221379  1
  Te  Te105  1  0.07226709  0.89521804  0.22168347  1
  Te  Te106  1  0.07811342  0.90252265  0.57684036  1
  Te  Te107  1  0.09798462  0.92522354  0.90801087  1
  Te  Te108  1  0.44107675  0.22023596  0.26687283  1
  Te  Te109  1  0.41845387  0.25409234  0.59990649  1
  Te  Te110  1  0.39506593  0.22412528  0.88174097  1
  Te  Te111  1  0.41553405  0.59825343  0.25947652  1
  Te  Te112  1  0.41230795  0.57121724  0.58331978  1
  Te  Te113  1  0.40352771  0.58476304  0.90615089  1
  Te  Te114  1  0.40782321  0.91563265  0.22736418  1
  Te  Te115  1  0.43061811  0.93397532  0.59344346  1
  Te  Te116  1  0.49555595  0.92246783  0.94405824  1
  Te  Te117  1  0.73911976  0.25351892  0.23873504  1
  Te  Te118  1  0.75014423  0.23478558  0.56995178  1
  Te  Te119  1  0.75072441  0.25410046  0.90993393  1
  Te  Te120  1  0.78266126  0.60471112  0.22443169  1
  Te  Te121  1  0.76721278  0.57713768  0.60864448  1
  Te  Te122  1  0.74714687  0.61036076  0.91464035  1
  Te  Te123  1  0.79731208  0.86987427  0.20332580  1
  Te  Te124  1  0.74772750  0.91606439  0.59377566  1
  Te  Te125  1  0.72655121  0.91246620  0.94215606  1
  Te  Te126  1  0.23883912  0.24641450  0.07157142  1
  Te  Te127  1  0.26590939  0.24419765  0.40817393  1
  Te  Te128  1  0.28921671  0.24521770  0.76732354  1
  Te  Te129  1  0.21561035  0.56612771  0.07148080  1
  Te  Te130  1  0.25960344  0.57047000  0.42225281  1
  Te  Te131  1  0.23457481  0.58398928  0.73587955  1
  Te  Te132  1  0.27178325  0.93098011  0.04005123  1
  Te  Te133  1  0.26485382  0.91105525  0.41710977  1
  Te  Te134  1  0.27926285  0.90229737  0.77698317  1
  Te  Te135  1  0.56548384  0.24373737  0.06497988  1
  Te  Te136  1  0.55666170  0.25745514  0.38807886  1
  Te  Te137  1  0.58771081  0.24058613  0.76753428  1
  Te  Te138  1  0.59407511  0.57993689  0.10005965  1
  Te  Te139  1  0.58682878  0.59528076  0.41462898  1
  Te  Te140  1  0.56394190  0.60456352  0.77220538  1
  Te  Te141  1  0.59193561  0.89537079  0.05471649  1
  Te  Te142  1  0.55043298  0.93267758  0.41768138  1
  Te  Te143  1  0.58740453  0.92072974  0.78020532  1
  Te  Te144  1  0.92253694  0.24832242  0.07455103  1
  Te  Te145  1  0.92911689  0.23823907  0.42976815  1
  Te  Te146  1  0.92276306  0.25489136  0.73128001  1
  Te  Te147  1  0.97670913  0.53539014  0.06879395  1
  Te  Te148  1  0.91415343  0.57974059  0.42960318  1
  Te  Te149  1  0.97033342  0.52761727  0.73516620  1
  Te  Te150  1  0.89571881  0.93590679  0.09542269  1
  Te  Te151  1  0.91358960  0.89574960  0.41912178  1
  Te  Te152  1  0.92270111  0.92291293  0.76054861  1
  Te  Te153  1  0.24147723  0.08098752  0.24534049  1
  Te  Te154  1  0.25348151  0.08952341  0.57517144  1
  Te  Te155  1  0.29081243  0.07383178  0.86905535  1
  Te  Te156  1  0.25162722  0.40732104  0.23708486  1
  Te  Te157  1  0.25315085  0.39930903  0.61227366  1
  Te  Te158  1  0.23917809  0.42215938  0.93246080  1
  Te  Te159  1  0.24682656  0.73065095  0.23512975  1
  Te  Te160  1  0.24290015  0.74721576  0.57546594  1
  Te  Te161  1  0.25095231  0.74440558  0.91505646  1
  Te  Te162  1  0.58248465  0.05673154  0.23975166  1
  Te  Te163  1  0.58956339  0.09027787  0.58286694  1
  Te  Te164  1  0.56092170  0.06656729  0.95831664  1
  Te  Te165  1  0.60573229  0.43295021  0.22943500  1
  Te  Te166  1  0.59853057  0.40552558  0.58627519  1
  Te  Te167  1  0.55772588  0.40746026  0.91317934  1
  Te  Te168  1  0.60587524  0.79276319  0.24600641  1
  Te  Te169  1  0.58950553  0.73998506  0.58448354  1
  Te  Te170  1  0.54584256  0.76854012  0.93648692  1
  Te  Te171  1  0.88258606  0.08175261  0.24797924  1
  Te  Te172  1  0.90877604  0.09293180  0.58328719  1
  Te  Te173  1  0.91585573  0.08842680  0.91217964  1
  Te  Te174  1  0.90616323  0.43008042  0.24849601  1
  Te  Te175  1  0.90581306  0.41461404  0.59335337  1
  Te  Te176  1  0.88024797  0.45133030  0.93391622  1
  Te  Te177  1  0.88563627  0.74808436  0.21834193  1
  Te  Te178  1  0.91711159  0.75380720  0.58373898  1
  Te  Te179  1  0.90502442  0.71630107  0.92083917  1
