# generated using pymatgen
data_In2Te3
_symmetry_space_group_name_H-M   'P 1'
_cell_length_a   18.98370721
_cell_length_b   18.96174949
_cell_length_c   18.97902767
_cell_angle_alpha   89.96587888
_cell_angle_beta   90.07203569
_cell_angle_gamma   90.15918817
_symmetry_Int_Tables_number   1
_chemical_formula_structural   In2Te3
_chemical_formula_sum   'In72 Te108'
_cell_volume   6831.73945829
_cell_formula_units_Z   36
loop_
 _symmetry_equiv_pos_site_id
 _symmetry_equiv_pos_as_xyz
  1  'x, y, z'
loop_
 _atom_site_type_symbol
 _atom_site_label
 _atom_site_symmetry_multiplicity
 _atom_site_fract_x
 _atom_site_fract_y
 _atom_site_fract_z
 _atom_site_occupancy
  In  In0  1  0.17281757  0.50906111  0.65888742  1
  In  In1  1  -0.00022969  0.66715676  -0.00980422  1
  In  In2  1  0.01964476  0.51274251  0.14332589  1
  In  In3  1  0.33798443  0.15909118  0.48910171  1
  In  In4  1  0.66351856  0.52417340  0.52376552  1
  In  In5  1  0.35958420  0.48810391  0.17241244  1
  In  In6  1  -0.00495667  0.66529102  0.67319020  1
  In  In7  1  0.17978702  -0.00652346  0.83667566  1
  In  In8  1  0.49520268  0.17391433  0.00041564  1
  In  In9  1  0.63847374  0.67709297  -0.01405868  1
  In  In10  1  0.01583911  0.15123454  0.84646998  1
  In  In11  1  0.33719932  0.01572086  0.32341130  1
  In  In12  1  0.15522060  0.16921875  0.66207595  1
  In  In13  1  0.35310828  0.51383479  0.50403595  1
  In  In14  1  0.65428217  0.14501605  0.15335818  1
  In  In15  1  0.00664170  0.16554387  0.17311507  1
  In  In16  1  0.00555992  -0.00108613  0.31851563  1
  In  In17  1  0.79664522  0.16670860  -0.03889102  1
  In  In18  1  0.80263879  0.00044449  0.51418522  1
  In  In19  1  -0.02886160  0.33568926  0.65419466  1
  In  In20  1  0.80845393  0.83444894  0.66539685  1
  In  In21  1  0.66218011  0.31836373  0.34267051  1
  In  In22  1  0.84594532  0.49030364  0.33110384  1
  In  In23  1  0.17099501  0.34638643  0.81303443  1
  In  In24  1  0.17906603  0.84454534  0.33119415  1
  In  In25  1  0.52137849  0.51329187  0.33685688  1
  In  In26  1  0.67525918  0.33945548  0.68073769  1
  In  In27  1  0.33655452  0.83127938  0.15299602  1
  In  In28  1  0.65177847  0.67092429  0.35170370  1
  In  In29  1  0.79521118  -0.02324389  0.83127623  1
  In  In30  1  0.54200698  0.51182341  0.70536236  1
  In  In31  1  0.86410601  0.50507552  0.00215696  1
  In  In32  1  0.32395921  0.32428972  0.66239061  1
  In  In33  1  0.36071549  -0.03863139  0.66147839  1
  In  In34  1  0.50991187  0.32209408  0.84707039  1
  In  In35  1  0.35433148  0.01558174  0.00241504  1
  In  In36  1  0.14946164  0.00791180  0.50728203  1
  In  In37  1  0.33206921  0.84230047  0.84934671  1
  In  In38  1  0.48340787  0.13832695  0.66785648  1
  In  In39  1  0.32503116  0.67650055  0.65532007  1
  In  In40  1  0.02515248  0.32636530  0.35568770  1
  In  In41  1  0.64342599  0.18044614  0.51239048  1
  In  In42  1  0.79626231  0.65258242  0.51374410  1
  In  In43  1  0.50029608  0.30806244  0.17261647  1
  In  In44  1  -0.03186705  0.18339678  0.50930097  1
  In  In45  1  0.82150377  0.65546839  0.82686684  1
  In  In46  1  0.71046736  0.50204309  0.17082306  1
  In  In47  1  0.64148297  -0.01484078  0.34654972  1
  In  In48  1  0.17205407  0.82518127  -0.00968585  1
  In  In49  1  0.85978732  0.16224745  0.33126634  1
  In  In50  1  0.52053798  0.79760142  0.64863693  1
  In  In51  1  -0.00014858  0.84535602  0.49296285  1
  In  In52  1  0.49767854  0.69009993  0.16653205  1
  In  In53  1  0.00619105  0.34943210  0.00444678  1
  In  In54  1  0.00875966  0.66337032  0.31193476  1
  In  In55  1  -0.02384688  0.81833975  0.81830366  1
  In  In56  1  0.17112826  0.51275523  -0.01410352  1
  In  In57  1  0.46941759  0.81993978  0.35141006  1
  In  In58  1  0.19279973  0.18775628  0.03692902  1
  In  In59  1  -0.01483647  -0.01778012  0.02415481  1
  In  In60  1  -0.00641875  0.50126840  0.51696915  1
  In  In61  1  0.83664684  0.75097724  0.13359694  1
  In  In62  1  0.64249921  -0.01003217  -0.00286970  1
  In  In63  1  0.83775617  0.33061894  0.14779139  1
  In  In64  1  0.18575342  0.16745732  0.32573782  1
  In  In65  1  0.51465214  0.48664302  0.01031527  1
  In  In66  1  0.80900936  0.82516503  0.33028350  1
  In  In67  1  0.51376142  -0.02551269  0.82569484  1
  In  In68  1  0.35658369  0.51867746  0.83196923  1
  In  In69  1  0.81759560  0.15337857  0.67424768  1
  In  In70  1  0.18570122  0.66311955  0.16191886  1
  In  In71  1  0.34728345  0.33827101  0.32620517  1
  Te  Te72  1  0.08935800  0.08319627  0.07669140  1
  Te  Te73  1  0.06540246  0.10383358  0.41362022  1
  Te  Te74  1  0.08175464  0.06401772  0.74207672  1
  Te  Te75  1  0.11693213  0.41103859  0.08676303  1
  Te  Te76  1  0.08797435  0.43751462  0.42444028  1
  Te  Te77  1  0.07095228  0.42333218  0.73286869  1
  Te  Te78  1  0.08448396  0.74718641  0.08731061  1
  Te  Te79  1  0.08501271  0.75286165  0.40894139  1
  Te  Te80  1  0.08519291  0.74840874  0.75326930  1
  Te  Te81  1  0.44329592  0.07868878  0.09975926  1
  Te  Te82  1  0.43289795  0.07720488  0.41610769  1
  Te  Te83  1  0.40149228  0.05991315  0.76862556  1
  Te  Te84  1  0.41505121  0.38891993  0.07028390  1
  Te  Te85  1  0.43946673  0.41728646  0.41860502  1
  Te  Te86  1  0.41957593  0.41213697  0.74326875  1
  Te  Te87  1  0.41201997  0.74457444  0.06213077  1
  Te  Te88  1  0.39256462  0.73033899  0.44267088  1
  Te  Te89  1  0.41313447  0.75670006  0.75005113  1
  Te  Te90  1  0.75504489  0.07229340  0.06934532  1
  Te  Te91  1  0.74924813  0.10465110  0.41809047  1
  Te  Te92  1  0.72990558  0.09800821  0.77851008  1
  Te  Te93  1  0.75163516  0.41166608  0.05601263  1
  Te  Te94  1  0.72605156  0.43898071  0.40931200  1
  Te  Te95  1  0.72500287  0.40709622  0.80219020  1
  Te  Te96  1  0.69338041  0.77936010  0.08346339  1
  Te  Te97  1  0.72650793  0.77135099  0.44521756  1
  Te  Te98  1  0.72708850  0.73903808  0.74610224  1
  Te  Te99  1  0.09997578  0.26274590  0.24138392  1
  Te  Te100  1  0.07995680  0.26498044  0.57351708  1
  Te  Te101  1  0.09972876  0.25507550  0.92077948  1
  Te  Te102  1  0.10980445  0.56784571  0.25396229  1
  Te  Te103  1  0.09234958  0.60365555  0.57316461  1
  Te  Te104  1  0.06634404  0.57197887  0.90281446  1
  Te  Te105  1  0.09929369  0.92485244  0.23622325  1
  Te  Te106  1  0.08971674  0.90480774  0.59182950  1
  Te  Te107  1  0.07072884  0.91213952  0.90826409  1
  Te  Te108  1  0.39065130  0.22668738  0.23523995  1
  Te  Te109  1  0.42322845  0.24753491  0.57985970  1
  Te  Te110  1  0.40313909  0.24902039  0.91386173  1
  Te  Te111  1  0.42213457  0.59617998  0.26095825  1
  Te  Te112  1  0.43116255  0.57600348  0.61793094  1
  Te  Te113  1  0.44562105  0.59026135  0.92683434  1
  Te  Te114  1  0.42217164  0.91625251  0.24431471  1
  Te  Te115  1  0.44854582  0.89981567  0.56254656  1
  Te  Te116  1  0.43751675  0.90652233  0.93753236  1
  Te  Te117  1  0.75800300  0.24535579  0.24383847  1
  Te  Te118  1  0.75517536  0.25631165  0.58162019  1
  Te  Te119  1  0.74437414  0.27169873  0.87713766  1
  Te  Te120  1  0.76166577  0.60546784  0.26995982  1
  Te  Te121  1  0.77082643  0.55465146  0.62213617  1
  Te  Te122  1  0.74836288  0.58428537  0.93918094  1
  Te  Te123  1  0.74406163  0.93246230  0.25691306  1
  Te  Te124  1  0.71046265  0.93224067  0.60825767  1
  Te  Te125  1  0.71651736  0.88925428  0.91642561  1
  Te  Te126  1  0.30302100  0.24941850  0.10867271  1
  Te  Te127  1  0.25019977  0.26211588  0.42300514  1
  Te  Te128  1  0.25390012  0.23140585  0.75917508  1
  Te  Te129  1  0.27402697  0.57641075  0.07724693  1
  Te  Te130  1  0.27605626  0.61775116  0.43471086  1
  Te  Te131  1  0.24701398  0.59442364  0.75912798  1
  Te  Te132  1  0.25028771  0.92489386  0.07167467  1
  Te  Te133  1  0.25388185  0.93533997  0.42595163  1
  Te  Te134  1  0.24498017  0.89909949  0.73697394  1
  Te  Te135  1  0.60292770  0.26040192  0.07180364  1
  Te  Te136  1  0.55745926  0.24459092  0.41107894  1
  Te  Te137  1  0.57480378  0.24093587  0.73814363  1
  Te  Te138  1  0.59426632  0.57939489  0.10595471  1
  Te  Te139  1  0.55322950  0.61378094  0.45579078  1
  Te  Te140  1  0.60505631  0.63510855  0.75849488  1
  Te  Te141  1  0.59273979  0.89013625  0.09189069  1
  Te  Te142  1  0.56317125  0.89893773  0.43820274  1
  Te  Te143  1  0.59794684  0.90015331  0.73008979  1
  Te  Te144  1  0.91876942  0.23450642  0.06334486  1
  Te  Te145  1  0.89596892  0.28184624  0.41803341  1
  Te  Te146  1  0.92452402  0.23166604  0.75385235  1
  Te  Te147  1  0.90682259  0.61036287  0.11157820  1
  Te  Te148  1  0.91204659  0.60306401  0.41566784  1
  Te  Te149  1  0.90278282  0.57074220  0.73850918  1
  Te  Te150  1  0.89236593  0.88231034  0.07418709  1
  Te  Te151  1  0.90289071  0.93436851  0.41645941  1
  Te  Te152  1  0.90512646  0.92541505  0.73920435  1
  Te  Te153  1  0.23591917  0.06971061  0.23094151  1
  Te  Te154  1  0.25925123  0.07719935  0.59544095  1
  Te  Te155  1  0.24757908  0.09298622  0.92731744  1
  Te  Te156  1  0.25723435  0.43270405  0.26102342  1
  Te  Te157  1  0.25122645  0.41732439  0.56884391  1
  Te  Te158  1  0.26296850  0.42135120  0.90621564  1
  Te  Te159  1  0.26812782  0.74543942  0.25845125  1
  Te  Te160  1  0.26735558  0.74099809  0.53508790  1
  Te  Te161  1  0.25440147  0.73486277  0.91265202  1
  Te  Te162  1  0.57487929  0.08253983  0.25783065  1
  Te  Te163  1  0.58402893  0.06931316  0.58729404  1
  Te  Te164  1  0.57754225  0.08965209  0.90450206  1
  Te  Te165  1  0.59462269  0.41686279  0.23667717  1
  Te  Te166  1  0.57941298  0.41698164  0.59140988  1
  Te  Te167  1  0.59720046  0.43313427  0.89772340  1
  Te  Te168  1  0.58577716  0.76957961  0.26021438  1
  Te  Te169  1  0.60714424  0.70953781  0.56653424  1
  Te  Te170  1  0.54682407  0.71567012  0.87694848  1
  Te  Te171  1  0.90472351  0.06527608  0.22426700  1
  Te  Te172  1  0.91570438  0.06940189  0.59129856  1
  Te  Te173  1  0.91033767  0.06714014  0.91637749  1
  Te  Te174  1  0.93430658  0.41347779  0.23154954  1
  Te  Te175  1  0.88342331  0.42298368  0.57409961  1
  Te  Te176  1  0.93118864  0.42173683  0.90287197  1
  Te  Te177  1  0.93029438  0.77918032  0.25172752  1
  Te  Te178  1  0.90253577  0.75320344  0.57665641  1
  Te  Te179  1  0.89211744  0.75084012  0.92367697  1
