# generated using pymatgen
data_In2Te3
_symmetry_space_group_name_H-M   'P 1'
_cell_length_a   18.78571003
_cell_length_b   18.78724522
_cell_length_c   18.78072747
_cell_angle_alpha   89.92396556
_cell_angle_beta   89.96202990
_cell_angle_gamma   90.03853232
_symmetry_Int_Tables_number   1
_chemical_formula_structural   In2Te3
_chemical_formula_sum   'In72 Te108'
_cell_volume   6628.30604430
_cell_formula_units_Z   36
loop_
 _symmetry_equiv_pos_site_id
 _symmetry_equiv_pos_as_xyz
  1  'x, y, z'
loop_
 _atom_site_type_symbol
 _atom_site_label
 _atom_site_symmetry_multiplicity
 _atom_site_fract_x
 _atom_site_fract_y
 _atom_site_fract_z
 _atom_site_occupancy
  In  In0  1  0.66013391  0.66097194  0.33772166  1
  In  In1  1  0.17208900  0.68171941  0.51650499  1
  In  In2  1  0.01333257  0.00222515  0.34658902  1
  In  In3  1  0.32672875  0.67692595  -0.00051342  1
  In  In4  1  0.33475967  0.82259603  0.16731684  1
  In  In5  1  0.16731434  -0.01774457  0.83027880  1
  In  In6  1  0.00389860  0.84652590  0.84235450  1
  In  In7  1  0.16178436  0.48478263  0.33854290  1
  In  In8  1  0.01015334  0.32126260  -0.00227456  1
  In  In9  1  0.50161407  0.13477834  -0.02390442  1
  In  In10  1  0.83607590  0.17217284  0.66810940  1
  In  In11  1  0.84792270  0.32363442  0.85280386  1
  In  In12  1  0.00967365  0.66013201  -0.02256431  1
  In  In13  1  0.02141883  0.50112682  0.50092850  1
  In  In14  1  0.67099993  0.83897437  0.52722192  1
  In  In15  1  0.68420160  0.34981632  0.00678852  1
  In  In16  1  0.32445164  0.17589712  0.84022070  1
  In  In17  1  0.34094108  0.01296287  -0.00888836  1
  In  In18  1  0.15724923  0.14364237  0.66767851  1
  In  In19  1  0.83395672  0.45983289  -0.00009984  1
  In  In20  1  -0.01594607  0.15473967  0.50021943  1
  In  In21  1  0.48863476  0.32540764  0.16792651  1
  In  In22  1  0.31895722  0.14161649  0.51644036  1
  In  In23  1  0.15349786  0.82868016  -0.01947217  1
  In  In24  1  0.48980962  0.51022992  0.68387483  1
  In  In25  1  0.50673928  -0.00473379  0.82664780  1
  In  In26  1  0.84754618  0.86622539  0.35261407  1
  In  In27  1  0.81625703  0.88855852  -0.01405856  1
  In  In28  1  0.66814878  0.68351392  -0.01865372  1
  In  In29  1  0.18982328  0.66138759  0.17531921  1
  In  In30  1  0.83450391  0.85258814  0.65727506  1
  In  In31  1  0.48055373  0.49681512  0.33861712  1
  In  In32  1  0.68855326  0.02987087  0.34234699  1
  In  In33  1  0.84798405  0.52364961  0.66984769  1
  In  In34  1  0.67215304  0.49743717  0.51466227  1
  In  In35  1  0.49504162  0.15567215  0.65529016  1
  In  In36  1  0.32990514  0.33832655  0.32606802  1
  In  In37  1  0.33586194  0.65956389  0.34671139  1
  In  In38  1  0.47547962  0.48264676  0.01780370  1
  In  In39  1  0.51163177  0.84116736  0.66745503  1
  In  In40  1  0.84243647  0.30394096  0.48371499  1
  In  In41  1  0.51320138  0.01043850  0.49035226  1
  In  In42  1  0.66313840  0.51128596  0.82546358  1
  In  In43  1  0.67219642  0.16068055  0.16088145  1
  In  In44  1  0.32163030  0.49293865  0.83551020  1
  In  In45  1  0.47047879  0.67758075  0.18693426  1
  In  In46  1  0.64730897  0.88058605  0.14596061  1
  In  In47  1  0.47714518  0.84269780  0.33422804  1
  In  In48  1  0.84928844  0.69230060  0.80278777  1
  In  In49  1  0.68960800  0.32081436  0.64691073  1
  In  In50  1  0.00699672  0.47443969  0.16099916  1
  In  In51  1  0.49111622  0.15872556  0.33771572  1
  In  In52  1  0.19011916  0.35917872  0.52067224  1
  In  In53  1  0.00074589  0.33714516  0.67927542  1
  In  In54  1  -0.00095124  0.16560190  0.17264253  1
  In  In55  1  0.47064057  0.33109005  0.82273082  1
  In  In56  1  0.85431471  0.69871550  0.52832550  1
  In  In57  1  0.66032526  0.28922570  0.33853395  1
  In  In58  1  0.15799771  0.16388801  0.31567217  1
  In  In59  1  0.15033927  0.01340727  0.15965444  1
  In  In60  1  0.31423734  0.84494276  0.49576773  1
  In  In61  1  0.15636716  0.31988966  0.83057454  1
  In  In62  1  0.83659124  0.67659231  0.16441870  1
  In  In63  1  0.65628172  0.48465102  0.13379473  1
  In  In64  1  0.15059076  0.67612189  0.82589250  1
  In  In65  1  -0.02125591  0.85203647  0.15008158  1
  In  In66  1  0.34935618  0.66721085  0.66419737  1
  In  In67  1  0.85357955  0.48159406  0.31736780  1
  In  In68  1  0.85810367  0.12656613  -0.02388900  1
  In  In69  1  0.00968789  0.66998278  0.37316898  1
  In  In70  1  0.51373423  0.69704418  0.84211135  1
  In  In71  1  0.64445638  0.13944011  0.83634956  1
  Te  Te72  1  0.08940729  0.11143892  0.06649320  1
  Te  Te73  1  0.10813507  0.08539703  0.43836265  1
  Te  Te74  1  0.06641470  0.05356141  0.74401255  1
  Te  Te75  1  0.10568292  0.40176142  0.07882828  1
  Te  Te76  1  0.07347168  0.38830562  0.41692608  1
  Te  Te77  1  0.09944890  0.42518770  0.74191852  1
  Te  Te78  1  0.08130699  0.74477030  0.09361939  1
  Te  Te79  1  0.09335411  0.78059702  0.43074540  1
  Te  Te80  1  0.07564934  0.77047252  0.73639603  1
  Te  Te81  1  0.41882254  0.09007944  0.09064180  1
  Te  Te82  1  0.39493270  0.06276820  0.40836881  1
  Te  Te83  1  0.40409811  0.07928926  0.75174379  1
  Te  Te84  1  0.37899897  0.40546396  0.10169345  1
  Te  Te85  1  0.40915161  0.40676684  0.43022219  1
  Te  Te86  1  0.37970736  0.40180258  0.72093114  1
  Te  Te87  1  0.43359924  0.76277302  0.06570038  1
  Te  Te88  1  0.42113437  0.74576224  0.43754091  1
  Te  Te89  1  0.41001119  0.77120431  0.75893183  1
  Te  Te90  1  0.76458298  0.07073504  0.08204065  1
  Te  Te91  1  0.76636123  0.08357614  0.45479794  1
  Te  Te92  1  0.75646326  0.08048640  0.75914409  1
  Te  Te93  1  0.77520881  0.38925518  0.12413698  1
  Te  Te94  1  0.74488789  0.41030350  0.41112281  1
  Te  Te95  1  0.76072390  0.41399123  0.75440781  1
  Te  Te96  1  0.74862563  0.77268610  0.08548382  1
  Te  Te97  1  0.75680490  0.75139543  0.41456070  1
  Te  Te98  1  0.74209245  0.76641029  0.73857997  1
  Te  Te99  1  0.10791163  0.26179741  0.21490363  1
  Te  Te100  1  0.08230446  0.25512730  0.57917660  1
  Te  Te101  1  0.08069784  0.22128901  0.91317071  1
  Te  Te102  1  0.07109186  0.58897539  0.25706838  1
  Te  Te103  1  0.08065910  0.59431801  0.59562831  1
  Te  Te104  1  0.12129192  0.57466181  0.93302058  1
  Te  Te105  1  0.08273270  0.90696802  0.24689188  1
  Te  Te106  1  0.09727710  0.91153554  0.52532946  1
  Te  Te107  1  0.05892727  0.94263025  0.94853339  1
  Te  Te108  1  0.39554055  0.22887708  0.24121686  1
  Te  Te109  1  0.40990127  0.24353787  0.57446037  1
  Te  Te110  1  0.40816355  0.26042731  0.94820290  1
  Te  Te111  1  0.38478174  0.56369103  0.23793547  1
  Te  Te112  1  0.40381089  0.56209132  0.57169741  1
  Te  Te113  1  0.42647239  0.58201846  0.90526377  1
  Te  Te114  1  0.40164824  0.93005541  0.24379306  1
  Te  Te115  1  0.42062437  0.92332239  0.57602057  1
  Te  Te116  1  0.40483699  0.91677937  0.89918637  1
  Te  Te117  1  0.76421909  0.22259175  0.26048060  1
  Te  Te118  1  0.73455924  0.21073947  0.54588595  1
  Te  Te119  1  0.74216296  0.23497501  0.92043980  1
  Te  Te120  1  0.74683521  0.57788891  0.24052098  1
  Te  Te121  1  0.74639330  0.60597947  0.59274865  1
  Te  Te122  1  0.76176906  0.57715798  0.92241408  1
  Te  Te123  1  0.75556360  0.92743839  0.24894059  1
  Te  Te124  1  0.76778348  0.94800863  0.55796567  1
  Te  Te125  1  0.72805416  0.94943849  0.88361862  1
  Te  Te126  1  0.28230505  0.27878627  0.03272288  1
  Te  Te127  1  0.24471151  0.24918760  0.42584098  1
  Te  Te128  1  0.24951210  0.24831766  0.72944774  1
  Te  Te129  1  0.23962495  0.57622027  0.06442913  1
  Te  Te130  1  0.24368286  0.57319590  0.43125293  1
  Te  Te131  1  0.24466295  0.58683393  0.74310895  1
  Te  Te132  1  0.24413948  0.90913637  0.07465683  1
  Te  Te133  1  0.21345829  0.93781239  0.43569106  1
  Te  Te134  1  0.23826599  0.92206536  0.71489949  1
  Te  Te135  1  0.58054287  0.24958948  0.07019365  1
  Te  Te136  1  0.55901584  0.24692739  0.43549072  1
  Te  Te137  1  0.58957344  0.25849405  0.75302781  1
  Te  Te138  1  0.57156537  0.59672906  0.07585303  1
  Te  Te139  1  0.57210862  0.58022547  0.43054814  1
  Te  Te140  1  0.59051351  0.61293443  0.73917825  1
  Te  Te141  1  0.54578099  0.93694078  0.05783994  1
  Te  Te142  1  0.59719104  0.90919247  0.40321942  1
  Te  Te143  1  0.60847655  0.92832492  0.74169957  1
  Te  Te144  1  0.90407708  0.23838373  0.06881073  1
  Te  Te145  1  0.92392796  0.22839943  0.38484112  1
  Te  Te146  1  0.93561410  0.23243302  0.76900785  1
  Te  Te147  1  0.91659065  0.57802637  0.07950177  1
  Te  Te148  1  0.89598319  0.57840661  0.42889535  1
  Te  Te149  1  0.94359664  0.58778979  0.76127818  1
  Te  Te150  1  0.89916737  0.96136449  0.08907034  1
  Te  Te151  1  0.94364604  0.91919433  0.45402281  1
  Te  Te152  1  0.90417626  0.93361034  0.76849908  1
  Te  Te153  1  0.25385421  0.07665641  0.24408428  1
  Te  Te154  1  0.25447870  0.03956478  0.61281845  1
  Te  Te155  1  0.22947416  0.09072883  0.92202386  1
  Te  Te156  1  0.22535933  0.39847307  0.23677207  1
  Te  Te157  1  0.27963530  0.44791683  0.59589530  1
  Te  Te158  1  0.25453788  0.39050293  0.92531737  1
  Te  Te159  1  0.24558533  0.76088335  0.27724844  1
  Te  Te160  1  0.24687682  0.77567163  0.61611390  1
  Te  Te161  1  0.25837947  0.76257515  0.89319581  1
  Te  Te162  1  0.57797668  0.07328535  0.24514176  1
  Te  Te163  1  0.59595020  0.06336133  0.60120713  1
  Te  Te164  1  0.62403884  0.03521850  0.96370732  1
  Te  Te165  1  0.58462798  0.41633734  0.25329454  1
  Te  Te166  1  0.57716932  0.41125406  0.59792987  1
  Te  Te167  1  0.57660266  0.41887362  0.91284794  1
  Te  Te168  1  0.58824080  0.75837113  0.24272232  1
  Te  Te169  1  0.56946800  0.74281153  0.57171130  1
  Te  Te170  1  0.59488011  0.79441043  0.91834311  1
  Te  Te171  1  0.91763096  0.08276730  0.26647027  1
  Te  Te172  1  0.92187413  0.06911402  0.60328028  1
  Te  Te173  1  0.93267993  0.04264255  0.87862053  1
  Te  Te174  1  0.94123124  0.38124114  0.25582278  1
  Te  Te175  1  0.90311241  0.40976548  0.57703716  1
  Te  Te176  1  0.94477794  0.42994928  0.90076230  1
  Te  Te177  1  0.92243594  0.75240846  0.26556322  1
  Te  Te178  1  0.95193882  0.76499695  0.61725184  1
  Te  Te179  1  0.90320398  0.76344862  0.93603785  1
