# generated using pymatgen
data_In2Te3
_symmetry_space_group_name_H-M   'P 1'
_cell_length_a   18.78022079
_cell_length_b   18.77879597
_cell_length_c   18.78083833
_cell_angle_alpha   89.99179164
_cell_angle_beta   89.99825404
_cell_angle_gamma   90.00978755
_symmetry_Int_Tables_number   1
_chemical_formula_structural   In2Te3
_chemical_formula_sum   'In72 Te108'
_cell_volume   6623.43685756
_cell_formula_units_Z   36
loop_
 _symmetry_equiv_pos_site_id
 _symmetry_equiv_pos_as_xyz
  1  'x, y, z'
loop_
 _atom_site_type_symbol
 _atom_site_label
 _atom_site_symmetry_multiplicity
 _atom_site_fract_x
 _atom_site_fract_y
 _atom_site_fract_z
 _atom_site_occupancy
  In  In0  1  0.50369835  0.47739352  0.66377064  1
  In  In1  1  0.18171941  0.66046516  0.84804591  1
  In  In2  1  0.48032571  0.49503477  0.33814373  1
  In  In3  1  0.83637368  0.33508818  0.15198450  1
  In  In4  1  0.17186652  0.83693779  0.67285884  1
  In  In5  1  0.32787734  0.64372502  0.33705708  1
  In  In6  1  0.15999265  0.00463382  0.49833340  1
  In  In7  1  0.65004423  0.31900025  -0.00998400  1
  In  In8  1  0.65314463  -0.00467552  0.01647226  1
  In  In9  1  0.66247006  0.15582750  0.49559729  1
  In  In10  1  0.65713564  0.15482623  0.16568962  1
  In  In11  1  0.17864853  0.47498429  0.32734363  1
  In  In12  1  0.00046774  0.32875867  0.68260452  1
  In  In13  1  0.33925749  0.16478256  0.82589138  1
  In  In14  1  0.82465279  0.32249540  0.51316112  1
  In  In15  1  -0.01109520  -0.00510707  0.34723964  1
  In  In16  1  0.64371402  0.47620270  0.53615000  1
  In  In17  1  0.49745047  0.67710219  0.83620206  1
  In  In18  1  0.02929018  0.85407279  0.84494242  1
  In  In19  1  0.81810834  0.87081659  0.33911944  1
  In  In20  1  0.36357692  -0.01572305  -0.02775263  1
  In  In21  1  0.19223848  0.16468804  0.01880674  1
  In  In22  1  0.33353502  -0.00505609  0.68018989  1
  In  In23  1  0.49518539  0.01046797  0.50619000  1
  In  In24  1  0.67979682  0.67296451  0.64748826  1
  In  In25  1  0.30153509  0.83657550  0.50155047  1
  In  In26  1  0.84776450  0.50171754  -0.01730489  1
  In  In27  1  0.33854252  0.33972411  0.65952395  1
  In  In28  1  0.35422455  0.31616863  0.31422000  1
  In  In29  1  0.35182865  0.67520315  0.69078995  1
  In  In30  1  0.17466426  0.34251456  0.82615416  1
  In  In31  1  0.62614497  0.86085736  0.81121910  1
  In  In32  1  0.52325771  0.67628200  0.49981539  1
  In  In33  1  0.84752178  0.50174847  0.32542565  1
  In  In34  1  0.33558409  0.83930375  0.14507317  1
  In  In35  1  0.82676899  0.83874650  0.65139702  1
  In  In36  1  0.83880757  0.48841167  0.68231366  1
  In  In37  1  -0.00279001  0.01615211  0.66624515  1
  In  In38  1  0.00272489  0.65928286  0.00356674  1
  In  In39  1  0.16628052  0.66300460  0.15738952  1
  In  In40  1  0.63800574  0.50344032  0.16844715  1
  In  In41  1  0.34434709  0.17149347  0.50581499  1
  In  In42  1  0.65306015  0.69525785  0.32105483  1
  In  In43  1  0.33539548  0.67831767  -0.01258800  1
  In  In44  1  0.85813952  0.17465245  -0.01802168  1
  In  In45  1  0.83517943  -0.01445209  0.18665969  1
  In  In46  1  0.17410228  0.32973316  0.52525171  1
  In  In47  1  0.82686012  0.82869521  0.00175369  1
  In  In48  1  0.32697742  0.49287524  0.48790741  1
  In  In49  1  0.01084976  0.16273259  0.81572144  1
  In  In50  1  0.83305775  0.66403804  0.13195396  1
  In  In51  1  0.18855071  0.01969524  0.17771152  1
  In  In52  1  0.87556365  0.67306492  0.49588560  1
  In  In53  1  0.84567266  0.64515908  0.80308933  1
  In  In54  1  0.66617147  0.47934714  0.83588254  1
  In  In55  1  -0.00649133  0.16427881  0.50021096  1
  In  In56  1  0.16968080  0.49527572  0.00444087  1
  In  In57  1  0.65180319  0.18944528  0.81391565  1
  In  In58  1  0.64494989  0.32325472  0.35946060  1
  In  In59  1  0.01387732  0.68439890  0.33502219  1
  In  In60  1  0.34944187  0.33101041  0.03004862  1
  In  In61  1  0.82886883  0.02963521  0.83074064  1
  In  In62  1  -0.00109762  0.80973569  0.15607821  1
  In  In63  1  0.49588457  0.02523624  0.16791313  1
  In  In64  1  0.65179383  0.66146773  0.02648732  1
  In  In65  1  0.49153015  0.84071588  0.31747344  1
  In  In66  1  0.16390400  0.83941891  0.35136157  1
  In  In67  1  0.04224094  0.30734713  0.30662206  1
  In  In68  1  0.65642437  0.83876141  0.52221658  1
  In  In69  1  0.49266556  0.16570425  0.00077614  1
  In  In70  1  0.00124861  0.35142676  -0.00575190  1
  In  In71  1  0.82288928  0.15218055  0.34313418  1
  Te  Te72  1  0.08810711  0.08754944  0.09306926  1
  Te  Te73  1  0.08929900  0.09777201  0.39996183  1
  Te  Te74  1  0.10161039  0.06047095  0.75974614  1
  Te  Te75  1  0.08773190  0.41389389  0.09885094  1
  Te  Te76  1  0.08458286  0.39943435  0.42186386  1
  Te  Te77  1  0.08912020  0.43120513  0.74403709  1
  Te  Te78  1  0.10762565  0.76078324  0.05331172  1
  Te  Te79  1  0.08131930  0.75977926  0.44605363  1
  Te  Te80  1  0.08523061  0.74271499  0.75840079  1
  Te  Te81  1  0.38684484  0.09633606  0.08497639  1
  Te  Te82  1  0.41648215  0.08762825  0.40622358  1
  Te  Te83  1  0.43888262  0.08533263  0.74458819  1
  Te  Te84  1  0.45583341  0.42811779  0.06676352  1
  Te  Te85  1  0.42576872  0.39225304  0.43551051  1
  Te  Te86  1  0.40565254  0.42561012  0.76065799  1
  Te  Te87  1  0.43217865  0.75624372  0.07098964  1
  Te  Te88  1  0.41122125  0.74878664  0.42123530  1
  Te  Te89  1  0.40432454  0.78584817  0.78051346  1
  Te  Te90  1  0.76463074  0.09079343  0.07448990  1
  Te  Te91  1  0.75445875  0.05639531  0.42906177  1
  Te  Te92  1  0.73065414  0.08771171  0.73772369  1
  Te  Te93  1  0.73976162  0.42712978  0.07382077  1
  Te  Te94  1  0.74711848  0.42357044  0.41515209  1
  Te  Te95  1  0.72929623  0.39624756  0.73011315  1
  Te  Te96  1  0.72886093  0.77158438  0.10383056  1
  Te  Te97  1  0.74602943  0.74819450  0.43098527  1
  Te  Te98  1  0.74245955  0.75779413  0.75968997  1
  Te  Te99  1  0.13823492  0.22784633  0.22626881  1
  Te  Te100  1  0.08689225  0.23067230  0.60029334  1
  Te  Te101  1  0.09548659  0.24781112  0.92018470  1
  Te  Te102  1  0.08385145  0.57786738  0.25120837  1
  Te  Te103  1  0.02295448  0.63179994  0.54512050  1
  Te  Te104  1  0.07412603  0.56556595  0.90865280  1
  Te  Te105  1  0.07844026  0.90968322  0.24349670  1
  Te  Te106  1  0.07394581  0.91200320  0.58161013  1
  Te  Te107  1  0.10122874  0.90255074  0.96165512  1
  Te  Te108  1  0.39334609  0.20660507  0.22178532  1
  Te  Te109  1  0.43236757  0.23614777  0.60744020  1
  Te  Te110  1  0.42123422  0.26199193  0.90755414  1
  Te  Te111  1  0.42060617  0.58704697  0.23831471  1
  Te  Te112  1  0.42605456  0.58222611  0.57244523  1
  Te  Te113  1  0.40028949  0.58149112  0.89346465  1
  Te  Te114  1  0.39562052  0.93522093  0.24721835  1
  Te  Te115  1  0.40927875  0.90397624  0.58200924  1
  Te  Te116  1  0.45111848  0.91146656  0.87182336  1
  Te  Te117  1  0.74628314  0.25904048  0.25039296  1
  Te  Te118  1  0.74574194  0.23171851  0.59574052  1
  Te  Te119  1  0.76068346  0.26017945  0.90325047  1
  Te  Te120  1  0.74714738  0.58472130  0.24267171  1
  Te  Te121  1  0.76815108  0.57677950  0.56864443  1
  Te  Te122  1  0.74467057  0.59702413  0.91798696  1
  Te  Te123  1  0.71747396  0.91570179  0.24198017  1
  Te  Te124  1  0.72975665  0.93834929  0.60405804  1
  Te  Te125  1  0.74397997  0.92182959  0.91113175  1
  Te  Te126  1  0.21924939  0.29116821  0.09969387  1
  Te  Te127  1  0.25279905  0.25783980  0.41841886  1
  Te  Te128  1  0.24475293  0.24212784  0.73524097  1
  Te  Te129  1  0.26787462  0.57610291  0.08897437  1
  Te  Te130  1  0.22059175  0.58654087  0.42728869  1
  Te  Te131  1  0.26314937  0.57600338  0.75562978  1
  Te  Te132  1  0.24282256  0.92800034  0.06402190  1
  Te  Te133  1  0.26191108  0.94506965  0.40064813  1
  Te  Te134  1  0.25239352  0.91049434  0.77365696  1
  Te  Te135  1  0.56494874  0.25708475  0.10063907  1
  Te  Te136  1  0.55568615  0.21573035  0.40664289  1
  Te  Te137  1  0.58162037  0.30177743  0.74537039  1
  Te  Te138  1  0.54474799  0.56162659  0.06329704  1
  Te  Te139  1  0.59473412  0.57441713  0.40996031  1
  Te  Te140  1  0.59336035  0.58585457  0.74121555  1
  Te  Te141  1  0.55179690  0.91472113  0.08527205  1
  Te  Te142  1  0.58168406  0.91581771  0.41407212  1
  Te  Te143  1  0.53811159  0.96036565  0.74637247  1
  Te  Te144  1  0.94071830  0.24287650  0.09017274  1
  Te  Te145  1  0.91712576  0.26147897  0.40154225  1
  Te  Te146  1  0.90452700  0.23616280  0.74581428  1
  Te  Te147  1  0.93499194  0.55767857  0.09609213  1
  Te  Te148  1  0.95094560  0.55939156  0.42073059  1
  Te  Te149  1  0.95245644  0.56872724  0.73670980  1
  Te  Te150  1  0.92223831  0.91926333  0.07926586  1
  Te  Te151  1  0.91868663  0.90401873  0.44017681  1
  Te  Te152  1  0.91261695  0.91226848  0.76102838  1
  Te  Te153  1  0.25933902  0.12964946  0.25222796  1
  Te  Te154  1  0.24737441  0.08599205  0.59141719  1
  Te  Te155  1  0.25331204  0.07282718  0.90989768  1
  Te  Te156  1  0.28717462  0.42629555  0.24047772  1
  Te  Te157  1  0.23545783  0.44620701  0.60019182  1
  Te  Te158  1  0.26786176  0.41287875  0.92291107  1
  Te  Te159  1  0.24832598  0.75542675  0.25244718  1
  Te  Te160  1  0.24557922  0.72733125  0.59234758  1
  Te  Te161  1  0.25795080  0.77585705  0.90440581  1
  Te  Te162  1  0.58303656  0.08671242  0.27296617  1
  Te  Te163  1  0.58673935  0.07844386  0.60204542  1
  Te  Te164  1  0.58752679  0.08692668  0.91413047  1
  Te  Te165  1  0.56440360  0.39833983  0.25210260  1
  Te  Te166  1  0.57189227  0.35632558  0.59639807  1
  Te  Te167  1  0.56121628  0.41887164  0.92296861  1
  Te  Te168  1  0.54463595  0.73309024  0.22837681  1
  Te  Te169  1  0.56014908  0.76605121  0.61744955  1
  Te  Te170  1  0.59233823  0.76020534  0.92301951  1
  Te  Te171  1  0.92604503  0.09305386  0.24651056  1
  Te  Te172  1  0.89931742  0.08229878  0.57804421  1
  Te  Te173  1  0.94652681  0.06735969  0.92018811  1
  Te  Te174  1  0.93480321  0.40439020  0.24736683  1
  Te  Te175  1  0.92596815  0.41500164  0.57797480  1
  Te  Te176  1  0.91276829  0.40851895  0.89014969  1
  Te  Te177  1  0.89755610  0.74692879  0.25483546  1
  Te  Te178  1  0.93441915  0.73833530  0.61992925  1
  Te  Te179  1  0.91380765  0.74216472  0.91031527  1
