# generated using pymatgen
data_In2Te3
_symmetry_space_group_name_H-M   'P 1'
_cell_length_a   18.96786936
_cell_length_b   18.96061291
_cell_length_c   18.96360780
_cell_angle_alpha   89.85333100
_cell_angle_beta   89.98136387
_cell_angle_gamma   89.99618064
_symmetry_Int_Tables_number   1
_chemical_formula_structural   In2Te3
_chemical_formula_sum   'In72 Te108'
_cell_volume   6820.09524311
_cell_formula_units_Z   36
loop_
 _symmetry_equiv_pos_site_id
 _symmetry_equiv_pos_as_xyz
  1  'x, y, z'
loop_
 _atom_site_type_symbol
 _atom_site_label
 _atom_site_symmetry_multiplicity
 _atom_site_fract_x
 _atom_site_fract_y
 _atom_site_fract_z
 _atom_site_occupancy
  In  In0  1  0.65076688  0.16112444  0.51299439  1
  In  In1  1  0.34024546  0.81610750  0.20251187  1
  In  In2  1  0.17285038  0.49665687  0.32295652  1
  In  In3  1  0.65489668  -0.02031608  0.64611439  1
  In  In4  1  0.69504488  0.82037513  0.83149680  1
  In  In5  1  0.66759270  0.34132706  0.68463536  1
  In  In6  1  0.17863403  0.19963301  0.35796205  1
  In  In7  1  0.31869698  0.65519038  -0.00652940  1
  In  In8  1  0.01628788  0.48364759  0.18068811  1
  In  In9  1  -0.02036795  0.66363498  -0.02187229  1
  In  In10  1  0.81657613  0.68544369  0.49633406  1
  In  In11  1  0.82970172  0.15134186  0.01047935  1
  In  In12  1  0.52044763  0.33673146  0.84693286  1
  In  In13  1  0.48601868  0.51026934  -0.02201056  1
  In  In14  1  0.48275124  0.50992098  0.67031587  1
  In  In15  1  0.83447152  0.02031725  0.17983735  1
  In  In16  1  0.15082202  0.68714587  0.48776792  1
  In  In17  1  0.17414218  0.15822486  0.65343740  1
  In  In18  1  0.82004851  0.49277745  0.32258817  1
  In  In19  1  0.35017539  0.33014733  0.01275939  1
  In  In20  1  0.16535449  0.83360027  0.00466750  1
  In  In21  1  0.46872910  0.33729016  0.50568868  1
  In  In22  1  0.48835288  0.85536716  0.35060328  1
  In  In23  1  -0.01171585  0.02392117  0.33051296  1
  In  In24  1  0.35518484  0.19014588  0.19095471  1
  In  In25  1  -0.00626191  0.14791752  0.19139516  1
  In  In26  1  0.31312406  0.33802370  0.65311161  1
  In  In27  1  0.65348977  0.02633445  0.33032147  1
  In  In28  1  0.18277876  0.04022870  0.18341395  1
  In  In29  1  0.32596332  0.49104693  0.16658349  1
  In  In30  1  0.83540145  0.85511482  0.65226773  1
  In  In31  1  0.69052187  0.81126815  0.12955292  1
  In  In32  1  0.82665050  0.14203011  0.65297270  1
  In  In33  1  0.67899142  0.68129810  0.31876588  1
  In  In34  1  0.15338052  0.82240534  0.66195863  1
  In  In35  1  0.68827219  -0.01294166  -0.00579329  1
  In  In36  1  0.85487954  0.49407620  0.67571167  1
  In  In37  1  -0.00717553  0.50752675  0.49666607  1
  In  In38  1  0.67652799  0.15702336  0.83980792  1
  In  In39  1  -0.01220609  0.82324397  0.16796681  1
  In  In40  1  0.16607230  0.65769856  0.81373117  1
  In  In41  1  0.45132481  0.68846770  0.56487921  1
  In  In42  1  0.52019301  0.02189742  0.16076624  1
  In  In43  1  0.64944051  0.65273043  0.67338487  1
  In  In44  1  0.00289559  0.01015785  0.65021395  1
  In  In45  1  0.01314952  0.33536728  0.02276115  1
  In  In46  1  0.32083890  0.51482483  0.82892954  1
  In  In47  1  0.34040056  0.81690409  0.77686584  1
  In  In48  1  0.81560884  0.50939753  -0.00316014  1
  In  In49  1  0.84259635  0.85804999  0.32580596  1
  In  In50  1  0.67344971  0.49033512  0.47784511  1
  In  In51  1  0.64389170  0.31563500  0.04887340  1
  In  In52  1  0.34501696  -0.02598624  0.01210116  1
  In  In53  1  0.15779609  0.84522354  0.33762505  1
  In  In54  1  0.01932611  0.32365599  0.66897549  1
  In  In55  1  0.16124949  0.35162303  0.85694954  1
  In  In56  1  0.34128114  0.16078700  0.84166277  1
  In  In57  1  0.48724393  0.68040996  0.16330948  1
  In  In58  1  0.83636015  0.32382975  0.82266021  1
  In  In59  1  0.66111732  0.50185737  0.14655452  1
  In  In60  1  0.31680032  0.66112308  0.34736592  1
  In  In61  1  0.17898150  -0.02593567  0.81233509  1
  In  In62  1  -0.01666720  0.00019456  -0.01634818  1
  In  In63  1  0.17078669  0.18245025  -0.01487212  1
  In  In64  1  -0.01388634  0.66851893  0.66228441  1
  In  In65  1  -0.01963133  0.30987600  0.34609172  1
  In  In66  1  0.20274948  0.00357477  0.49668176  1
  In  In67  1  0.00926747  0.50048876  0.83022799  1
  In  In68  1  0.67357717  0.30979140  0.31872274  1
  In  In69  1  0.51940549  0.01226030  0.81857774  1
  In  In70  1  0.49280361  0.48678229  0.36255474  1
  In  In71  1  0.51351419  0.82038378  -0.04338227  1
  Te  Te72  1  0.08193201  0.08524373  0.07453595  1
  Te  Te73  1  0.10091142  0.08311677  0.41395807  1
  Te  Te74  1  0.09175367  0.08353675  0.75618027  1
  Te  Te75  1  0.11129456  0.41711053  0.09018971  1
  Te  Te76  1  0.07031576  0.41440697  0.40655464  1
  Te  Te77  1  0.10515545  0.42858705  0.73807162  1
  Te  Te78  1  0.07424001  0.73812115  0.07720165  1
  Te  Te79  1  0.05760884  0.76078662  0.40214319  1
  Te  Te80  1  0.06144858  0.75432687  0.76244462  1
  Te  Te81  1  0.40744834  0.08951296  0.08312832  1
  Te  Te82  1  0.38377203  0.01109294  0.46743990  1
  Te  Te83  1  0.40968909  0.07524136  0.74534449  1
  Te  Te84  1  0.43973753  0.42213214  0.09282972  1
  Te  Te85  1  0.37929455  0.39706053  0.39927008  1
  Te  Te86  1  0.40888718  0.40325093  0.76674224  1
  Te  Te87  1  0.40531528  0.76549863  0.06668741  1
  Te  Te88  1  0.41542122  0.74600531  0.42361556  1
  Te  Te89  1  0.44776604  0.74761909  0.70699190  1
  Te  Te90  1  0.72402482  0.09216002  0.10120249  1
  Te  Te91  1  0.74399027  0.07287838  0.43818370  1
  Te  Te92  1  0.74279559  0.05930647  0.74823451  1
  Te  Te93  1  0.76176475  0.40150520  0.09349493  1
  Te  Te94  1  0.76537350  0.38826571  0.41884053  1
  Te  Te95  1  0.74927873  0.43638681  0.76965976  1
  Te  Te96  1  0.78320594  0.73066771  0.04646526  1
  Te  Te97  1  0.73539439  0.78199381  0.41513893  1
  Te  Te98  1  0.76421067  0.73934296  0.72413290  1
  Te  Te99  1  0.08784542  0.25095916  0.24742293  1
  Te  Te100  1  0.09431647  0.24766672  0.56470256  1
  Te  Te101  1  0.06043654  0.24878282  0.90595736  1
  Te  Te102  1  0.07033622  0.58605003  0.26908717  1
  Te  Te103  1  0.08416647  0.58269004  0.58916268  1
  Te  Te104  1  0.09881797  0.57781316  0.92306264  1
  Te  Te105  1  0.07707101  0.93618400  0.23503537  1
  Te  Te106  1  0.09228167  0.92158038  0.56575270  1
  Te  Te107  1  0.07706463  0.90858007  0.90748562  1
  Te  Te108  1  0.45396767  0.27858803  0.25156189  1
  Te  Te109  1  0.42059320  0.24862463  0.61111851  1
  Te  Te110  1  0.43764299  0.23873554  0.92998519  1
  Te  Te111  1  0.42190256  0.58386839  0.25989021  1
  Te  Te112  1  0.39905550  0.54960008  0.55852186  1
  Te  Te113  1  0.41970065  0.61428790  0.88909379  1
  Te  Te114  1  0.41934358  0.93696862  0.24263086  1
  Te  Te115  1  0.47205459  0.93534491  0.55209871  1
  Te  Te116  1  0.41065335  0.91173472  0.89011955  1
  Te  Te117  1  0.75659836  0.22137124  0.23902477  1
  Te  Te118  1  0.74711383  0.25519847  0.59029816  1
  Te  Te119  1  0.74507373  0.26044381  0.92750299  1
  Te  Te120  1  0.75590109  0.59125394  0.22471084  1
  Te  Te121  1  0.76041658  0.56673502  0.57912536  1
  Te  Te122  1  0.74727093  0.62533043  0.93759873  1
  Te  Te123  1  0.72725708  0.92322161  0.23511069  1
  Te  Te124  1  0.76780599  0.94624646  0.55572733  1
  Te  Te125  1  0.78374993  0.90642599  0.91490730  1
  Te  Te126  1  0.24907999  0.24997207  0.09302636  1
  Te  Te127  1  0.28837067  0.25902240  0.43948386  1
  Te  Te128  1  0.24145754  0.25136433  0.76961256  1
  Te  Te129  1  0.24393911  0.59421476  0.10201461  1
  Te  Te130  1  0.23889039  0.57025640  0.43807026  1
  Te  Te131  1  0.25842558  0.59173227  0.72159541  1
  Te  Te132  1  0.24398298  0.91301848  0.11030689  1
  Te  Te133  1  0.27399343  0.90237769  0.41095071  1
  Te  Te134  1  0.26748508  0.92453690  0.70124743  1
  Te  Te135  1  0.55565131  0.24400359  0.14590667  1
  Te  Te136  1  0.57338031  0.26022564  0.42664806  1
  Te  Te137  1  0.58142784  0.23603546  0.75127525  1
  Te  Te138  1  0.57376885  0.60019745  0.07047996  1
  Te  Te139  1  0.59056330  0.59668366  0.40940920  1
  Te  Te140  1  0.58541525  0.55822580  0.76352077  1
  Te  Te141  1  0.57297086  0.90572057  0.06751867  1
  Te  Te142  1  0.57994680  0.93871963  0.43242893  1
  Te  Te143  1  0.58664842  0.89513309  0.75228160  1
  Te  Te144  1  0.91943148  0.23968887  0.09390509  1
  Te  Te145  1  0.92438196  0.21201032  0.43908457  1
  Te  Te146  1  0.91928199  0.23212433  0.73915761  1
  Te  Te147  1  0.92696403  0.56563279  0.08055577  1
  Te  Te148  1  0.89832244  0.58910221  0.41051109  1
  Te  Te149  1  0.90791178  0.59714017  0.77312003  1
  Te  Te150  1  0.90450349  0.92295866  0.08794171  1
  Te  Te151  1  0.93019009  0.92568725  0.42117627  1
  Te  Te152  1  0.92937968  0.92248409  0.74109981  1
  Te  Te153  1  0.27547311  0.10003927  0.28445025  1
  Te  Te154  1  0.28563238  0.10448606  0.57016138  1
  Te  Te155  1  0.24449282  0.06193367  0.92666291  1
  Te  Te156  1  0.26515002  0.39745165  0.26251931  1
  Te  Te157  1  0.22057599  0.35237995  0.53878380  1
  Te  Te158  1  0.26026928  0.42977249  0.93965004  1
  Te  Te159  1  0.22472699  0.73454296  0.25201292  1
  Te  Te160  1  0.24854669  0.75084898  0.57667535  1
  Te  Te161  1  0.24996813  0.76385778  0.89750244  1
  Te  Te162  1  0.55036523  0.11744256  0.27097880  1
  Te  Te163  1  0.55537552  0.07700866  0.59215898  1
  Te  Te164  1  0.58417679  0.08311653  0.93556567  1
  Te  Te165  1  0.59891727  0.43376071  0.26809138  1
  Te  Te166  1  0.58563112  0.42090672  0.58205888  1
  Te  Te167  1  0.60325725  0.41880407  0.94182140  1
  Te  Te168  1  0.57634583  0.77041849  0.24586270  1
  Te  Te169  1  0.58642904  0.74546780  0.57901688  1
  Te  Te170  1  0.61119885  0.72193581  0.90683657  1
  Te  Te171  1  0.87047057  0.12765877  0.28733129  1
  Te  Te172  1  0.93618792  0.10851934  0.55566355  1
  Te  Te173  1  0.89800068  0.08493033  0.90059258  1
  Te  Te174  1  0.90812246  0.39767043  0.24494168  1
  Te  Te175  1  0.92120373  0.40035974  0.57955699  1
  Te  Te176  1  0.91971457  0.41300049  0.91683774  1
  Te  Te177  1  0.89471650  0.74477457  0.24926289  1
  Te  Te178  1  0.92590140  0.76459414  0.56379275  1
  Te  Te179  1  0.88591676  0.76960885  0.93600007  1
