# generated using pymatgen
data_In2Te3
_symmetry_space_group_name_H-M   'P 1'
_cell_length_a   18.86124006
_cell_length_b   18.88398629
_cell_length_c   18.87266937
_cell_angle_alpha   89.93506610
_cell_angle_beta   89.94696763
_cell_angle_gamma   90.04554887
_symmetry_Int_Tables_number   1
_chemical_formula_structural   In2Te3
_chemical_formula_sum   'In72 Te108'
_cell_volume   6721.97121020
_cell_formula_units_Z   36
loop_
 _symmetry_equiv_pos_site_id
 _symmetry_equiv_pos_as_xyz
  1  'x, y, z'
loop_
 _atom_site_type_symbol
 _atom_site_label
 _atom_site_symmetry_multiplicity
 _atom_site_fract_x
 _atom_site_fract_y
 _atom_site_fract_z
 _atom_site_occupancy
  In  In0  1  0.67419490  0.83334698  0.50230304  1
  In  In1  1  0.17137924  0.66643772  0.17568711  1
  In  In2  1  -0.00269222  0.83725916  0.82012537  1
  In  In3  1  -0.01409102  0.32831592  0.64906426  1
  In  In4  1  0.35061837  0.51723937  0.49847263  1
  In  In5  1  0.66615015  0.46530473  0.83119853  1
  In  In6  1  0.13512567  0.32144058  0.84308221  1
  In  In7  1  0.67100307  0.67846008  0.34073636  1
  In  In8  1  0.01166247  -0.00911339  0.66342237  1
  In  In9  1  0.65798727  0.84238274  0.80212696  1
  In  In10  1  0.15232932  0.68821124  0.85723814  1
  In  In11  1  0.32260275  0.33279935  -0.00167664  1
  In  In12  1  0.47884581  0.84159374  0.00714451  1
  In  In13  1  -0.01139940  0.00761339  -0.00727578  1
  In  In14  1  0.14770793  -0.00452003  0.16247652  1
  In  In15  1  0.51313100  0.31678866  0.82347174  1
  In  In16  1  0.32423521  0.67556623  0.67376798  1
  In  In17  1  0.31426893  0.48976340  0.85726945  1
  In  In18  1  0.18313944  0.00114972  0.84290437  1
  In  In19  1  -0.01443425  0.31424881  0.01370527  1
  In  In20  1  0.84299384  0.15158030  0.66641878  1
  In  In21  1  0.31528503  0.86445412  0.83490966  1
  In  In22  1  0.34806798  0.18321365  0.15052429  1
  In  In23  1  0.53019233  0.51884945  0.34222541  1
  In  In24  1  0.83257218  0.49005503  -0.01504776  1
  In  In25  1  0.15952643  0.01207981  0.49773970  1
  In  In26  1  0.13475119  0.14701473  0.33678063  1
  In  In27  1  -0.00749173  0.66900808  -0.00032689  1
  In  In28  1  0.52033580  0.83743369  0.33761122  1
  In  In29  1  0.69459418  0.15594703  0.49116767  1
  In  In30  1  0.15381452  0.51454830  0.64034508  1
  In  In31  1  0.83911182  0.00175616  0.83380824  1
  In  In32  1  0.32141801  -0.01041388  0.32539850  1
  In  In33  1  0.83098075  0.32294873  0.83032622  1
  In  In34  1  0.50837875  0.49162686  0.64576769  1
  In  In35  1  0.33625766  0.84773981  0.16497510  1
  In  In36  1  -0.00186290  0.65606088  0.34411646  1
  In  In37  1  0.33863486  0.70274479  0.33281624  1
  In  In38  1  0.33126910  0.52610697  0.15011719  1
  In  In39  1  0.69992377  0.02656132  0.02006128  1
  In  In40  1  0.81657178  0.66753605  0.18015414  1
  In  In41  1  0.82470538  0.30969249  0.18757417  1
  In  In42  1  0.64953194  -0.02135832  0.63577860  1
  In  In43  1  -0.00142434  0.87493849  0.20082925  1
  In  In44  1  0.56747969  0.32970100  0.49500109  1
  In  In45  1  0.33086730  0.34066755  0.35068084  1
  In  In46  1  0.34175260  0.16877630  0.49181612  1
  In  In47  1  0.14867273  0.83334345  0.65496067  1
  In  In48  1  0.18397512  0.82712729  0.02748071  1
  In  In49  1  0.14846925  0.67955674  0.51044856  1
  In  In50  1  0.52143842  0.49143971  -0.01704684  1
  In  In51  1  0.16241465  0.50204867  0.31797396  1
  In  In52  1  0.86416532  0.84636542  0.00177388  1
  In  In53  1  0.14801959  0.33007605  0.53637962  1
  In  In54  1  0.34993034  0.31474282  0.67990754  1
  In  In55  1  0.14277325  0.16427840  0.67619379  1
  In  In56  1  0.70526743  0.02097889  0.32518024  1
  In  In57  1  0.84725863  0.63635487  0.77586500  1
  In  In58  1  0.66424924  0.66716719  0.64445107  1
  In  In59  1  -0.00550152  0.47320220  0.48630580  1
  In  In60  1  0.51761420  0.13539404  0.34650188  1
  In  In61  1  0.48976942  0.14871938  0.68629418  1
  In  In62  1  0.68146427  0.50680231  0.15349471  1
  In  In63  1  0.51294782  0.16620257  0.01500458  1
  In  In64  1  0.51765468  0.31333797  0.16299395  1
  In  In65  1  0.85547565  0.68816315  0.52055725  1
  In  In66  1  0.47723419  0.66210066  0.82557596  1
  In  In67  1  0.14116069  0.31721266  0.16826406  1
  In  In68  1  0.66921970  0.85532466  0.17881599  1
  In  In69  1  0.66293189  0.17912594  0.82707324  1
  In  In70  1  -0.04051268  0.29874939  0.34658656  1
  In  In71  1  0.65665635  0.66154459  0.00083154  1
  Te  Te72  1  0.08053944  0.09024215  0.07331081  1
  Te  Te73  1  0.04516891  0.08577008  0.43744974  1
  Te  Te74  1  0.06798680  0.07564752  0.77610090  1
  Te  Te75  1  0.05768250  0.41339980  0.09715050  1
  Te  Te76  1  0.09129179  0.39407123  0.39903559  1
  Te  Te77  1  0.08352525  0.41483621  0.73088068  1
  Te  Te78  1  0.06169816  0.76733683  0.09606441  1
  Te  Te79  1  0.08602371  0.75787384  0.40304548  1
  Te  Te80  1  0.07046542  0.73272616  0.73737011  1
  Te  Te81  1  0.42857055  0.07560459  0.09500128  1
  Te  Te82  1  0.41832149  0.05467862  0.43009271  1
  Te  Te83  1  0.39111472  0.09070695  0.77609485  1
  Te  Te84  1  0.42214431  0.40952604  0.08596311  1
  Te  Te85  1  0.43996858  0.41620962  0.42672942  1
  Te  Te86  1  0.42293827  0.43135612  0.76469390  1
  Te  Te87  1  0.40801249  0.74368287  0.09048230  1
  Te  Te88  1  0.42508505  0.76974986  0.42861256  1
  Te  Te89  1  0.41058095  0.77406831  0.75000652  1
  Te  Te90  1  0.79437994  0.07709949  0.12911533  1
  Te  Te91  1  0.80717354  0.10725058  0.39971023  1
  Te  Te92  1  0.73352535  0.06991193  0.74345748  1
  Te  Te93  1  0.75305038  0.40017240  0.07606605  1
  Te  Te94  1  0.68265751  0.40414315  0.43768871  1
  Te  Te95  1  0.77225568  0.42436025  0.74032961  1
  Te  Te96  1  0.75058235  0.75773549  0.07397748  1
  Te  Te97  1  0.77552373  0.76234454  0.41172817  1
  Te  Te98  1  0.75751705  0.75403961  0.72907386  1
  Te  Te99  1  0.04534642  0.22464365  0.24241964  1
  Te  Te100  1  0.05073269  0.21688667  0.56406058  1
  Te  Te101  1  0.07450961  0.22420800  0.93349784  1
  Te  Te102  1  0.06314050  0.57404304  0.23082422  1
  Te  Te103  1  0.03848670  0.59583656  0.57974131  1
  Te  Te104  1  0.07057023  0.58037271  0.91267541  1
  Te  Te105  1  0.10382919  0.93576774  0.29194109  1
  Te  Te106  1  0.05043606  0.88744371  0.55118454  1
  Te  Te107  1  0.08686584  0.89968524  0.92602830  1
  Te  Te108  1  0.42692773  0.24593285  0.27644509  1
  Te  Te109  1  0.43631709  0.26020768  0.56834185  1
  Te  Te110  1  0.42004932  0.24630212  0.91993988  1
  Te  Te111  1  0.40520214  0.58110302  0.27011235  1
  Te  Te112  1  0.43223055  0.60939827  0.58573544  1
  Te  Te113  1  0.40756236  0.58192477  0.93502662  1
  Te  Te114  1  0.43578229  0.92768783  0.24606266  1
  Te  Te115  1  0.50987953  0.92183859  0.61298242  1
  Te  Te116  1  0.41648295  0.93911153  0.91446947  1
  Te  Te117  1  0.71197873  0.22905003  0.24488193  1
  Te  Te118  1  0.76606426  0.25035157  0.58364751  1
  Te  Te119  1  0.76624860  0.22574132  0.92289397  1
  Te  Te120  1  0.75257948  0.56666658  0.27382290  1
  Te  Te121  1  0.76808652  0.58530303  0.58073784  1
  Te  Te122  1  0.74502714  0.58610326  0.90265395  1
  Te  Te123  1  0.76887487  0.89378428  0.27922066  1
  Te  Te124  1  0.76758398  0.93964081  0.55076259  1
  Te  Te125  1  0.74587788  0.91044520  0.91663362  1
  Te  Te126  1  0.23045922  0.23622950  0.07110974  1
  Te  Te127  1  0.23177995  0.24683319  0.42052729  1
  Te  Te128  1  0.24370817  0.24699998  0.76068350  1
  Te  Te129  1  0.22628506  0.58452125  0.06742285  1
  Te  Te130  1  0.23854274  0.58551909  0.42063277  1
  Te  Te131  1  0.23967754  0.57955533  0.75668105  1
  Te  Te132  1  0.26265076  0.94722999  0.07446299  1
  Te  Te133  1  0.25807590  0.91978280  0.43912364  1
  Te  Te134  1  0.24310881  0.93264231  0.71800809  1
  Te  Te135  1  0.62008600  0.21808666  0.11028625  1
  Te  Te136  1  0.62702398  0.24740720  0.37474651  1
  Te  Te137  1  0.59870193  0.25936829  0.71527089  1
  Te  Te138  1  0.56457118  0.58624119  0.09512256  1
  Te  Te139  1  0.58700139  0.61020529  0.44063996  1
  Te  Te140  1  0.58547111  0.58077957  0.75575017  1
  Te  Te141  1  0.59323801  0.92745504  0.07093543  1
  Te  Te142  1  0.60561240  0.93592334  0.41217723  1
  Te  Te143  1  0.55870765  0.94493623  0.75912105  1
  Te  Te144  1  0.89371165  0.22181815  0.08886005  1
  Te  Te145  1  0.85399461  0.25106799  0.44089161  1
  Te  Te146  1  0.93205875  0.23483893  0.75661547  1
  Te  Te147  1  0.90118825  0.58151075  0.08566301  1
  Te  Te148  1  0.89952004  0.57115106  0.41893822  1
  Te  Te149  1  0.95812971  0.56779627  0.71336937  1
  Te  Te150  1  0.89070373  0.95045540  0.11023950  1
  Te  Te151  1  0.94639173  0.95509665  0.32418683  1
  Te  Te152  1  0.89692408  0.90546280  0.73083272  1
  Te  Te153  1  0.25394824  0.10447691  0.25057150  1
  Te  Te154  1  0.24960014  0.09618126  0.58877839  1
  Te  Te155  1  0.29487846  0.07878158  0.89783942  1
  Te  Te156  1  0.25768708  0.40834733  0.23457157  1
  Te  Te157  1  0.27247405  0.41979530  0.58861094  1
  Te  Te158  1  0.21024568  0.41609690  0.93852088  1
  Te  Te159  1  0.23337923  0.77876984  0.25544425  1
  Te  Te160  1  0.25906349  0.76550635  0.57096457  1
  Te  Te161  1  0.26983785  0.75065046  0.92812005  1
  Te  Te162  1  0.59502244  0.07186686  0.23854129  1
  Te  Te163  1  0.57632372  0.09938231  0.56873673  1
  Te  Te164  1  0.59487184  0.07944213  0.91994662  1
  Te  Te165  1  0.59100937  0.42055065  0.24299109  1
  Te  Te166  1  0.63253702  0.43944787  0.58245364  1
  Te  Te167  1  0.60281951  0.37355460  0.93529110  1
  Te  Te168  1  0.58245170  0.74295480  0.23468419  1
  Te  Te169  1  0.57116322  0.77638724  0.59911722  1
  Te  Te170  1  0.57764888  0.75332301  0.90702983  1
  Te  Te171  1  0.90440128  0.07082992  0.24048967  1
  Te  Te172  1  0.90193420  0.04722956  0.57817972  1
  Te  Te173  1  0.89227267  0.10189210  0.92821461  1
  Te  Te174  1  0.89988108  0.40783063  0.26850755  1
  Te  Te175  1  0.89078080  0.40120266  0.56266491  1
  Te  Te176  1  0.93107336  0.41389653  0.90238350  1
  Te  Te177  1  0.91880914  0.75006844  0.25197939  1
  Te  Te178  1  0.93136886  0.79273566  0.58891853  1
  Te  Te179  1  0.89998460  0.73961044  0.89616010  1
