# generated using pymatgen
data_In2Te3
_symmetry_space_group_name_H-M   'P 1'
_cell_length_a   18.73716282
_cell_length_b   18.73705335
_cell_length_c   18.73530178
_cell_angle_alpha   89.89246999
_cell_angle_beta   89.94412577
_cell_angle_gamma   90.06576561
_symmetry_Int_Tables_number   1
_chemical_formula_structural   In2Te3
_chemical_formula_sum   'In72 Te108'
_cell_volume   6577.55606499
_cell_formula_units_Z   36
loop_
 _symmetry_equiv_pos_site_id
 _symmetry_equiv_pos_as_xyz
  1  'x, y, z'
loop_
 _atom_site_type_symbol
 _atom_site_label
 _atom_site_symmetry_multiplicity
 _atom_site_fract_x
 _atom_site_fract_y
 _atom_site_fract_z
 _atom_site_occupancy
  In  In0  1  -0.01904782  0.17455071  0.81954839  1
  In  In1  1  0.83376527  0.50382517  0.33593378  1
  In  In2  1  0.14520512  0.67272231  0.17067793  1
  In  In3  1  0.17117097  0.64275161  0.51872761  1
  In  In4  1  0.16870805  0.83404257  0.69427477  1
  In  In5  1  0.14952928  0.84307738  -0.00760709  1
  In  In6  1  0.38223079  0.04751788  0.36721873  1
  In  In7  1  0.81888122  0.32430499  0.84142199  1
  In  In8  1  0.36407057  0.46681515  0.79721475  1
  In  In9  1  0.82538163  0.02992119  0.50777962  1
  In  In10  1  0.82335587  0.87550826  0.31806037  1
  In  In11  1  0.53497900  0.17998268  0.00918906  1
  In  In12  1  0.81626858  0.46724870  0.00627103  1
  In  In13  1  0.36554341  0.31739427  0.34988000  1
  In  In14  1  0.50028480  0.32582704  0.51116073  1
  In  In15  1  0.14662670  0.50571616  -0.00412052  1
  In  In16  1  0.65348107  0.82631507  0.48650248  1
  In  In17  1  0.15595727  0.48425720  0.67219074  1
  In  In18  1  0.34791128  0.18317123  0.19766876  1
  In  In19  1  -0.05616406  0.17908029  0.13791329  1
  In  In20  1  0.51155237  0.17942749  0.67730718  1
  In  In21  1  0.66548008  0.48164992  0.82017724  1
  In  In22  1  -0.00875014  -0.01093967  -0.02252831  1
  In  In23  1  0.82653556  0.65024323  0.50443215  1
  In  In24  1  0.66619267  0.31741397  0.31365277  1
  In  In25  1  0.50848802  0.85136707  0.67057466  1
  In  In26  1  0.16391570  0.34448405  0.16801182  1
  In  In27  1  0.87452268  0.64088304  0.81616955  1
  In  In28  1  0.66088507  0.65180656  0.66432369  1
  In  In29  1  0.82090175  0.65690964  0.16354609  1
  In  In30  1  0.50614741  0.83395279  0.32469771  1
  In  In31  1  0.65836466  0.02471879  0.33728650  1
  In  In32  1  0.34318945  0.33706066  -0.01163271  1
  In  In33  1  0.84605311  0.84800584  0.68113741  1
  In  In34  1  0.65969511  0.65394426  0.32071882  1
  In  In35  1  0.68043197  0.85228098  0.82556131  1
  In  In36  1  0.00015633  0.33570994  0.34901270  1
  In  In37  1  0.16309425  0.17138905  -0.02269525  1
  In  In38  1  0.82631983  0.82176870  -0.02548161  1
  In  In39  1  0.35513485  0.85176019  0.51099503  1
  In  In40  1  0.17812687  -0.00197379  0.52648173  1
  In  In41  1  0.34590096  0.85843787  0.83719605  1
  In  In42  1  0.01464161  0.82925385  0.51805334  1
  In  In43  1  0.50387733  0.49431353  0.34263413  1
  In  In44  1  0.14855060  0.31892108  0.82647233  1
  In  In45  1  0.50186981  0.66284390  0.83450434  1
  In  In46  1  0.34362423  0.67767216  0.01023980  1
  In  In47  1  0.80359986  0.02386846  0.82630285  1
  In  In48  1  -0.01265107  0.50467424  0.16390648  1
  In  In49  1  -0.01358985  0.17185033  0.51922989  1
  In  In50  1  0.64875733  0.48217752  0.51056608  1
  In  In51  1  0.66438447  0.02243235  0.66956024  1
  In  In52  1  0.35140106  0.01992154  -0.02977984  1
  In  In53  1  0.35074946  0.63639690  0.63402221  1
  In  In54  1  0.16652587  0.00674783  0.16114284  1
  In  In55  1  0.52461145  0.47785671  -0.00905233  1
  In  In56  1  0.16914917  0.17279667  0.66421727  1
  In  In57  1  0.34725727  0.48523185  0.18133814  1
  In  In58  1  0.17704672  0.82513184  0.34448047  1
  In  In59  1  0.33330380  0.16451398  0.82028080  1
  In  In60  1  0.79494733  0.03319126  0.13968995  1
  In  In61  1  0.66781706  0.66074451  0.00399249  1
  In  In62  1  -0.01874301  0.63444966  0.32458828  1
  In  In63  1  -0.01551860  0.02273089  0.31837742  1
  In  In64  1  0.33466189  0.64275711  0.34977622  1
  In  In65  1  0.36734008  0.83259097  0.15215434  1
  In  In66  1  0.53446661  -0.00001206  0.15165954  1
  In  In67  1  0.00461339  0.82080209  0.13855390  1
  In  In68  1  0.18279320  0.33750510  0.50426337  1
  In  In69  1  0.84005527  0.33389617  0.53748298  1
  In  In70  1  0.16060050  0.19639161  0.34514355  1
  In  In71  1  0.14611581  0.65314607  0.82917914  1
  Te  Te72  1  0.06697530  0.08971873  0.08003726  1
  Te  Te73  1  0.08344213  0.08160987  0.42257125  1
  Te  Te74  1  0.08623427  0.09072928  0.75691507  1
  Te  Te75  1  0.06073106  0.40346009  0.07336094  1
  Te  Te76  1  0.08838025  0.42410032  0.42640242  1
  Te  Te77  1  0.05498238  0.41369718  0.75904302  1
  Te  Te78  1  0.07185953  0.71974315  0.04629662  1
  Te  Te79  1  0.07217169  0.73249400  0.41102010  1
  Te  Te80  1  0.06271724  0.74478621  0.74740451  1
  Te  Te81  1  0.41442462  0.09555417  0.08586505  1
  Te  Te82  1  0.47437233  0.13086309  0.44939107  1
  Te  Te83  1  0.43904476  0.07772071  0.76313331  1
  Te  Te84  1  0.43437441  0.39522592  0.09373832  1
  Te  Te85  1  0.40651259  0.43779019  0.44865732  1
  Te  Te86  1  0.46604600  0.37994852  0.73296510  1
  Te  Te87  1  0.45729001  0.73820267  0.08310638  1
  Te  Te88  1  0.42082586  0.74833697  0.42023619  1
  Te  Te89  1  0.41188729  0.74688358  0.74328272  1
  Te  Te90  1  0.70125008  0.11677935  0.05131036  1
  Te  Te91  1  0.74181816  0.11579650  0.42181653  1
  Te  Te92  1  0.73828937  0.13336281  0.74153672  1
  Te  Te93  1  0.72754507  0.37922558  0.09216818  1
  Te  Te94  1  0.74781113  0.40510692  0.41984050  1
  Te  Te95  1  0.74561839  0.39399859  0.72911951  1
  Te  Te96  1  0.74258046  0.76525316  0.08968615  1
  Te  Te97  1  0.75976580  0.74879751  0.40529112  1
  Te  Te98  1  0.75335382  0.73599234  0.75362213  1
  Te  Te99  1  0.06453510  0.23918939  0.23336364  1
  Te  Te100  1  0.07508448  0.27032583  0.59295987  1
  Te  Te101  1  0.05043617  0.26064874  0.92987936  1
  Te  Te102  1  0.09757691  0.55743369  0.25748417  1
  Te  Te103  1  0.06672984  0.58879089  0.60937459  1
  Te  Te104  1  0.05099262  0.55690838  0.89391108  1
  Te  Te105  1  0.07691522  0.91056520  0.24993515  1
  Te  Te106  1  0.07176834  0.93227017  0.61382709  1
  Te  Te107  1  0.08136683  0.91751813  0.88435633  1
  Te  Te108  1  0.46426661  0.25265936  0.25759014  1
  Te  Te109  1  0.40444517  0.24304788  0.59166228  1
  Te  Te110  1  0.43082232  0.24348331  0.90986256  1
  Te  Te111  1  0.43351766  0.59424256  0.24395171  1
  Te  Te112  1  0.43757322  0.55388764  0.55122056  1
  Te  Te113  1  0.41222286  0.56741125  0.91845443  1
  Te  Te114  1  0.41483749  0.93845854  0.25185747  1
  Te  Te115  1  0.42381758  0.94903945  0.59696450  1
  Te  Te116  1  0.44578270  0.90587952  0.94005163  1
  Te  Te117  1  0.74932129  0.25775390  0.20328409  1
  Te  Te118  1  0.76661623  0.23435538  0.62172367  1
  Te  Te119  1  0.76497046  0.22552564  0.94431225  1
  Te  Te120  1  0.73249181  0.55277968  0.23143512  1
  Te  Te121  1  0.75577454  0.55258189  0.59846324  1
  Te  Te122  1  0.75250992  0.58057919  0.90382114  1
  Te  Te123  1  0.71625105  0.92983584  0.22666830  1
  Te  Te124  1  0.73961176  0.90822949  0.58550626  1
  Te  Te125  1  0.73388841  0.93805250  0.94252052  1
  Te  Te126  1  0.25038121  0.24237953  0.08275114  1
  Te  Te127  1  0.27398373  0.23074696  0.43904945  1
  Te  Te128  1  0.26326574  0.27232929  0.73832321  1
  Te  Te129  1  0.25397963  0.56999152  0.08937259  1
  Te  Te130  1  0.23836911  0.55648683  0.42022149  1
  Te  Te131  1  0.26031596  0.58304057  0.75153404  1
  Te  Te132  1  0.25645124  0.91768180  0.07413847  1
  Te  Te133  1  0.26148337  0.93363583  0.41235831  1
  Te  Te134  1  0.27267563  0.93234578  0.73284326  1
  Te  Te135  1  0.61827737  0.26580631  0.10284641  1
  Te  Te136  1  0.58944745  0.24081218  0.42241109  1
  Te  Te137  1  0.57702608  0.27722041  0.77330965  1
  Te  Te138  1  0.59050942  0.56726902  0.08838096  1
  Te  Te139  1  0.57716945  0.59622030  0.43569817  1
  Te  Te140  1  0.56135836  0.56124034  0.73771235  1
  Te  Te141  1  0.57487381  0.92909349  0.03025833  1
  Te  Te142  1  0.56693627  0.93366803  0.42423041  1
  Te  Te143  1  0.57364220  0.94772578  0.77093540  1
  Te  Te144  1  0.86156018  0.27554173  0.05766443  1
  Te  Te145  1  0.89936679  0.24566133  0.41820491  1
  Te  Te146  1  0.89607214  0.25641559  0.72514360  1
  Te  Te147  1  0.90782270  0.58597893  0.06296955  1
  Te  Te148  1  0.93022756  0.55268217  0.44437556  1
  Te  Te149  1  0.92575199  0.54533090  0.71402513  1
  Te  Te150  1  0.90587075  0.92756216  0.09310441  1
  Te  Te151  1  0.92159815  0.92002455  0.43109014  1
  Te  Te152  1  0.91260075  0.93054466  0.78336423  1
  Te  Te153  1  0.24596846  0.08787042  0.26435126  1
  Te  Te154  1  0.27120073  0.09465335  0.58731276  1
  Te  Te155  1  0.22955932  0.06611039  0.89111820  1
  Te  Te156  1  0.25730601  0.40140146  0.27330366  1
  Te  Te157  1  0.26557403  0.41786424  0.59816125  1
  Te  Te158  1  0.24323332  0.41960897  0.90867111  1
  Te  Te159  1  0.26199714  0.74473910  0.23940497  1
  Te  Te160  1  0.24849566  0.76053089  0.57881550  1
  Te  Te161  1  0.25075450  0.75047699  0.91168037  1
  Te  Te162  1  0.57447098  0.10782643  0.24466604  1
  Te  Te163  1  0.58118426  0.09594921  0.56776468  1
  Te  Te164  1  0.61534590  0.08646205  0.92586298  1
  Te  Te165  1  0.57938007  0.41649556  0.24333826  1
  Te  Te166  1  0.59264231  0.38755737  0.61392178  1
  Te  Te167  1  0.59703160  0.37720543  0.90685021  1
  Te  Te168  1  0.59394981  0.75557823  0.23541303  1
  Te  Te169  1  0.56785413  0.74145576  0.58152151  1
  Te  Te170  1  0.59124575  0.75683576  0.91189128  1
  Te  Te171  1  0.87435365  0.10360521  0.25473513  1
  Te  Te172  1  0.91981094  0.07590772  0.61045921  1
  Te  Te173  1  0.89732146  0.09775362  0.92653589  1
  Te  Te174  1  0.90703580  0.40362145  0.24580431  1
  Te  Te175  1  0.92691467  0.43273823  0.60355921  1
  Te  Te176  1  0.91374127  0.42303268  0.90405634  1
  Te  Te177  1  0.91335712  0.75126254  0.24863664  1
  Te  Te178  1  0.91420359  0.74118847  0.59427159  1
  Te  Te179  1  0.93121709  0.75240637  0.89748600  1
