# generated using pymatgen
data_In2Te3
_symmetry_space_group_name_H-M   'P 1'
_cell_length_a   18.97194898
_cell_length_b   18.96665567
_cell_length_c   18.96725808
_cell_angle_alpha   89.94676950
_cell_angle_beta   90.18495847
_cell_angle_gamma   89.90694756
_symmetry_Int_Tables_number   1
_chemical_formula_structural   In2Te3
_chemical_formula_sum   'In72 Te108'
_cell_volume   6825.02484054
_cell_formula_units_Z   36
loop_
 _symmetry_equiv_pos_site_id
 _symmetry_equiv_pos_as_xyz
  1  'x, y, z'
loop_
 _atom_site_type_symbol
 _atom_site_label
 _atom_site_symmetry_multiplicity
 _atom_site_fract_x
 _atom_site_fract_y
 _atom_site_fract_z
 _atom_site_occupancy
  In  In0  1  0.00257055  0.17613878  0.50819502  1
  In  In1  1  0.00830944  0.18641584  0.82087417  1
  In  In2  1  0.81927331  0.50245034  0.65913575  1
  In  In3  1  0.16194870  0.48983082  0.01719488  1
  In  In4  1  0.33096783  0.33838266  0.32271364  1
  In  In5  1  0.02145514  0.01390070  -0.01454436  1
  In  In6  1  0.50130907  0.30987716  0.51816052  1
  In  In7  1  0.32264950  0.66544395  0.65916082  1
  In  In8  1  0.47908180  0.33412832  0.14936421  1
  In  In9  1  0.33527453  0.64898104  0.00686168  1
  In  In10  1  0.85982842  0.31749032  0.17255725  1
  In  In11  1  0.84692059  0.34077787  0.49051512  1
  In  In12  1  0.19143660  0.02131308  0.83947804  1
  In  In13  1  0.33162704  0.16670128  0.48631772  1
  In  In14  1  0.85040750  -0.00363490  0.49595014  1
  In  In15  1  0.48556774  0.49091565  0.34290921  1
  In  In16  1  0.67396804  0.00077384  0.68797812  1
  In  In17  1  0.00631739  0.65099559  0.66371224  1
  In  In18  1  0.17527441  0.67663446  0.48592346  1
  In  In19  1  0.49503539  0.48603121  -0.00682228  1
  In  In20  1  0.49158687  0.81991134  0.33880555  1
  In  In21  1  0.68478029  0.32787992  0.63878641  1
  In  In22  1  0.34341065  0.00759458  0.67032426  1
  In  In23  1  0.17413860  0.18832713  0.66196051  1
  In  In24  1  0.47151518  0.35505511  0.79695824  1
  In  In25  1  0.69087049  0.70496625  0.34093480  1
  In  In26  1  0.15295727  0.46525232  0.36290594  1
  In  In27  1  -0.02340244  0.81522275  0.83047732  1
  In  In28  1  0.48299644  0.67025485  0.50963576  1
  In  In29  1  0.32327396  0.32423991  -0.01744695  1
  In  In30  1  0.65431561  0.51007296  0.49755317  1
  In  In31  1  0.13545175  0.68209201  0.83717527  1
  In  In32  1  0.67871938  0.17059673  0.47585246  1
  In  In33  1  0.68535740  -0.00230313  0.00545700  1
  In  In34  1  0.63582769  0.66558780  0.65769736  1
  In  In35  1  0.66305337  0.49641753  0.16189081  1
  In  In36  1  0.67105703  0.18893350  0.83581093  1
  In  In37  1  0.49178410  0.84293706  -0.02778734  1
  In  In38  1  0.17190638  0.33606000  0.81318474  1
  In  In39  1  0.15416430  0.83744403  0.02116350  1
  In  In40  1  -0.03258916  0.66771454  0.33729869  1
  In  In41  1  0.18018323  0.49592254  0.65533917  1
  In  In42  1  0.50669369  -0.00934994  0.17457926  1
  In  In43  1  0.34100758  0.83088916  0.82753555  1
  In  In44  1  0.19251683  -0.04750371  0.48519466  1
  In  In45  1  0.84666173  0.33178282  0.82477913  1
  In  In46  1  0.00237406  0.83741807  0.49082903  1
  In  In47  1  0.48973325  0.14418597  0.65992510  1
  In  In48  1  0.14277328  0.19715289  0.30824942  1
  In  In49  1  -0.01440917  0.51403886  0.17465072  1
  In  In50  1  0.14830249  0.17633182  0.00447609  1
  In  In51  1  0.32840362  0.16576563  0.16397300  1
  In  In52  1  0.82857087  0.00316477  0.83874305  1
  In  In53  1  0.84710633  0.83754314  0.66467422  1
  In  In54  1  0.19406040  -0.01500747  0.18028707  1
  In  In55  1  0.67433621  0.13638009  0.18319646  1
  In  In56  1  0.01135719  0.48883281  0.85120173  1
  In  In57  1  0.82205138  0.66362130  0.86232579  1
  In  In58  1  0.82145655  0.50637034  0.35511193  1
  In  In59  1  -0.00339943  0.00135865  0.34683737  1
  In  In60  1  0.65898175  0.83095027  0.82696336  1
  In  In61  1  0.82998543  -0.02024478  0.17443566  1
  In  In62  1  0.83978186  0.16080383  0.32642080  1
  In  In63  1  0.32137853  0.82021491  0.17597528  1
  In  In64  1  0.67566778  0.34698611  -0.00256879  1
  In  In65  1  0.52172894  0.15574405  -0.00998565  1
  In  In66  1  0.48258096  -0.01212415  0.49322485  1
  In  In67  1  0.32124795  0.66218332  0.33188472  1
  In  In68  1  0.48075536  0.65553332  0.19607767  1
  In  In69  1  0.50546976  0.65414027  0.82710450  1
  In  In70  1  0.78484126  0.67361490  0.04483797  1
  In  In71  1  -0.00664432  0.84071250  0.17429726  1
  Te  Te72  1  0.09569338  0.07330991  0.10317082  1
  Te  Te73  1  0.09227387  0.09629309  0.41303002  1
  Te  Te74  1  0.09343705  0.08770463  0.74466663  1
  Te  Te75  1  0.05985500  0.41164260  0.09285022  1
  Te  Te76  1  0.07418271  0.38442892  0.45536915  1
  Te  Te77  1  0.07252081  0.41798266  0.73334422  1
  Te  Te78  1  0.09096451  0.74550950  0.11466257  1
  Te  Te79  1  0.08231557  0.75447487  0.39454449  1
  Te  Te80  1  0.07813005  0.76862262  0.72647490  1
  Te  Te81  1  0.42670804  0.08307791  0.08212607  1
  Te  Te82  1  0.42837623  0.09296967  0.40694770  1
  Te  Te83  1  0.41774290  0.08445220  0.77190079  1
  Te  Te84  1  0.38477700  0.42675205  0.07846625  1
  Te  Te85  1  0.40820319  0.40422384  0.43706755  1
  Te  Te86  1  0.38414584  0.44041821  0.71259870  1
  Te  Te87  1  0.42603735  0.75176784  0.08239602  1
  Te  Te88  1  0.37699060  0.76664535  0.42827659  1
  Te  Te89  1  0.42834017  0.74727603  0.73687861  1
  Te  Te90  1  0.77392291  0.09302702  0.08060516  1
  Te  Te91  1  0.75258207  0.06160357  0.39924484  1
  Te  Te92  1  0.76413976  0.10688892  0.74761253  1
  Te  Te93  1  0.77030922  0.41672434  0.09263499  1
  Te  Te94  1  0.72733744  0.40502650  0.41760428  1
  Te  Te95  1  0.73959191  0.41347457  0.75134866  1
  Te  Te96  1  0.77369763  0.79664444  0.13920593  1
  Te  Te97  1  0.77855806  0.79415104  0.41307319  1
  Te  Te98  1  0.75769538  0.74371214  0.74350707  1
  Te  Te99  1  0.07249599  0.28927036  0.21128556  1
  Te  Te100  1  0.09654762  0.27918618  0.56833708  1
  Te  Te101  1  0.07705654  0.27855590  0.91907413  1
  Te  Te102  1  0.07368034  0.57325867  0.28277410  1
  Te  Te103  1  0.09010413  0.57649927  0.56337578  1
  Te  Te104  1  0.07383131  0.59362027  0.94071115  1
  Te  Te105  1  0.09232840  0.91437572  0.26569129  1
  Te  Te106  1  0.07474134  0.93768608  0.56921003  1
  Te  Te107  1  0.08945474  0.90944909  0.89910972  1
  Te  Te108  1  0.42524870  0.23999252  0.25429008  1
  Te  Te109  1  0.39145905  0.24578624  0.60205025  1
  Te  Te110  1  0.43844015  0.25767055  0.91150621  1
  Te  Te111  1  0.38506954  0.55182281  0.24673778  1
  Te  Te112  1  0.41449896  0.56965907  0.59190428  1
  Te  Te113  1  0.40532937  0.56743510  0.90042046  1
  Te  Te114  1  0.40164554  0.91884221  0.25905071  1
  Te  Te115  1  0.42017739  0.90747147  0.59700681  1
  Te  Te116  1  0.40981976  0.93930937  0.89995875  1
  Te  Te117  1  0.74531838  0.25269848  0.25083720  1
  Te  Te118  1  0.77914986  0.23149777  0.57246109  1
  Te  Te119  1  0.76860929  0.24731788  0.93381435  1
  Te  Te120  1  0.74006094  0.58765624  0.25632366  1
  Te  Te121  1  0.74646344  0.60347065  0.57173154  1
  Te  Te122  1  0.72902402  0.58382919  0.94187404  1
  Te  Te123  1  0.72198786  0.90148248  0.23386088  1
  Te  Te124  1  0.75075292  0.92077589  0.58405547  1
  Te  Te125  1  0.76006918  0.89576574  0.92020408  1
  Te  Te126  1  0.23909753  0.26397438  0.09219541  1
  Te  Te127  1  0.23655131  0.25877506  0.41162069  1
  Te  Te128  1  0.25867076  0.22221034  0.77835756  1
  Te  Te129  1  0.23397717  0.59285367  0.09518572  1
  Te  Te130  1  0.25821738  0.56451962  0.42812316  1
  Te  Te131  1  0.23055348  0.59476207  0.76052164  1
  Te  Te132  1  0.27092953  0.92058693  0.06781866  1
  Te  Te133  1  0.28600271  0.89151045  0.39487887  1
  Te  Te134  1  0.24601377  0.91651827  0.74517088  1
  Te  Te135  1  0.59336212  0.24874061  0.08697776  1
  Te  Te136  1  0.58321296  0.25896388  0.40953996  1
  Te  Te137  1  0.57820075  0.25335459  0.73344304  1
  Te  Te138  1  0.56270539  0.58247170  0.08863467  1
  Te  Te139  1  0.57308984  0.60072430  0.40119963  1
  Te  Te140  1  0.59015890  0.56343253  0.74935460  1
  Te  Te141  1  0.58527919  0.90880191  0.07434226  1
  Te  Te142  1  0.57916038  0.89564070  0.42906222  1
  Te  Te143  1  0.57244898  0.91153334  0.74198545  1
  Te  Te144  1  0.96835364  0.23937287  0.11364004  1
  Te  Te145  1  0.93264029  0.25570702  0.39765707  1
  Te  Te146  1  0.92869713  0.26379122  0.72584469  1
  Te  Te147  1  0.90825377  0.59883627  0.07535425  1
  Te  Te148  1  0.91285553  0.57979800  0.44305949  1
  Te  Te149  1  0.91346015  0.58354247  0.76240736  1
  Te  Te150  1  0.92739366  0.92787264  0.06783005  1
  Te  Te151  1  0.89581560  0.89112492  0.38328086  1
  Te  Te152  1  0.92815515  0.93434912  0.74790771  1
  Te  Te153  1  0.25083383  0.09186271  0.27025552  1
  Te  Te154  1  0.24022243  0.07641232  0.57053950  1
  Te  Te155  1  0.25907313  0.11121882  0.93249331  1
  Te  Te156  1  0.22369535  0.40620112  0.24781707  1
  Te  Te157  1  0.27359336  0.38673673  0.62569537  1
  Te  Te158  1  0.24791507  0.43006540  0.90506257  1
  Te  Te159  1  0.22659944  0.72592816  0.23575329  1
  Te  Te160  1  0.23529428  0.76053970  0.58929074  1
  Te  Te161  1  0.24959144  0.75027170  0.92274519  1
  Te  Te162  1  0.58431333  0.06700659  0.27268361  1
  Te  Te163  1  0.59895601  0.08375594  0.57487748  1
  Te  Te164  1  0.60225212  0.06789702  0.89805602  1
  Te  Te165  1  0.57028746  0.41089448  0.24487331  1
  Te  Te166  1  0.57595533  0.42261869  0.59185655  1
  Te  Te167  1  0.58070046  0.40828501  0.89688558  1
  Te  Te168  1  0.58522162  0.75577944  0.23789494  1
  Te  Te169  1  0.58563232  0.76256057  0.55926020  1
  Te  Te170  1  0.58915434  0.73708479  0.92302504  1
  Te  Te171  1  0.92890527  0.07958032  0.23651300  1
  Te  Te172  1  0.93128639  0.07553747  0.58805046  1
  Te  Te173  1  0.92134359  0.09935410  0.91211410  1
  Te  Te174  1  0.91351845  0.42100746  0.27169719  1
  Te  Te175  1  0.91904585  0.44136893  0.57034017  1
  Te  Te176  1  0.90554224  0.42163958  0.92424565  1
  Te  Te177  1  0.89431542  0.73996147  0.22760982  1
  Te  Te178  1  0.92052201  0.74143439  0.57455990  1
  Te  Te179  1  0.91845878  0.74282104  0.94496283  1
