# generated using pymatgen
data_In2Te3
_symmetry_space_group_name_H-M   'P 1'
_cell_length_a   18.82920266
_cell_length_b   18.82990641
_cell_length_c   18.81822283
_cell_angle_alpha   90.00378774
_cell_angle_beta   90.01906142
_cell_angle_gamma   89.93702868
_symmetry_Int_Tables_number   1
_chemical_formula_structural   In2Te3
_chemical_formula_sum   'In72 Te108'
_cell_volume   6672.03646000
_cell_formula_units_Z   36
loop_
 _symmetry_equiv_pos_site_id
 _symmetry_equiv_pos_as_xyz
  1  'x, y, z'
loop_
 _atom_site_type_symbol
 _atom_site_label
 _atom_site_symmetry_multiplicity
 _atom_site_fract_x
 _atom_site_fract_y
 _atom_site_fract_z
 _atom_site_occupancy
  In  In0  1  0.32033727  0.83741727  0.85138104  1
  In  In1  1  0.64463150  0.86360458  0.14783616  1
  In  In2  1  0.82968194  0.15732097  -0.01066791  1
  In  In3  1  0.50925987  0.19779052  0.33134200  1
  In  In4  1  0.33351835  -0.01429125  0.69184147  1
  In  In5  1  0.64601607  0.50883793  0.84504542  1
  In  In6  1  0.86368076  0.34618191  0.85835468  1
  In  In7  1  0.84121290  0.81271461  -0.00375960  1
  In  In8  1  0.15503448  0.80594490  0.32427809  1
  In  In9  1  0.16573512  0.48916786  0.65758348  1
  In  In10  1  0.65635048  0.31739614  0.68506429  1
  In  In11  1  0.50278111  0.64155778  0.84725206  1
  In  In12  1  0.34873522  0.15853094  0.50647596  1
  In  In13  1  0.67412667  0.33655390  0.31336822  1
  In  In14  1  0.18061419  0.16163755  0.30847065  1
  In  In15  1  -0.01524797  0.83876024  0.83235528  1
  In  In16  1  0.48984794  0.49277631  0.00935913  1
  In  In17  1  0.82837150  0.36121555  0.15487156  1
  In  In18  1  0.17123409  0.00147719  0.84729965  1
  In  In19  1  0.18657005  0.19328712  -0.00035591  1
  In  In20  1  0.81727075  0.50547922  0.65863239  1
  In  In21  1  0.64660530  0.19246105  0.13839421  1
  In  In22  1  0.66418252  0.15995090  0.83466867  1
  In  In23  1  0.49018924  -0.00613932  0.85650543  1
  In  In24  1  0.15929831  -0.02069342  0.50615780  1
  In  In25  1  -0.01075227  -0.01632827  0.66582612  1
  In  In26  1  0.85311941  0.17780245  0.35985669  1
  In  In27  1  0.16546910  -0.01060853  0.17936536  1
  In  In28  1  0.82554309  -0.01608299  0.15932043  1
  In  In29  1  0.66796298  0.52386701  0.49623645  1
  In  In30  1  0.49472303  0.85765721  0.33623722  1
  In  In31  1  0.32613129  0.83185715  0.15482467  1
  In  In32  1  0.00365716  -0.01720487  0.34288907  1
  In  In33  1  0.01190974  0.51118071  0.48239749  1
  In  In34  1  0.01323951  0.51591882  0.87253828  1
  In  In35  1  0.49886540  0.82397274  0.66085334  1
  In  In36  1  0.34003212  0.18950612  0.85238707  1
  In  In37  1  0.83137078  0.66488183  0.84030613  1
  In  In38  1  0.32431487  0.82715993  0.50458377  1
  In  In39  1  0.49961046  0.33497946  0.14218959  1
  In  In40  1  0.84546463  0.32368440  0.46812070  1
  In  In41  1  0.31932265  0.66555325  0.65677163  1
  In  In42  1  0.34961820  0.33730140  0.32231489  1
  In  In43  1  0.33202542  0.01667369  0.30520588  1
  In  In44  1  0.66978164  0.83653747  0.83755418  1
  In  In45  1  0.16545603  0.34097707  0.51225940  1
  In  In46  1  0.86786230  0.51559602  0.29854501  1
  In  In47  1  0.68026509  0.13779319  0.51378531  1
  In  In48  1  0.66305258  0.67914253  -0.02053395  1
  In  In49  1  0.02758537  0.35605013  0.02976311  1
  In  In50  1  0.30448827  0.49260422  0.48847525  1
  In  In51  1  -0.00144755  0.14506528  0.83686698  1
  In  In52  1  0.19156011  0.33076147  0.83292800  1
  In  In53  1  0.15733881  0.67495169  0.85121993  1
  In  In54  1  0.54290252  0.01579931  0.50868612  1
  In  In55  1  -0.00254619  0.00662183  -0.01375383  1
  In  In56  1  0.83307532  -0.03959262  0.52180616  1
  In  In57  1  0.47830280  0.67511388  0.18204578  1
  In  In58  1  0.66919369  0.49792578  0.17077746  1
  In  In59  1  0.00880914  0.32331289  0.65895038  1
  In  In60  1  0.49759556  0.50951146  0.69323545  1
  In  In61  1  -0.01145042  0.68395870  0.32424518  1
  In  In62  1  0.48556387  0.33792582  0.50586534  1
  In  In63  1  0.65952915  -0.01489641  0.30926828  1
  In  In64  1  0.17983949  0.52578468  0.31669425  1
  In  In65  1  0.52030357  0.68172291  0.50979107  1
  In  In66  1  0.34275993  0.48422661  0.85228562  1
  In  In67  1  0.69039881  0.69314224  0.35812584  1
  In  In68  1  0.32185386  0.64682420  0.31693417  1
  In  In69  1  -0.03951433  0.68949272  0.64748680  1
  In  In70  1  0.82583556  0.13595142  0.65976625  1
  In  In71  1  0.01261591  0.17676411  0.18047428  1
  Te  Te72  1  0.08801080  0.09225171  0.07356920  1
  Te  Te73  1  0.09717861  0.08232244  0.40904474  1
  Te  Te74  1  0.09007293  0.07537610  0.73983043  1
  Te  Te75  1  0.12447543  0.44573556  0.10027843  1
  Te  Te76  1  0.09940786  0.41946466  0.40119551  1
  Te  Te77  1  0.07302477  0.41583610  0.76402243  1
  Te  Te78  1  0.04191121  0.70954758  0.12879733  1
  Te  Te79  1  0.06748210  0.75289517  0.42924947  1
  Te  Te80  1  0.06649705  0.74218232  0.74718195  1
  Te  Te81  1  0.47270942  0.04650534  0.11395794  1
  Te  Te82  1  0.43764760  0.07508512  0.40328134  1
  Te  Te83  1  0.41728125  0.08883213  0.76064867  1
  Te  Te84  1  0.38218603  0.41132196  0.08157868  1
  Te  Te85  1  0.42398952  0.43863323  0.41087960  1
  Te  Te86  1  0.40708797  0.40605270  0.74460243  1
  Te  Te87  1  0.41966818  0.75150576  0.07181374  1
  Te  Te88  1  0.41341872  0.74686203  0.40596313  1
  Te  Te89  1  0.41167246  0.73941735  0.75430561  1
  Te  Te90  1  0.73675226  0.07939688  0.08115761  1
  Te  Te91  1  0.75639801  0.06672318  0.40222967  1
  Te  Te92  1  0.73784053  0.06174275  0.74919123  1
  Te  Te93  1  0.71105803  0.39401749  0.07408287  1
  Te  Te94  1  0.75562932  0.43003589  0.40224344  1
  Te  Te95  1  0.75394871  0.41495414  0.76553941  1
  Te  Te96  1  0.73498623  0.75251579  0.09024733  1
  Te  Te97  1  0.79994901  0.76327077  0.43085730  1
  Te  Te98  1  0.77575930  0.77136496  0.75325244  1
  Te  Te99  1  0.11703759  0.26766036  0.22846068  1
  Te  Te100  1  0.09383483  0.23306860  0.58145538  1
  Te  Te101  1  0.06763152  0.25651509  0.91449995  1
  Te  Te102  1  0.06481445  0.58362415  0.23519966  1
  Te  Te103  1  0.07428648  0.59212315  0.59470059  1
  Te  Te104  1  0.12199757  0.57193242  0.96137047  1
  Te  Te105  1  0.06375222  0.89264563  0.23553804  1
  Te  Te106  1  0.06355691  0.89281558  0.57520672  1
  Te  Te107  1  0.08870372  0.89995954  0.92676680  1
  Te  Te108  1  0.41091645  0.23796495  0.22418791  1
  Te  Te109  1  0.44255848  0.23008765  0.59513858  1
  Te  Te110  1  0.43255387  0.27459048  0.93091967  1
  Te  Te111  1  0.39776322  0.55953247  0.22459103  1
  Te  Te112  1  0.41776763  0.58217380  0.57434996  1
  Te  Te113  1  0.39427627  0.59502794  0.94366506  1
  Te  Te114  1  0.43313613  0.93360633  0.21629211  1
  Te  Te115  1  0.42176672  0.92636032  0.56872316  1
  Te  Te116  1  0.39678216  0.92105618  0.94632692  1
  Te  Te117  1  0.75989213  0.23328074  0.24274521  1
  Te  Te118  1  0.76188670  0.26260676  0.58190984  1
  Te  Te119  1  0.75000127  0.26470601  0.91754472  1
  Te  Te120  1  0.75011453  0.59864979  0.24935631  1
  Te  Te121  1  0.75154328  0.61145944  0.58095573  1
  Te  Te122  1  0.75660053  0.56859875  0.93305205  1
  Te  Te123  1  0.75988766  0.88546095  0.25377631  1
  Te  Te124  1  0.70620176  0.90736451  0.57231601  1
  Te  Te125  1  0.74459306  0.91035123  0.94093010  1
  Te  Te126  1  0.29463083  0.28202688  0.05035520  1
  Te  Te127  1  0.26297542  0.24780028  0.41622342  1
  Te  Te128  1  0.24290814  0.22530697  0.74641963  1
  Te  Te129  1  0.20016182  0.57467355  0.09755926  1
  Te  Te130  1  0.23047915  0.61205614  0.43581606  1
  Te  Te131  1  0.24441485  0.57415100  0.76023974  1
  Te  Te132  1  0.23669794  0.91751321  0.07272236  1
  Te  Te133  1  0.25442790  0.91586300  0.38986128  1
  Te  Te134  1  0.22468026  0.89636223  0.74734865  1
  Te  Te135  1  0.54251402  0.23340676  0.03614494  1
  Te  Te136  1  0.60748825  0.25865738  0.43305925  1
  Te  Te137  1  0.56422531  0.25955878  0.78351231  1
  Te  Te138  1  0.58331686  0.59154979  0.08173377  1
  Te  Te139  1  0.57689201  0.59585006  0.39650087  1
  Te  Te140  1  0.60525682  0.60951020  0.73826419  1
  Te  Te141  1  0.56639937  0.94685378  0.05246804  1
  Te  Te142  1  0.60959888  0.90065388  0.43016082  1
  Te  Te143  1  0.57448425  0.92015281  0.75024337  1
  Te  Te144  1  0.91872436  0.24522587  0.07666107  1
  Te  Te145  1  0.96432543  0.26125740  0.40632356  1
  Te  Te146  1  0.90739085  0.24121340  0.75227698  1
  Te  Te147  1  0.93043924  0.61519993  0.11711144  1
  Te  Te148  1  0.90171309  0.59488398  0.42396501  1
  Te  Te149  1  0.92281162  0.57022868  0.75271416  1
  Te  Te150  1  0.93068062  0.90773097  0.08020717  1
  Te  Te151  1  0.90426550  0.89160250  0.40774459  1
  Te  Te152  1  0.88723860  0.90738327  0.74388063  1
  Te  Te153  1  0.26783983  0.10194566  0.19689946  1
  Te  Te154  1  0.25572300  0.06720794  0.58608425  1
  Te  Te155  1  0.26754677  0.08039823  0.93506765  1
  Te  Te156  1  0.25981640  0.42387440  0.24240978  1
  Te  Te157  1  0.27528090  0.39612828  0.60333463  1
  Te  Te158  1  0.25064692  0.40824324  0.94446657  1
  Te  Te159  1  0.23536085  0.72843917  0.21979466  1
  Te  Te160  1  0.22680040  0.75734317  0.58858693  1
  Te  Te161  1  0.24352738  0.74995838  0.94353680  1
  Te  Te162  1  0.57830937  0.09269949  0.23817240  1
  Te  Te163  1  0.58537930  0.10148794  0.62121370  1
  Te  Te164  1  0.58793286  0.07684682  0.93466751  1
  Te  Te165  1  0.56486872  0.42130924  0.25285524  1
  Te  Te166  1  0.59164414  0.42699812  0.59024240  1
  Te  Te167  1  0.55305569  0.40833869  0.90292690  1
  Te  Te168  1  0.58516856  0.75925189  0.25464119  1
  Te  Te169  1  0.61657165  0.77092251  0.58143917  1
  Te  Te170  1  0.55713372  0.76619623  0.91679989  1
  Te  Te171  1  0.91856830  0.07372461  0.24598730  1
  Te  Te172  1  0.92215052  0.07924635  0.55920927  1
  Te  Te173  1  0.88859607  0.05553558  0.89185717  1
  Te  Te174  1  0.94145257  0.40472781  0.23575466  1
  Te  Te175  1  0.91975687  0.42041108  0.57793921  1
  Te  Te176  1  0.91702493  0.44231651  0.96573973  1
  Te  Te177  1  0.90561465  0.73624979  0.21005409  1
  Te  Te178  1  0.86990779  0.77778362  0.57075050  1
  Te  Te179  1  0.94260392  0.72222341  0.92687671  1
