# generated using pymatgen
data_In2Te3
_symmetry_space_group_name_H-M   'P 1'
_cell_length_a   18.78620234
_cell_length_b   18.79988811
_cell_length_c   18.79603291
_cell_angle_alpha   90.14466413
_cell_angle_beta   90.04439241
_cell_angle_gamma   89.99788446
_symmetry_Int_Tables_number   1
_chemical_formula_structural   In2Te3
_chemical_formula_sum   'In72 Te108'
_cell_volume   6638.33159097
_cell_formula_units_Z   36
loop_
 _symmetry_equiv_pos_site_id
 _symmetry_equiv_pos_as_xyz
  1  'x, y, z'
loop_
 _atom_site_type_symbol
 _atom_site_label
 _atom_site_symmetry_multiplicity
 _atom_site_fract_x
 _atom_site_fract_y
 _atom_site_fract_z
 _atom_site_occupancy
  In  In0  1  0.02818228  0.01465028  0.61009438  1
  In  In1  1  0.83508440  0.81812104  0.01712368  1
  In  In2  1  0.66503527  -0.03545213  0.33486434  1
  In  In3  1  0.31420627  0.50249927  0.49445714  1
  In  In4  1  0.83510205  0.66055672  0.48721891  1
  In  In5  1  0.47061735  0.84653909  0.64456011  1
  In  In6  1  0.46999282  0.00782699  0.83433843  1
  In  In7  1  0.65922562  0.15914797  0.15301645  1
  In  In8  1  0.46735635  0.13977126  0.34969637  1
  In  In9  1  0.64801338  0.31740562  0.34526226  1
  In  In10  1  0.33243750  0.67536330  -0.02516492  1
  In  In11  1  0.32039837  0.47771800  0.16901833  1
  In  In12  1  0.68030064  0.35372521  -0.00908359  1
  In  In13  1  0.17081423  0.32127489  0.50615212  1
  In  In14  1  0.48889812  0.32441032  0.15720158  1
  In  In15  1  0.34001539  0.33723730  0.65601197  1
  In  In16  1  0.81715309  0.84574568  0.67965709  1
  In  In17  1  0.17576615  0.14518775  0.65090337  1
  In  In18  1  0.00405170  0.36634825  0.67984147  1
  In  In19  1  0.17684857  0.85258491  0.35509386  1
  In  In20  1  0.85003414  0.01996242  0.20883532  1
  In  In21  1  0.14225630  0.34539909  0.84586456  1
  In  In22  1  0.50183206  0.34214294  0.83171012  1
  In  In23  1  0.31664560  0.16134356  0.17358650  1
  In  In24  1  0.65403931  0.81013904  0.82127171  1
  In  In25  1  0.00471749  0.20574201  0.82364217  1
  In  In26  1  0.33368798  -0.00717213  0.00254573  1
  In  In27  1  0.84704566  0.33986152  0.51230785  1
  In  In28  1  -0.00126588  0.64239266  -0.02097940  1
  In  In29  1  0.33119031  0.84345784  0.16365844  1
  In  In30  1  0.68162531  0.17807405  0.51033074  1
  In  In31  1  0.15679636  0.49641443  -0.00871992  1
  In  In32  1  0.00958410  0.83045605  0.19031986  1
  In  In33  1  -0.00497245  0.32038726  0.33558589  1
  In  In34  1  0.50607339  0.50329509  0.66633610  1
  In  In35  1  0.50070054  0.66245178  0.83939082  1
  In  In36  1  0.83537462  0.00012024  0.82003510  1
  In  In37  1  0.47104807  0.83644726  0.35037039  1
  In  In38  1  0.86516762  0.51279317  0.35613841  1
  In  In39  1  0.48777192  0.16253979  0.67113333  1
  In  In40  1  0.67517977  0.65320789  0.66695154  1
  In  In41  1  0.67659220  0.67970157  0.32046598  1
  In  In42  1  0.85408232  0.00478552  0.50716187  1
  In  In43  1  0.18121621  -0.00913394  0.82560742  1
  In  In44  1  0.32072949  0.64247705  0.35690285  1
  In  In45  1  -0.00028386  0.64712057  0.67952381  1
  In  In46  1  -0.00747338  0.36819974  -0.01593332  1
  In  In47  1  0.51759092  0.65155578  0.14922655  1
  In  In48  1  0.01295375  0.81209900  0.81562902  1
  In  In49  1  0.27454145  0.66829793  0.67230462  1
  In  In50  1  0.64400269  -0.01162586  -0.00719188  1
  In  In51  1  0.67298957  0.51070194  0.14231578  1
  In  In52  1  0.01732486  0.16856938  0.16854608  1
  In  In53  1  0.01507608  0.00957117  0.00921987  1
  In  In54  1  0.33611379  0.33066313  0.01485130  1
  In  In55  1  0.66811589  0.01663518  0.67208750  1
  In  In56  1  0.33349769  0.16610193  0.82216289  1
  In  In57  1  0.82329870  0.35412281  0.16381973  1
  In  In58  1  0.86120614  0.16365138  0.32915341  1
  In  In59  1  0.02340176  0.81675011  0.50918486  1
  In  In60  1  0.48482757  0.47585897  0.34447244  1
  In  In61  1  0.15001175  0.67232167  0.16608588  1
  In  In62  1  0.17086872  0.51105123  0.33587283  1
  In  In63  1  0.49268032  -0.00542398  0.16144361  1
  In  In64  1  0.81322532  0.18208431  -0.01344417  1
  In  In65  1  0.66217369  0.49361790  0.51753310  1
  In  In66  1  0.49627241  0.67695032  0.49905347  1
  In  In67  1  0.83594257  0.84051406  0.33448319  1
  In  In68  1  0.32552844  0.83104491  0.82924752  1
  In  In69  1  0.67426754  0.16439811  0.82743389  1
  In  In70  1  0.17109102  0.13938210  0.36898479  1
  In  In71  1  0.85753748  0.67602681  0.14223696  1
  Te  Te72  1  0.11063849  0.07831356  0.09737148  1
  Te  Te73  1  0.05458878  0.06621849  0.42670090  1
  Te  Te74  1  0.07712445  0.08426113  0.75800193  1
  Te  Te75  1  0.08629637  0.41182146  0.08899470  1
  Te  Te76  1  0.08411622  0.41130921  0.41913698  1
  Te  Te77  1  0.10396618  0.45652391  0.75047467  1
  Te  Te78  1  0.06596902  0.75441252  0.07030838  1
  Te  Te79  1  0.08639839  0.74310754  0.39666500  1
  Te  Te80  1  0.10942992  0.73997892  0.72642537  1
  Te  Te81  1  0.41980156  0.09623949  0.07736190  1
  Te  Te82  1  0.38992076  0.05428147  0.44567781  1
  Te  Te83  1  0.38248620  0.06095355  0.72202149  1
  Te  Te84  1  0.43200049  0.43739691  0.07325502  1
  Te  Te85  1  0.40179981  0.39824742  0.43585378  1
  Te  Te86  1  0.40315251  0.43286812  0.75593163  1
  Te  Te87  1  0.41698058  0.74685159  0.08177849  1
  Te  Te88  1  0.37898104  0.75666272  0.44262479  1
  Te  Te89  1  0.41395044  0.73718399  0.73357675  1
  Te  Te90  1  0.75711031  0.06928850  0.07757941  1
  Te  Te91  1  0.75411978  0.07992024  0.40681548  1
  Te  Te92  1  0.77719686  0.10736588  0.72773124  1
  Te  Te93  1  0.78389145  0.45019468  0.05254588  1
  Te  Te94  1  0.75114847  0.41377538  0.40508622  1
  Te  Te95  1  0.78612743  0.46512204  0.76624223  1
  Te  Te96  1  0.73634154  0.72288912  0.07286454  1
  Te  Te97  1  0.73989171  0.76613002  0.42885807  1
  Te  Te98  1  0.76810958  0.72802263  0.76342342  1
  Te  Te99  1  0.10517799  0.24550847  0.26506915  1
  Te  Te100  1  0.07718337  0.24936989  0.60161974  1
  Te  Te101  1  0.08327278  0.24620655  0.94641721  1
  Te  Te102  1  0.07350664  0.57557154  0.24521582  1
  Te  Te103  1  0.04911779  0.56358502  0.56817205  1
  Te  Te104  1  0.11253612  0.59904194  0.88896537  1
  Te  Te105  1  0.11530342  0.92209025  0.23836166  1
  Te  Te106  1  0.12083246  0.89568733  0.59640154  1
  Te  Te107  1  0.08248772  0.91193400  0.91173632  1
  Te  Te108  1  0.40868070  0.25137535  0.26107260  1
  Te  Te109  1  0.39397729  0.22708745  0.57536866  1
  Te  Te110  1  0.42115431  0.24574879  0.91764747  1
  Te  Te111  1  0.42116093  0.58149314  0.25416174  1
  Te  Te112  1  0.40580762  0.58908352  0.58663172  1
  Te  Te113  1  0.39950503  0.57061915  0.89657114  1
  Te  Te114  1  0.39557633  0.93906876  0.26459148  1
  Te  Te115  1  0.40763518  0.93197215  0.54284595  1
  Te  Te116  1  0.42636975  0.89620105  0.92609453  1
  Te  Te117  1  0.75159374  0.24537748  0.24845313  1
  Te  Te118  1  0.73838341  0.28464436  0.59581455  1
  Te  Te119  1  0.76133777  0.27995260  0.88309193  1
  Te  Te120  1  0.76275849  0.57481174  0.25133600  1
  Te  Te121  1  0.77486887  0.56451909  0.59094736  1
  Te  Te122  1  0.79368407  0.54261213  0.89003032  1
  Te  Te123  1  0.74825772  0.90067444  0.22535957  1
  Te  Te124  1  0.74157613  0.92445530  0.57417301  1
  Te  Te125  1  0.75173406  0.90997489  0.91004533  1
  Te  Te126  1  0.23738015  0.26122384  0.09764705  1
  Te  Te127  1  0.26674246  0.23717755  0.43125014  1
  Te  Te128  1  0.23431565  0.25699480  0.75027061  1
  Te  Te129  1  0.25350023  0.58716839  0.08644214  1
  Te  Te130  1  0.20987132  0.60690905  0.45539865  1
  Te  Te131  1  0.21337255  0.57170499  0.76430179  1
  Te  Te132  1  0.23540261  0.90863343  0.07282797  1
  Te  Te133  1  0.25479190  0.95097343  0.43795627  1
  Te  Te134  1  0.25998362  0.91543908  0.72462477  1
  Te  Te135  1  0.58478278  0.25323744  0.06164930  1
  Te  Te136  1  0.55829696  0.23652835  0.43254429  1
  Te  Te137  1  0.58822063  0.25570126  0.73900109  1
  Te  Te138  1  0.58843328  0.57786995  0.04052016  1
  Te  Te139  1  0.58450818  0.58304411  0.41149841  1
  Te  Te140  1  0.60008362  0.56750496  0.76759692  1
  Te  Te141  1  0.58196426  0.90066119  0.09223137  1
  Te  Te142  1  0.57210190  0.90828330  0.43304043  1
  Te  Te143  1  0.57543751  0.92286376  0.75122017  1
  Te  Te144  1  0.90748397  0.24924889  0.08758179  1
  Te  Te145  1  0.93411444  0.23359589  0.44506026  1
  Te  Te146  1  0.90345206  0.27943077  0.74687002  1
  Te  Te147  1  0.93030682  0.56239339  0.08221381  1
  Te  Te148  1  0.96189647  0.60135060  0.43048934  1
  Te  Te149  1  0.91109809  0.56529944  0.77133593  1
  Te  Te150  1  0.91876904  0.92314553  0.09512319  1
  Te  Te151  1  0.93894273  0.91298676  0.42010857  1
  Te  Te152  1  0.93760704  0.92492561  0.73382290  1
  Te  Te153  1  0.24433644  0.06512119  0.26039730  1
  Te  Te154  1  0.23517466  0.07530276  0.53226255  1
  Te  Te155  1  0.24586645  0.09105085  0.92149602  1
  Te  Te156  1  0.25703167  0.40474277  0.27812488  1
  Te  Te157  1  0.23224736  0.42841408  0.59961168  1
  Te  Te158  1  0.26143073  0.41631302  0.91337572  1
  Te  Te159  1  0.25762017  0.74182582  0.25572486  1
  Te  Te160  1  0.22912261  0.77902180  0.58780252  1
  Te  Te161  1  0.22710990  0.75431902  0.90834884  1
  Te  Te162  1  0.58643437  0.08470032  0.26400113  1
  Te  Te163  1  0.57664359  0.08334754  0.57229491  1
  Te  Te164  1  0.56962708  0.09461363  0.91381663  1
  Te  Te165  1  0.59109852  0.41600324  0.24029752  1
  Te  Te166  1  0.56649307  0.40060367  0.57807040  1
  Te  Te167  1  0.58654031  0.43551159  0.91075274  1
  Te  Te168  1  0.56513460  0.75581579  0.25319049  1
  Te  Te169  1  0.58739109  0.75502606  0.59400510  1
  Te  Te170  1  0.58651509  0.74218172  0.93174996  1
  Te  Te171  1  0.97650987  0.06677885  0.28936104  1
  Te  Te172  1  0.91277704  0.10577269  0.59696790  1
  Te  Te173  1  0.91522509  0.09169005  0.91529631  1
  Te  Te174  1  0.92998195  0.42521904  0.24587958  1
  Te  Te175  1  0.93518810  0.44737109  0.57227327  1
  Te  Te176  1  0.92418732  0.44424523  0.87601555  1
  Te  Te177  1  0.92122105  0.73290891  0.26805730  1
  Te  Te178  1  0.90787440  0.75479710  0.59369172  1
  Te  Te179  1  0.90990433  0.74347767  0.90598338  1
