# generated using pymatgen
data_In2Te3
_symmetry_space_group_name_H-M   'P 1'
_cell_length_a   18.76870613
_cell_length_b   18.77123606
_cell_length_c   18.77593803
_cell_angle_alpha   90.08245569
_cell_angle_beta   90.00262004
_cell_angle_gamma   90.10277513
_symmetry_Int_Tables_number   1
_chemical_formula_structural   In2Te3
_chemical_formula_sum   'In72 Te108'
_cell_volume   6614.96727466
_cell_formula_units_Z   36
loop_
 _symmetry_equiv_pos_site_id
 _symmetry_equiv_pos_as_xyz
  1  'x, y, z'
loop_
 _atom_site_type_symbol
 _atom_site_label
 _atom_site_symmetry_multiplicity
 _atom_site_fract_x
 _atom_site_fract_y
 _atom_site_fract_z
 _atom_site_occupancy
  In  In0  1  0.70504158  -0.02679763  0.65046491  1
  In  In1  1  -0.00858953  0.00798636  0.67391347  1
  In  In2  1  0.14605819  0.48951936  0.33935723  1
  In  In3  1  0.00156459  0.65151903  0.00016786  1
  In  In4  1  0.67205984  0.84055638  0.17900000  1
  In  In5  1  -0.02186139  0.68364424  0.63630539  1
  In  In6  1  0.66666359  0.64505873  -0.00270417  1
  In  In7  1  0.35440199  0.83220372  0.81530693  1
  In  In8  1  0.81706083  0.83705902  0.00417289  1
  In  In9  1  0.67287289  0.48637314  0.83809845  1
  In  In10  1  0.67046005  0.83813804  0.83312369  1
  In  In11  1  0.33155435  0.83637278  0.16540170  1
  In  In12  1  0.18210083  0.35470224  0.85512055  1
  In  In13  1  0.83647817  0.48305909  0.68318596  1
  In  In14  1  0.66732505  0.68050122  0.65160856  1
  In  In15  1  0.68002514  0.02643333  0.01274615  1
  In  In16  1  0.53285340  0.16486965  0.67713039  1
  In  In17  1  0.00437542  0.48351584  0.50801571  1
  In  In18  1  0.70224716  0.00673673  0.35153172  1
  In  In19  1  -0.00299496  0.14969155  0.49153904  1
  In  In20  1  0.83259383  0.68782941  0.50699178  1
  In  In21  1  -0.00212786  0.30642515  0.34031754  1
  In  In22  1  0.48782624  0.36007825  0.15711108  1
  In  In23  1  0.31318294  0.49741785  0.17460073  1
  In  In24  1  0.19331217  0.48485008  0.68100874  1
  In  In25  1  0.15920716  0.83402315  0.64909437  1
  In  In26  1  0.51163618  0.65709575  0.51483033  1
  In  In27  1  0.33094670  0.32695559  0.65911862  1
  In  In28  1  0.31774911  -0.02177323  -0.00471344  1
  In  In29  1  0.33077444  0.01015316  0.33506851  1
  In  In30  1  -0.01747345  0.85168168  0.18850501  1
  In  In31  1  0.14371643  0.01587364  0.82228086  1
  In  In32  1  0.32948076  0.82855750  0.50257366  1
  In  In33  1  0.50113019  -0.02146971  0.16358871  1
  In  In34  1  0.50816139  0.31968457  0.83011040  1
  In  In35  1  0.31423457  0.19386811  0.15420489  1
  In  In36  1  0.84388965  0.33006945  0.16449793  1
  In  In37  1  0.69498080  0.31573231  -0.01305055  1
  In  In38  1  -0.01372428  0.31582223  0.00503279  1
  In  In39  1  0.17326303  0.82186197  0.01338593  1
  In  In40  1  0.00482734  0.48775266  0.14411972  1
  In  In41  1  0.50229305  0.49319235  0.65606942  1
  In  In42  1  -0.01214930  0.85955925  0.81735312  1
  In  In43  1  0.51060112  -0.01341255  0.49708463  1
  In  In44  1  0.80923219  0.66308882  0.83587445  1
  In  In45  1  0.30412217  0.03070478  0.63683843  1
  In  In46  1  0.32056768  0.32480272  0.35108217  1
  In  In47  1  -0.01878983  0.67138314  0.31112586  1
  In  In48  1  0.33947474  0.18306865  0.81784364  1
  In  In49  1  0.15145267  0.17876233  0.33845044  1
  In  In50  1  0.33619090  0.64905149  0.01048954  1
  In  In51  1  -0.00891353  0.30026148  0.66755952  1
  In  In52  1  -0.01181941  0.87656108  0.47675053  1
  In  In53  1  0.65698136  0.32628513  0.33668817  1
  In  In54  1  -0.01798432  0.04296128  -0.01942426  1
  In  In55  1  0.49871593  0.15600767  -0.01018392  1
  In  In56  1  0.14775114  0.17403177  0.00630478  1
  In  In57  1  0.51157951  0.49294109  0.33035753  1
  In  In58  1  -0.01012154  0.48337405  0.85774020  1
  In  In59  1  0.17880161  0.67004143  0.49088854  1
  In  In60  1  0.80724645  0.49598910  0.33718739  1
  In  In61  1  0.32363668  0.67745348  0.34332189  1
  In  In62  1  0.51659471  0.66904561  0.15094147  1
  In  In63  1  0.52963801  0.00336253  0.83724134  1
  In  In64  1  0.51507118  0.16841853  0.35176082  1
  In  In65  1  0.68674308  0.16674363  0.16522265  1
  In  In66  1  0.80275153  0.18650175  0.64747671  1
  In  In67  1  0.68047951  0.66931604  0.34539957  1
  In  In68  1  0.16263241  0.84681128  0.32453485  1
  In  In69  1  0.52136792  0.32399525  0.49925229  1
  In  In70  1  0.16409446  0.63869772  0.82874090  1
  In  In71  1  0.48208709  0.66672717  0.84002960  1
  Te  Te72  1  0.06963461  0.08261386  0.09296747  1
  Te  Te73  1  0.06742317  0.06467363  0.38940251  1
  Te  Te74  1  0.06810738  0.11437382  0.74550028  1
  Te  Te75  1  0.09549831  0.39369936  0.07474448  1
  Te  Te76  1  0.09331919  0.38347144  0.43548567  1
  Te  Te77  1  0.06768775  0.41754731  0.74215930  1
  Te  Te78  1  0.06497054  0.75426919  0.09484242  1
  Te  Te79  1  0.07241118  0.75452353  0.42107062  1
  Te  Te80  1  0.08139308  0.75193191  0.75324370  1
  Te  Te81  1  0.40838335  0.07829417  0.08991435  1
  Te  Te82  1  0.41437101  0.09007266  0.43539776  1
  Te  Te83  1  0.42000351  0.07327930  0.74962036  1
  Te  Te84  1  0.38879857  0.42488229  0.06477121  1
  Te  Te85  1  0.42158344  0.41369992  0.42519485  1
  Te  Te86  1  0.41541699  0.41320261  0.75355210  1
  Te  Te87  1  0.42353407  0.76095430  0.07076206  1
  Te  Te88  1  0.43031676  0.75301696  0.41826099  1
  Te  Te89  1  0.43892182  0.75087845  0.72692121  1
  Te  Te90  1  0.79106707  0.10187795  0.07954360  1
  Te  Te91  1  0.80335829  0.08971393  0.42502470  1
  Te  Te92  1  0.74125367  0.08582640  0.74055026  1
  Te  Te93  1  0.74715766  0.41004437  0.08816532  1
  Te  Te94  1  0.74188726  0.40502607  0.43315737  1
  Te  Te95  1  0.74792829  0.38732274  0.75542458  1
  Te  Te96  1  0.74737535  0.73638409  0.09270700  1
  Te  Te97  1  0.75432994  0.78019518  0.41870230  1
  Te  Te98  1  0.76427139  0.76583252  0.73582272  1
  Te  Te99  1  0.06710458  0.23658133  0.22921824  1
  Te  Te100  1  0.09115434  0.23365252  0.57667404  1
  Te  Te101  1  0.07646238  0.25204170  0.89680102  1
  Te  Te102  1  0.08573773  0.58707867  0.24079643  1
  Te  Te103  1  0.09040894  0.58526823  0.58742036  1
  Te  Te104  1  0.10125341  0.55297623  0.93772455  1
  Te  Te105  1  0.06692298  0.94691095  0.26935349  1
  Te  Te106  1  0.08910187  0.94321889  0.57238725  1
  Te  Te107  1  0.08518097  0.91678912  0.92499315  1
  Te  Te108  1  0.42676970  0.25098615  0.25515195  1
  Te  Te109  1  0.43164546  0.23617551  0.58720365  1
  Te  Te110  1  0.40483364  0.26029859  0.93151001  1
  Te  Te111  1  0.41938349  0.58911519  0.25284414  1
  Te  Te112  1  0.40760721  0.57276050  0.57682041  1
  Te  Te113  1  0.40940096  0.56092878  0.91507327  1
  Te  Te114  1  0.42009828  0.90440247  0.27027100  1
  Te  Te115  1  0.40613602  0.92472384  0.59341722  1
  Te  Te116  1  0.43275864  0.91478738  0.91965999  1
  Te  Te117  1  0.76664384  0.24472149  0.26816617  1
  Te  Te118  1  0.71944091  0.27719656  0.55995775  1
  Te  Te119  1  0.79510766  0.22501727  0.92824871  1
  Te  Te120  1  0.74958179  0.58979229  0.24098697  1
  Te  Te121  1  0.76093738  0.57830930  0.58595214  1
  Te  Te122  1  0.77386248  0.55464942  0.93386293  1
  Te  Te123  1  0.76283296  0.95408160  0.22097676  1
  Te  Te124  1  0.76903949  0.88570148  0.54874084  1
  Te  Te125  1  0.75671947  0.93899621  0.90913821  1
  Te  Te126  1  0.23173166  0.28241175  0.06875744  1
  Te  Te127  1  0.25815538  0.22030557  0.43786955  1
  Te  Te128  1  0.22791294  0.25401451  0.74625591  1
  Te  Te129  1  0.23077384  0.59272492  0.09667957  1
  Te  Te130  1  0.25781649  0.56153067  0.41813054  1
  Te  Te131  1  0.27720956  0.58168196  0.75421867  1
  Te  Te132  1  0.22613083  0.93152480  0.10762746  1
  Te  Te133  1  0.24085274  0.92784575  0.42841709  1
  Te  Te134  1  0.24383616  0.92423309  0.74988043  1
  Te  Te135  1  0.57621269  0.24549674  0.08980848  1
  Te  Te136  1  0.62724205  0.21383554  0.44772668  1
  Te  Te137  1  0.61986643  0.26254657  0.74959741  1
  Te  Te138  1  0.57091326  0.55906202  0.07026156  1
  Te  Te139  1  0.60135816  0.56692692  0.42872700  1
  Te  Te140  1  0.59394514  0.58723831  0.75420525  1
  Te  Te141  1  0.59398704  0.90999068  0.06526552  1
  Te  Te142  1  0.59829717  0.91435637  0.40289511  1
  Te  Te143  1  0.58304983  0.90940478  0.73131222  1
  Te  Te144  1  0.92719810  0.22055099  0.10627595  1
  Te  Te145  1  0.89611287  0.24058422  0.42676311  1
  Te  Te146  1  0.89256827  0.23692228  0.76184328  1
  Te  Te147  1  0.90729037  0.58511664  0.09188609  1
  Te  Te148  1  0.92221161  0.58539914  0.42681353  1
  Te  Te149  1  0.92600685  0.59185704  0.75634903  1
  Te  Te150  1  0.92296143  0.92590694  0.06705370  1
  Te  Te151  1  0.88375330  0.95275138  0.39252510  1
  Te  Te152  1  0.88534440  0.95119695  0.76390428  1
  Te  Te153  1  0.24344824  0.09253685  0.24240121  1
  Te  Te154  1  0.21392304  0.12407170  0.57018372  1
  Te  Te155  1  0.25356748  0.09076787  0.91519562  1
  Te  Te156  1  0.22915279  0.39432764  0.25162105  1
  Te  Te157  1  0.24730089  0.40816680  0.56794805  1
  Te  Te158  1  0.28842101  0.41993011  0.93221182  1
  Te  Te159  1  0.23468310  0.74295296  0.23873234  1
  Te  Te160  1  0.26328979  0.73287494  0.60250508  1
  Te  Te161  1  0.25451586  0.74977646  0.90618737  1
  Te  Te162  1  0.58344241  0.07715621  0.24904506  1
  Te  Te163  1  0.60645783  0.07143838  0.58082302  1
  Te  Te164  1  0.61412101  0.11277374  0.90145359  1
  Te  Te165  1  0.60558120  0.42522894  0.23114732  1
  Te  Te166  1  0.60544952  0.40373651  0.59492561  1
  Te  Te167  1  0.58268411  0.40675987  0.93227016  1
  Te  Te168  1  0.57897690  0.75264993  0.26189496  1
  Te  Te169  1  0.59428827  0.77144000  0.56155152  1
  Te  Te170  1  0.58433150  0.74858866  0.92102201  1
  Te  Te171  1  0.87616795  0.05146467  0.27897579  1
  Te  Te172  1  0.89267497  0.07807779  0.58060766  1
  Te  Te173  1  0.90425032  0.12165265  0.88296847  1
  Te  Te174  1  0.92724389  0.42599684  0.26797622  1
  Te  Te175  1  0.90535347  0.39280270  0.57918520  1
  Te  Te176  1  0.89021200  0.39813501  0.92510447  1
  Te  Te177  1  0.88352322  0.76887039  0.26178381  1
  Te  Te178  1  0.90412586  0.81125151  0.59098297  1
  Te  Te179  1  0.91593084  0.75369091  0.91181975  1
