# generated using pymatgen
data_In2Te3
_symmetry_space_group_name_H-M   'P 1'
_cell_length_a   18.75491883
_cell_length_b   18.76540788
_cell_length_c   18.75978834
_cell_angle_alpha   89.96988297
_cell_angle_beta   89.93216150
_cell_angle_gamma   89.99470740
_symmetry_Int_Tables_number   1
_chemical_formula_structural   In2Te3
_chemical_formula_sum   'In72 Te108'
_cell_volume   6602.38378075
_cell_formula_units_Z   36
loop_
 _symmetry_equiv_pos_site_id
 _symmetry_equiv_pos_as_xyz
  1  'x, y, z'
loop_
 _atom_site_type_symbol
 _atom_site_label
 _atom_site_symmetry_multiplicity
 _atom_site_fract_x
 _atom_site_fract_y
 _atom_site_fract_z
 _atom_site_occupancy
  In  In0  1  0.83027371  0.85337552  0.68886666  1
  In  In1  1  -0.00519775  0.51782474  0.16450181  1
  In  In2  1  0.17577497  0.48440737  0.35299672  1
  In  In3  1  0.35879575  0.32024831  -0.00301322  1
  In  In4  1  0.34157401  0.14233826  0.15683204  1
  In  In5  1  0.79026475  0.52360710  0.31343409  1
  In  In6  1  0.00950538  0.32504942  0.35514691  1
  In  In7  1  0.16970167  0.00963600  0.15805514  1
  In  In8  1  -0.00882794  0.52295067  0.82027587  1
  In  In9  1  0.17242624  0.33568258  0.80110031  1
  In  In10  1  0.15852995  0.16794621  0.69070720  1
  In  In11  1  0.50761668  0.18471411  0.34102104  1
  In  In12  1  0.15395894  0.83355908  0.35439578  1
  In  In13  1  0.68239825  0.47318954  0.82063019  1
  In  In14  1  0.17832760  0.84865147  -0.02344902  1
  In  In15  1  0.19776586  0.52269323  0.02412031  1
  In  In16  1  0.82241071  0.66694580  0.49802293  1
  In  In17  1  0.51633570  0.50337687  -0.00091093  1
  In  In18  1  0.00711050  0.01472016  0.34229511  1
  In  In19  1  0.49758959  0.66766631  0.16152650  1
  In  In20  1  0.33659801  0.68064637  0.67585579  1
  In  In21  1  0.34663384  0.65650850  0.33210938  1
  In  In22  1  0.35329622  0.49372196  0.49251271  1
  In  In23  1  0.00387059  0.19009326  0.14644021  1
  In  In24  1  0.48915338  0.68369875  0.82060868  1
  In  In25  1  0.79879537  0.85206800  -0.02807312  1
  In  In26  1  0.34398405  0.82567090  0.15877152  1
  In  In27  1  0.19058110  0.14205536  -0.02455987  1
  In  In28  1  -0.01111618  0.68085233  0.36577084  1
  In  In29  1  0.35202934  0.36008306  0.33375491  1
  In  In30  1  0.17710955  0.70246683  0.82578948  1
  In  In31  1  0.00030096  0.32043783  -0.00200344  1
  In  In32  1  -0.02952820  0.15799864  0.49098083  1
  In  In33  1  0.51146894  0.88959775  -0.04361280  1
  In  In34  1  0.50635336  0.82486044  0.30596568  1
  In  In35  1  0.49654633  -0.00615209  0.13843322  1
  In  In36  1  0.66669033  0.18399508  0.51244203  1
  In  In37  1  0.17232332  0.33169524  0.19150230  1
  In  In38  1  0.65343679  0.67999247  0.00530148  1
  In  In39  1  0.33566606  0.30448693  0.66455025  1
  In  In40  1  0.33509067  0.82663539  0.50907592  1
  In  In41  1  0.16508928  0.32567046  0.51302770  1
  In  In42  1  0.53633516  0.34979048  0.17187751  1
  In  In43  1  0.13532870  0.52465282  0.64753119  1
  In  In44  1  0.65279069  0.50058082  0.48772614  1
  In  In45  1  0.83599706  0.32747302  0.16395651  1
  In  In46  1  0.67259868  0.66419034  0.65596057  1
  In  In47  1  0.81604480  0.13733594  0.68385570  1
  In  In48  1  0.67180373  -0.00053744  0.32881659  1
  In  In49  1  0.81432646  0.01074523  0.12547996  1
  In  In50  1  0.67029325  0.82219030  0.50897463  1
  In  In51  1  0.00526861  0.85173185  0.51873263  1
  In  In52  1  0.34388882  0.49785192  0.84649874  1
  In  In53  1  0.00579080  0.84346932  0.81385837  1
  In  In54  1  0.34113205  0.18175155  0.50185927  1
  In  In55  1  0.48933115  0.01629965  0.51077646  1
  In  In56  1  0.82723191  0.00088224  0.51993545  1
  In  In57  1  0.67570858  0.17265372  0.14292821  1
  In  In58  1  0.81526976  0.47362715  0.00570874  1
  In  In59  1  0.80162983  0.81743665  0.34070194  1
  In  In60  1  0.51302239  0.16633121  0.68793246  1
  In  In61  1  0.83976138  0.65888817  0.81416203  1
  In  In62  1  -0.04003761  0.83958923  0.15892876  1
  In  In63  1  0.77663794  0.28398921  0.82712720  1
  In  In64  1  0.16230600  -0.01871449  0.51589586  1
  In  In65  1  -0.02336852  0.13373216  0.83943748  1
  In  In66  1  0.84939043  0.18920192  0.31602718  1
  In  In67  1  0.16353225  0.65076118  0.14886882  1
  In  In68  1  0.32604785  -0.01489061  0.69058625  1
  In  In69  1  -0.00991600  0.65501258  0.00568462  1
  In  In70  1  0.51519171  0.29841676  0.84158341  1
  In  In71  1  0.50458576  0.49150212  0.64870201  1
  Te  Te72  1  0.07637017  0.08413242  0.06261859  1
  Te  Te73  1  0.09878425  0.09394417  0.43165566  1
  Te  Te74  1  0.08811088  0.06444600  0.76930955  1
  Te  Te75  1  0.08516473  0.41794903  0.08950167  1
  Te  Te76  1  0.06471477  0.43685516  0.45165709  1
  Te  Te77  1  0.05609336  0.40660669  0.72619354  1
  Te  Te78  1  0.07606456  0.75830623  0.08261817  1
  Te  Te79  1  0.09871626  0.73533079  0.45886553  1
  Te  Te80  1  0.06903976  0.73644137  0.73305716  1
  Te  Te81  1  0.42911199  0.09173350  0.04740585  1
  Te  Te82  1  0.40794738  0.08557699  0.40247189  1
  Te  Te83  1  0.43664711  0.06015260  0.76375569  1
  Te  Te84  1  0.42272982  0.42157620  0.08808617  1
  Te  Te85  1  0.45567150  0.40431812  0.43171732  1
  Te  Te86  1  0.42161864  0.40238746  0.75643654  1
  Te  Te87  1  0.45471720  0.77997572  0.06674298  1
  Te  Te88  1  0.43380330  0.74866587  0.41675155  1
  Te  Te89  1  0.40469285  0.78593524  0.75666703  1
  Te  Te90  1  0.70955531  0.07156371  0.03500264  1
  Te  Te91  1  0.76403932  0.08995745  0.41074964  1
  Te  Te92  1  0.72075877  0.07340727  0.78368613  1
  Te  Te93  1  0.72550322  0.40240108  0.09915757  1
  Te  Te94  1  0.75570449  0.42072435  0.41225525  1
  Te  Te95  1  0.78979149  0.40711127  0.74470151  1
  Te  Te96  1  0.75464897  0.75986646  0.07800966  1
  Te  Te97  1  0.70872227  0.71436553  0.40796226  1
  Te  Te98  1  0.73494067  0.75631988  0.76035082  1
  Te  Te99  1  0.08830791  0.22728687  0.26726633  1
  Te  Te100  1  0.06722733  0.23661584  0.58720560  1
  Te  Te101  1  0.09096752  0.24337730  0.90250754  1
  Te  Te102  1  0.08427078  0.58838348  0.27024108  1
  Te  Te103  1  0.05769521  0.60129207  0.55160546  1
  Te  Te104  1  0.09420140  0.58124731  0.92027235  1
  Te  Te105  1  0.07353544  0.90819218  0.24450574  1
  Te  Te106  1  0.08985480  0.91238507  0.62417330  1
  Te  Te107  1  0.07955961  0.93414013  0.90767634  1
  Te  Te108  1  0.41651619  0.25862936  0.23602986  1
  Te  Te109  1  0.45018513  0.25687389  0.57630085  1
  Te  Te110  1  0.41806711  0.21107388  0.91519501  1
  Te  Te111  1  0.44331344  0.56382781  0.26057524  1
  Te  Te112  1  0.42528283  0.59963378  0.57750266  1
  Te  Te113  1  0.41989556  0.59968929  0.92999530  1
  Te  Te114  1  0.41088702  0.92935474  0.24964308  1
  Te  Te115  1  0.42704007  0.91146817  0.59990542  1
  Te  Te116  1  0.38462896  0.94057077  0.88734120  1
  Te  Te117  1  0.72989072  0.26056591  0.25668373  1
  Te  Te118  1  0.77376574  0.24687006  0.59219124  1
  Te  Te119  1  0.73991892  0.21832706  0.95368692  1
  Te  Te120  1  0.70733463  0.61135654  0.23048884  1
  Te  Te121  1  0.75974182  0.56104696  0.59012803  1
  Te  Te122  1  0.74624104  0.58430808  0.91488075  1
  Te  Te123  1  0.75091499  0.91351944  0.23167958  1
  Te  Te124  1  0.72403442  0.92779609  0.60494482  1
  Te  Te125  1  0.72716556  0.94041590  0.87430022  1
  Te  Te126  1  0.23980572  0.24768104  0.08158316  1
  Te  Te127  1  0.25456590  0.26293169  0.40537434  1
  Te  Te128  1  0.27454619  0.22222755  0.77655643  1
  Te  Te129  1  0.29495479  0.60505814  0.09892785  1
  Te  Te130  1  0.25103225  0.59089636  0.43343162  1
  Te  Te131  1  0.24744607  0.57146628  0.75394369  1
  Te  Te132  1  0.26730427  0.92771102  0.07338826  1
  Te  Te133  1  0.26139405  0.92377037  0.41397009  1
  Te  Te134  1  0.24958108  0.90931738  0.79754851  1
  Te  Te135  1  0.56349260  0.24130152  0.07399768  1
  Te  Te136  1  0.60500505  0.27065084  0.40976109  1
  Te  Te137  1  0.62144224  0.25361257  0.74669556  1
  Te  Te138  1  0.61062144  0.56617209  0.10132751  1
  Te  Te139  1  0.55694256  0.55964332  0.38779231  1
  Te  Te140  1  0.57901918  0.57312829  0.75968330  1
  Te  Te141  1  0.60072934  0.91070118  0.07529283  1
  Te  Te142  1  0.57818703  0.91799011  0.41814196  1
  Te  Te143  1  0.59524878  0.95051906  0.78440424  1
  Te  Te144  1  0.88283374  0.22528889  0.05078186  1
  Te  Te145  1  0.88841554  0.27674549  0.43637871  1
  Te  Te146  1  0.90959245  0.24102107  0.75664823  1
  Te  Te147  1  0.88194791  0.58672507  0.08989462  1
  Te  Te148  1  0.90248523  0.56600931  0.41440249  1
  Te  Te149  1  0.90900992  0.57892037  0.71067449  1
  Te  Te150  1  0.91576205  0.92811189  0.04428833  1
  Te  Te151  1  0.90619369  0.91237263  0.40958136  1
  Te  Te152  1  0.90588632  0.94726084  0.77400371  1
  Te  Te153  1  0.24631525  0.08798620  0.25608875  1
  Te  Te154  1  0.25946640  0.08783437  0.59121175  1
  Te  Te155  1  0.25932259  0.03665911  0.89385410  1
  Te  Te156  1  0.26479948  0.44457083  0.23672502  1
  Te  Te157  1  0.25554891  0.41770637  0.59713767  1
  Te  Te158  1  0.24439043  0.40660920  0.92407115  1
  Te  Te159  1  0.24400255  0.75419000  0.25789503  1
  Te  Te160  1  0.23885227  0.76494682  0.60289889  1
  Te  Te161  1  0.26750819  0.73868940  0.93506414  1
  Te  Te162  1  0.57988408  0.08615868  0.24239362  1
  Te  Te163  1  0.59998565  0.07540373  0.59573217  1
  Te  Te164  1  0.58750862  0.06939867  0.87038459  1
  Te  Te165  1  0.57170832  0.44708479  0.28375381  1
  Te  Te166  1  0.60787636  0.40422159  0.59380138  1
  Te  Te167  1  0.59803236  0.39872729  0.92471563  1
  Te  Te168  1  0.60869104  0.73742561  0.23896799  1
  Te  Te169  1  0.57151934  0.75079084  0.59272144  1
  Te  Te170  1  0.58963063  0.76778984  0.89781865  1
  Te  Te171  1  0.91476214  0.07678785  0.23273201  1
  Te  Te172  1  0.93358803  0.06480524  0.60559767  1
  Te  Te173  1  0.88168323  0.10498332  0.94864772  1
  Te  Te174  1  0.92926142  0.41012095  0.25248942  1
  Te  Te175  1  0.99346865  0.40512773  0.58579593  1
  Te  Te176  1  0.92017720  0.41723174  0.90969885  1
  Te  Te177  1  0.89918243  0.73505726  0.25329791  1
  Te  Te178  1  0.90237528  0.76164236  0.58793878  1
  Te  Te179  1  0.91427528  0.75090617  0.91446395  1
