# generated using pymatgen
data_In2Te3
_symmetry_space_group_name_H-M   'P 1'
_cell_length_a   18.96517355
_cell_length_b   18.94092557
_cell_length_c   18.93253448
_cell_angle_alpha   90.08365565
_cell_angle_beta   90.10859950
_cell_angle_gamma   89.89542113
_symmetry_Int_Tables_number   1
_chemical_formula_structural   In2Te3
_chemical_formula_sum   'In72 Te108'
_cell_volume   6800.87528939
_cell_formula_units_Z   36
loop_
 _symmetry_equiv_pos_site_id
 _symmetry_equiv_pos_as_xyz
  1  'x, y, z'
loop_
 _atom_site_type_symbol
 _atom_site_label
 _atom_site_symmetry_multiplicity
 _atom_site_fract_x
 _atom_site_fract_y
 _atom_site_fract_z
 _atom_site_occupancy
  In  In0  1  0.14111901  0.88157621  0.63892835  1
  In  In1  1  0.49552643  -0.01155621  0.81103132  1
  In  In2  1  0.84067528  0.14425288  -0.01901354  1
  In  In3  1  0.01896177  0.30853333  0.33058245  1
  In  In4  1  0.51175985  0.82843215  0.65426016  1
  In  In5  1  0.31224720  0.66300649  0.33997309  1
  In  In6  1  0.00285109  0.30350288  -0.01300740  1
  In  In7  1  0.83905707  -0.02580336  0.54935226  1
  In  In8  1  0.65695889  0.48261506  0.15950206  1
  In  In9  1  0.80166883  0.15824748  0.34192628  1
  In  In10  1  0.68415710  -0.00872796  0.35197236  1
  In  In11  1  0.50948506  0.16840726  0.68716655  1
  In  In12  1  0.30821909  0.69174161  0.01804641  1
  In  In13  1  0.30826987  0.86966621  0.46558697  1
  In  In14  1  0.47298401  0.85949945  0.32473159  1
  In  In15  1  0.66619598  0.82255756  0.15989249  1
  In  In16  1  0.16545372  0.50786972  0.00248107  1
  In  In17  1  0.82898116  0.50196390  0.35008771  1
  In  In18  1  0.47466984  0.14613803  0.00024769  1
  In  In19  1  0.85503558  0.68286061  0.20993221  1
  In  In20  1  0.51509337  0.63550678  0.83372320  1
  In  In21  1  0.16576099  0.16582018  0.00164684  1
  In  In22  1  0.49662894  0.14575990  0.33474099  1
  In  In23  1  0.62938794  0.31526176  0.33501609  1
  In  In24  1  0.33822374  0.49896478  0.47753081  1
  In  In25  1  0.29980240  0.70889748  0.64646164  1
  In  In26  1  0.47768144  0.31769710  0.14357001  1
  In  In27  1  0.31950799  0.49787970  0.85238626  1
  In  In28  1  0.20411088  0.33507326  0.15565531  1
  In  In29  1  0.34273095  0.34875442  0.32832905  1
  In  In30  1  0.16745764  0.33239678  0.50764757  1
  In  In31  1  0.67589658  0.66510321  -0.03046464  1
  In  In32  1  0.16984907  0.13125263  0.66840856  1
  In  In33  1  0.16722148  0.70786004  0.82441541  1
  In  In34  1  0.49750424  0.64490349  0.48960488  1
  In  In35  1  0.15060850  -0.01308929  0.83662054  1
  In  In36  1  0.49462869  0.00679950  0.51583850  1
  In  In37  1  0.82644872  0.52081703  0.00256495  1
  In  In38  1  0.27786494  0.01461104  0.06214120  1
  In  In39  1  0.65277599  0.17136849  0.17388860  1
  In  In40  1  -0.01596297  0.33654765  0.66725610  1
  In  In41  1  0.04107835  0.50571950  0.19412510  1
  In  In42  1  0.92492239  0.82882916  0.37548567  1
  In  In43  1  0.48513702  0.48259352  0.66642489  1
  In  In44  1  0.82703800  0.68401176  0.81685660  1
  In  In45  1  0.83759132  0.50742338  0.67259283  1
  In  In46  1  0.82482894  0.17017985  0.68144811  1
  In  In47  1  0.15238247  0.51676156  0.65734104  1
  In  In48  1  0.51032016  0.46576218  -0.01757533  1
  In  In49  1  0.34528373  0.30522154  0.66241439  1
  In  In50  1  0.86339782  -0.00135517  0.17996356  1
  In  In51  1  0.02156448  0.12220218  0.48864235  1
  In  In52  1  0.50011756  0.64028912  0.18950346  1
  In  In53  1  0.66716764  0.00862090  -0.01695899  1
  In  In54  1  0.65298613  0.49170444  0.52196801  1
  In  In55  1  0.34243223  0.83117077  0.83426756  1
  In  In56  1  0.81102677  0.33181908  0.83610317  1
  In  In57  1  -0.01713067  0.51859928  0.82271810  1
  In  In58  1  0.34172565  0.17009767  0.83338819  1
  In  In59  1  0.30650917  0.14109329  0.50227470  1
  In  In60  1  0.67337316  0.68368230  0.67000363  1
  In  In61  1  0.85397621  0.71668207  0.52547256  1
  In  In62  1  0.82292348  0.30782215  0.51721239  1
  In  In63  1  0.01211052  0.67738081  0.03219051  1
  In  In64  1  0.50954113  0.80881552  -0.00479607  1
  In  In65  1  0.68951997  0.68070448  0.36070404  1
  In  In66  1  0.15851110  0.68789871  0.18404841  1
  In  In67  1  0.09083638  0.09133080  0.21502937  1
  In  In68  1  0.84739178  0.84454106  0.01242612  1
  In  In69  1  0.01529374  0.53109949  0.49159170  1
  In  In70  1  0.85245553  0.33957174  0.14014033  1
  In  In71  1  0.85990018  -0.01852719  0.81015618  1
  Te  Te72  1  0.12650105  0.03926114  0.07225027  1
  Te  Te73  1  0.11793124  0.10020878  0.37472426  1
  Te  Te74  1  0.06532318  0.05464370  0.73560981  1
  Te  Te75  1  0.07066902  0.41267367  0.07746184  1
  Te  Te76  1  0.08593542  0.41796210  0.41223525  1
  Te  Te77  1  0.07786188  0.42352215  0.75108762  1
  Te  Te78  1  0.09841147  0.78129833  0.08650485  1
  Te  Te79  1  0.05433090  0.75853966  0.35788045  1
  Te  Te80  1  0.07466989  0.79580829  0.74851832  1
  Te  Te81  1  0.41082840  0.06689350  0.10826969  1
  Te  Te82  1  0.39790237  0.06008883  0.40950342  1
  Te  Te83  1  0.39857094  0.07310593  0.73170211  1
  Te  Te84  1  0.41011742  0.43171134  0.07973320  1
  Te  Te85  1  0.43637131  0.40027676  0.43232513  1
  Te  Te86  1  0.40424338  0.40290216  0.76761125  1
  Te  Te87  1  0.42608031  0.74148142  0.10271927  1
  Te  Te88  1  0.41365077  0.75756907  0.42555843  1
  Te  Te89  1  0.42816595  0.73835647  0.74998710  1
  Te  Te90  1  0.74853855  0.07635704  0.09475421  1
  Te  Te91  1  0.75555758  0.07356828  0.45711518  1
  Te  Te92  1  0.75889944  0.08489690  0.78125901  1
  Te  Te93  1  0.74118869  0.40724420  0.05899416  1
  Te  Te94  1  0.73845615  0.40133085  0.42005464  1
  Te  Te95  1  0.74920369  0.39876408  0.71753631  1
  Te  Te96  1  0.75999119  0.73114537  0.08199710  1
  Te  Te97  1  0.77710239  0.78905012  0.41560385  1
  Te  Te98  1  0.76947343  0.78802243  0.72125620  1
  Te  Te99  1  0.09427426  0.25036385  0.21554242  1
  Te  Te100  1  0.07362932  0.24292729  0.58476906  1
  Te  Te101  1  0.08903950  0.23056149  0.89522680  1
  Te  Te102  1  0.07158110  0.61818373  0.28710312  1
  Te  Te103  1  0.08215055  0.62253357  0.58476847  1
  Te  Te104  1  0.08445284  0.60030335  0.90948638  1
  Te  Te105  1  0.09489185  0.95439343  0.27779240  1
  Te  Te106  1  0.05007548  0.91804867  0.52440595  1
  Te  Te107  1  0.03217654  0.93831260  0.91329268  1
  Te  Te108  1  0.40781524  0.23532409  0.24946096  1
  Te  Te109  1  0.42003461  0.22020519  0.56674658  1
  Te  Te110  1  0.39020537  0.25565649  0.94461082  1
  Te  Te111  1  0.40702388  0.56957903  0.27554828  1
  Te  Te112  1  0.40264833  0.59211493  0.59552851  1
  Te  Te113  1  0.40106543  0.60270916  0.92827966  1
  Te  Te114  1  0.40892253  0.93769943  0.21785297  1
  Te  Te115  1  0.40340768  0.90621981  0.58372555  1
  Te  Te116  1  0.42598746  0.91674223  0.92705274  1
  Te  Te117  1  0.75190876  0.27089162  0.24004259  1
  Te  Te118  1  0.72549476  0.26011961  0.61453276  1
  Te  Te119  1  0.74271408  0.23763290  0.92497928  1
  Te  Te120  1  0.73900327  0.57989558  0.24415500  1
  Te  Te121  1  0.75811323  0.59561717  0.56809304  1
  Te  Te122  1  0.74923941  0.56718799  0.87996691  1
  Te  Te123  1  0.75760374  0.91004087  0.24450871  1
  Te  Te124  1  0.73230181  0.90120163  0.61975009  1
  Te  Te125  1  0.75915799  0.91280451  0.91101071  1
  Te  Te126  1  0.27621852  0.23882463  0.07023433  1
  Te  Te127  1  0.25454163  0.25493210  0.41377561  1
  Te  Te128  1  0.23630510  0.24270283  0.74640643  1
  Te  Te129  1  0.24449014  0.58590797  0.10457971  1
  Te  Te130  1  0.23246938  0.59202520  0.44121718  1
  Te  Te131  1  0.24930226  0.59772846  0.75644344  1
  Te  Te132  1  0.28570835  0.88589245  0.13899784  1
  Te  Te133  1  0.22127937  0.94239553  0.36645691  1
  Te  Te134  1  0.24999750  0.90990216  0.74623706  1
  Te  Te135  1  0.58212777  0.24356198  0.06339709  1
  Te  Te136  1  0.59463945  0.20792188  0.42530101  1
  Te  Te137  1  0.54263033  0.28119776  0.77521189  1
  Te  Te138  1  0.58745111  0.58700797  0.06574586  1
  Te  Te139  1  0.59500877  0.56834771  0.40261493  1
  Te  Te140  1  0.59896558  0.56537543  0.72952284  1
  Te  Te141  1  0.58464543  0.91595563  0.07438062  1
  Te  Te142  1  0.57590859  0.91382106  0.42394004  1
  Te  Te143  1  0.60109949  0.92555551  0.72471388  1
  Te  Te144  1  0.92626587  0.21860437  0.08557613  1
  Te  Te145  1  0.91938006  0.23681447  0.42328719  1
  Te  Te146  1  0.92135336  0.24921022  0.77161464  1
  Te  Te147  1  0.92134234  0.57855985  0.10703379  1
  Te  Te148  1  0.90554396  0.60973376  0.42181660  1
  Te  Te149  1  0.92937219  0.61891646  0.72244314  1
  Te  Te150  1  0.94568568  0.93667356  0.07355367  1
  Te  Te151  1  0.93103536  0.96978447  0.42547832  1
  Te  Te152  1  0.93406354  0.87874141  0.72896699  1
  Te  Te153  1  0.23243860  0.07028130  0.27265520  1
  Te  Te154  1  0.22503351  0.03751645  0.56942402  1
  Te  Te155  1  0.26528575  0.06320234  0.91108666  1
  Te  Te156  1  0.24409320  0.43198523  0.25665187  1
  Te  Te157  1  0.25650800  0.41945579  0.59717524  1
  Te  Te158  1  0.22664970  0.40647392  0.91715391  1
  Te  Te159  1  0.26255992  0.77281979  0.25204272  1
  Te  Te160  1  0.21368097  0.78160184  0.54456436  1
  Te  Te161  1  0.23226480  0.79220076  0.93327472  1
  Te  Te162  1  0.59000170  0.05850980  0.25120511  1
  Te  Te163  1  0.58873078  0.06996990  0.61016674  1
  Te  Te164  1  0.57149387  0.08900729  0.89680294  1
  Te  Te165  1  0.55601360  0.40902609  0.24252931  1
  Te  Te166  1  0.55143509  0.39547826  0.56655618  1
  Te  Te167  1  0.57630700  0.39557160  0.87586281  1
  Te  Te168  1  0.58450522  0.75193193  0.26804084  1
  Te  Te169  1  0.59254424  0.74402257  0.55657019  1
  Te  Te170  1  0.59712234  0.75851100  0.88085648  1
  Te  Te171  1  0.91505004  0.11148198  0.25990809  1
  Te  Te172  1  0.92523083  0.08741229  0.60364353  1
  Te  Te173  1  0.94622571  0.06483624  0.90637824  1
  Te  Te174  1  0.91782864  0.41699650  0.25931748  1
  Te  Te175  1  0.91925414  0.42750786  0.56166981  1
  Te  Te176  1  0.91833188  0.42234603  0.92090439  1
  Te  Te177  1  0.95248776  0.79089604  0.23000252  1
  Te  Te178  1  0.95215748  0.81451019  0.58680700  1
  Te  Te179  1  0.91732842  0.73835091  0.92682597  1
