# generated using pymatgen
data_In2Te3
_symmetry_space_group_name_H-M   'P 1'
_cell_length_a   19.03164707
_cell_length_b   19.03820103
_cell_length_c   19.00830554
_cell_angle_alpha   89.93723080
_cell_angle_beta   90.04795056
_cell_angle_gamma   89.93099302
_symmetry_Int_Tables_number   1
_chemical_formula_structural   In2Te3
_chemical_formula_sum   'In72 Te108'
_cell_volume   6887.23591863
_cell_formula_units_Z   36
loop_
 _symmetry_equiv_pos_site_id
 _symmetry_equiv_pos_as_xyz
  1  'x, y, z'
loop_
 _atom_site_type_symbol
 _atom_site_label
 _atom_site_symmetry_multiplicity
 _atom_site_fract_x
 _atom_site_fract_y
 _atom_site_fract_z
 _atom_site_occupancy
  In  In0  1  0.47261760  0.50828610  0.66778242  1
  In  In1  1  0.00206792  -0.01019575  0.68042704  1
  In  In2  1  0.17141066  0.80736123  0.68360489  1
  In  In3  1  0.81317739  0.47109425  0.00966806  1
  In  In4  1  -0.01703760  0.32250465  0.00522147  1
  In  In5  1  0.66837166  0.17944810  0.16281641  1
  In  In6  1  0.33892647  0.17860703  0.14797103  1
  In  In7  1  0.12268119  0.16808473  0.65987930  1
  In  In8  1  0.02141004  0.51522861  0.47640210  1
  In  In9  1  0.49871143  0.00555577  0.51674330  1
  In  In10  1  0.34188528  0.00000754  -0.00703443  1
  In  In11  1  0.32998955  0.36476175  0.34726053  1
  In  In12  1  0.02135563  0.51175834  0.18101713  1
  In  In13  1  0.13999618  0.02439040  0.47745445  1
  In  In14  1  0.67198804  0.82392457  0.82382842  1
  In  In15  1  0.01723863  0.34842992  0.65368500  1
  In  In16  1  -0.00849274  0.34060546  0.33220564  1
  In  In17  1  0.79795363  0.15511405  -0.00978685  1
  In  In18  1  -0.03919464  0.16786547  0.82971136  1
  In  In19  1  0.01137771  0.82268268  0.85440390  1
  In  In20  1  0.80420191  0.15405376  0.64926681  1
  In  In21  1  0.50926575  0.33539000  0.84393844  1
  In  In22  1  0.19087945  0.51291414  0.66986008  1
  In  In23  1  0.00525763  0.83432801  0.16882871  1
  In  In24  1  0.84510496  0.67451122  0.17702502  1
  In  In25  1  0.48795530  0.83317895  0.35715687  1
  In  In26  1  0.66714399  0.64664586  0.67289387  1
  In  In27  1  0.15496216  0.35537794  0.81828906  1
  In  In28  1  0.33695001  0.65752343  -0.01106312  1
  In  In29  1  0.52404088  0.64775693  0.16042502  1
  In  In30  1  0.52380902  0.16548291  0.68353912  1
  In  In31  1  0.34990295  0.80154695  0.82455853  1
  In  In32  1  0.33559611  0.33586161  0.01132947  1
  In  In33  1  0.50648157  0.48848290  0.32598168  1
  In  In34  1  0.84934243  0.83826159  0.03179285  1
  In  In35  1  0.84067448  0.51633738  0.67815056  1
  In  In36  1  0.33941881  0.34005510  0.62595472  1
  In  In37  1  0.81538331  0.33823341  0.50327274  1
  In  In38  1  0.52433913  0.85866045  -0.00474081  1
  In  In39  1  0.34926774  0.81060147  0.18131029  1
  In  In40  1  0.85287223  0.67637738  0.51119553  1
  In  In41  1  0.01909357  0.65695260  -0.00081937  1
  In  In42  1  0.51855205  0.12086647  -0.03516878  1
  In  In43  1  0.17490480  -0.03433954  0.86388764  1
  In  In44  1  0.31314286  0.16928328  0.82642771  1
  In  In45  1  0.32767747  0.84027552  0.52048186  1
  In  In46  1  0.18843106  0.50894016  -0.00198704  1
  In  In47  1  0.62791208  0.48327164  0.51445970  1
  In  In48  1  0.66485798  0.47731812  0.84552121  1
  In  In49  1  0.68955891  0.82581516  0.52357061  1
  In  In50  1  0.66368782  0.65249810  -0.02085075  1
  In  In51  1  0.82455521  -0.01270099  0.83852819  1
  In  In52  1  0.69338661  0.67326144  0.33969359  1
  In  In53  1  0.81666332  0.00063550  0.48011082  1
  In  In54  1  0.48533552  0.66245466  0.52287983  1
  In  In55  1  0.17548161  0.34148766  0.18253532  1
  In  In56  1  0.14416971  0.02654204  0.15745910  1
  In  In57  1  0.33457258  -0.00087265  0.30312729  1
  In  In58  1  0.50570826  0.33015606  0.15674114  1
  In  In59  1  0.82325237  0.32820437  0.83427791  1
  In  In60  1  0.17308518  0.82500462  0.34641108  1
  In  In61  1  0.18155222  0.82157078  0.03415533  1
  In  In62  1  0.17188272  0.65671101  0.48270133  1
  In  In63  1  0.83261258  0.50140961  0.32036854  1
  In  In64  1  -0.03230550  0.17659778  0.47092240  1
  In  In65  1  0.55476231  0.23709023  0.32562523  1
  In  In66  1  0.67550876  -0.00045365  0.32202337  1
  In  In67  1  0.32639342  0.17982655  0.47361668  1
  In  In68  1  0.34243786  0.00479880  0.64437994  1
  In  In69  1  -0.04224233  0.15382716  0.17181609  1
  In  In70  1  0.66584835  0.84879111  0.16879896  1
  In  In71  1  -0.01533643  0.86219568  0.51192378  1
  Te  Te72  1  0.05563718  0.10474389  0.07335011  1
  Te  Te73  1  0.06697544  0.10809001  0.37902453  1
  Te  Te74  1  0.08670168  0.06929522  0.77626632  1
  Te  Te75  1  0.08393685  0.41592443  0.07320162  1
  Te  Te76  1  0.10263819  0.43253504  0.37900574  1
  Te  Te77  1  0.06553876  0.45359718  0.74770144  1
  Te  Te78  1  0.09574854  0.72407153  0.10978853  1
  Te  Te79  1  0.07147475  0.76034454  0.43477229  1
  Te  Te80  1  0.09240319  0.72822778  0.77644997  1
  Te  Te81  1  0.43225761  0.07707852  0.08535414  1
  Te  Te82  1  0.41433352  0.07403924  0.41106899  1
  Te  Te83  1  0.41258188  0.08376997  0.75214682  1
  Te  Te84  1  0.40725191  0.42660114  0.10107102  1
  Te  Te85  1  0.43736305  0.41638866  0.43439390  1
  Te  Te86  1  0.40518656  0.39456124  0.74870075  1
  Te  Te87  1  0.43381086  0.75384154  0.06921966  1
  Te  Te88  1  0.39313127  0.74094413  0.42559371  1
  Te  Te89  1  0.39934464  0.68568029  0.74713003  1
  Te  Te90  1  0.73404658  0.06862299  0.09086630  1
  Te  Te91  1  0.73204993  0.10026394  0.41407699  1
  Te  Te92  1  0.74282263  0.09041099  0.76844429  1
  Te  Te93  1  0.74332784  0.37729260  0.09422276  1
  Te  Te94  1  0.73743367  0.43548428  0.41713746  1
  Te  Te95  1  0.74743103  0.41430623  0.73287435  1
  Te  Te96  1  0.73599048  0.73651425  0.08335963  1
  Te  Te97  1  0.77945621  0.77150823  0.41504260  1
  Te  Te98  1  0.76387846  0.73234991  0.74777094  1
  Te  Te99  1  0.06246539  0.25435696  0.23042838  1
  Te  Te100  1  0.07426965  0.25736802  0.54748937  1
  Te  Te101  1  0.06457787  0.25723032  0.89418062  1
  Te  Te102  1  0.11233019  0.56157307  0.28655714  1
  Te  Te103  1  0.08288218  0.59337906  0.58767022  1
  Te  Te104  1  0.09600985  0.57707718  0.90587563  1
  Te  Te105  1  0.09848450  0.91923006  0.25423230  1
  Te  Te106  1  0.10758444  0.92132241  0.59049050  1
  Te  Te107  1  0.07712554  0.90748242  0.96232861  1
  Te  Te108  1  0.41534343  0.25197003  0.25683627  1
  Te  Te109  1  0.42493181  0.22704274  0.57761600  1
  Te  Te110  1  0.41325070  0.23216111  0.92180575  1
  Te  Te111  1  0.43277827  0.59603393  0.26013934  1
  Te  Te112  1  0.39612524  0.54838427  0.54700480  1
  Te  Te113  1  0.39694765  0.59082782  0.87146455  1
  Te  Te114  1  0.44270069  0.91601458  0.23848583  1
  Te  Te115  1  0.43855735  0.89452830  0.60573302  1
  Te  Te116  1  0.42112242  0.91483026  0.89699379  1
  Te  Te117  1  0.71990511  0.30283648  0.22829279  1
  Te  Te118  1  0.71724880  0.25338242  0.57941381  1
  Te  Te119  1  0.72170648  0.25383892  0.90922355  1
  Te  Te120  1  0.73623508  0.57825604  0.23135656  1
  Te  Te121  1  0.74623699  0.57982268  0.56150085  1
  Te  Te122  1  0.76766182  0.57252226  0.90451036  1
  Te  Te123  1  0.76988367  0.91278560  0.24972758  1
  Te  Te124  1  0.76573742  0.92665977  0.59503673  1
  Te  Te125  1  0.75119113  0.89712142  0.93373495  1
  Te  Te126  1  0.22836257  0.24908269  0.07194036  1
  Te  Te127  1  0.23617790  0.26602847  0.40043490  1
  Te  Te128  1  0.22964933  0.25405381  0.73042026  1
  Te  Te129  1  0.25659325  0.59504853  0.09389820  1
  Te  Te130  1  0.22563047  0.55258274  0.39426295  1
  Te  Te131  1  0.27909932  0.58557102  0.76479827  1
  Te  Te132  1  0.26530037  0.92666397  0.10175923  1
  Te  Te133  1  0.26077747  0.93600488  0.42232090  1
  Te  Te134  1  0.26056991  0.91996680  0.74773943  1
  Te  Te135  1  0.56707363  0.22975447  0.06138589  1
  Te  Te136  1  0.63298602  0.25254936  0.44609262  1
  Te  Te137  1  0.60456838  0.23998300  0.78469676  1
  Te  Te138  1  0.58052357  0.55932077  0.05870493  1
  Te  Te139  1  0.58747687  0.60402361  0.42236314  1
  Te  Te140  1  0.57743690  0.57014336  0.76398867  1
  Te  Te141  1  0.60649633  0.94968088  0.07818591  1
  Te  Te142  1  0.59426995  0.91155780  0.42930015  1
  Te  Te143  1  0.59110784  0.93816638  0.78305541  1
  Te  Te144  1  0.87636714  0.25044607  0.08227166  1
  Te  Te145  1  0.87428739  0.26005286  0.38701690  1
  Te  Te146  1  0.91139164  0.25976446  0.71844676  1
  Te  Te147  1  0.91360220  0.57450511  0.08339794  1
  Te  Te148  1  0.92011142  0.59637879  0.39883281  1
  Te  Te149  1  0.89317738  0.64302711  0.72497933  1
  Te  Te150  1  0.90346292  0.93365378  0.12769099  1
  Te  Te151  1  0.93283969  0.94860758  0.40275286  1
  Te  Te152  1  0.91677390  0.89646043  0.75988753  1
  Te  Te153  1  0.24476748  0.10302322  0.24224579  1
  Te  Te154  1  0.23584182  0.09445899  0.58342168  1
  Te  Te155  1  0.23637198  0.08807494  0.92985309  1
  Te  Te156  1  0.28467255  0.43108025  0.22240535  1
  Te  Te157  1  0.22621302  0.41218356  0.57087030  1
  Te  Te158  1  0.26328929  0.41559475  0.90389727  1
  Te  Te159  1  0.25329312  0.73749804  0.26201333  1
  Te  Te160  1  0.25778403  0.72722603  0.59066450  1
  Te  Te161  1  0.24008769  0.75009987  0.91490238  1
  Te  Te162  1  0.57946726  0.10278075  0.26205051  1
  Te  Te163  1  0.59749837  0.06712978  0.60314368  1
  Te  Te164  1  0.61788564  0.05205948  0.87500290  1
  Te  Te165  1  0.60115393  0.41022520  0.24211692  1
  Te  Te166  1  0.57060218  0.40761573  0.62338010  1
  Te  Te167  1  0.56683568  0.42692411  0.94355856  1
  Te  Te168  1  0.58573886  0.75733640  0.26279934  1
  Te  Te169  1  0.58346434  0.75028992  0.60088091  1
  Te  Te170  1  0.56952137  0.74433526  0.90519386  1
  Te  Te171  1  0.94333885  0.06759056  0.29067462  1
  Te  Te172  1  0.92793036  0.08363188  0.58834599  1
  Te  Te173  1  0.91366252  0.06882904  0.93032216  1
  Te  Te174  1  0.91338305  0.41597777  0.22549234  1
  Te  Te175  1  0.92158896  0.43408111  0.56437399  1
  Te  Te176  1  0.91782996  0.41918542  0.90767338  1
  Te  Te177  1  0.93918162  0.74280877  0.26327327  1
  Te  Te178  1  0.93070003  0.76021718  0.60495999  1
  Te  Te179  1  0.91130918  0.74095510  0.93384950  1
