# generated using pymatgen
data_In2Te3
_symmetry_space_group_name_H-M   'P 1'
_cell_length_a   19.01008805
_cell_length_b   19.02137610
_cell_length_c   19.03240926
_cell_angle_alpha   89.96367336
_cell_angle_beta   89.99283430
_cell_angle_gamma   89.97788302
_symmetry_Int_Tables_number   1
_chemical_formula_structural   In2Te3
_chemical_formula_sum   'In72 Te108'
_cell_volume   6882.07982816
_cell_formula_units_Z   36
loop_
 _symmetry_equiv_pos_site_id
 _symmetry_equiv_pos_as_xyz
  1  'x, y, z'
loop_
 _atom_site_type_symbol
 _atom_site_label
 _atom_site_symmetry_multiplicity
 _atom_site_fract_x
 _atom_site_fract_y
 _atom_site_fract_z
 _atom_site_occupancy
  In  In0  1  0.33712223  0.34519650  0.01785763  1
  In  In1  1  0.68471681  0.84621775  0.18873374  1
  In  In2  1  0.16518627  0.32606247  0.16234892  1
  In  In3  1  0.48804089  0.64517170  0.82004585  1
  In  In4  1  0.47775513  0.27994841  0.18663826  1
  In  In5  1  0.68926980  0.85383308  0.49382859  1
  In  In6  1  0.18772129  0.47655905  0.35111287  1
  In  In7  1  0.34055975  0.34580417  0.66951701  1
  In  In8  1  0.02318497  0.31026406  0.00698382  1
  In  In9  1  0.67389865  0.28389857  0.34299897  1
  In  In10  1  0.82217623  0.51566265  0.65991299  1
  In  In11  1  0.51208233  0.49869778  -0.00771434  1
  In  In12  1  0.15585738  0.50932807  0.65706005  1
  In  In13  1  0.32093300  0.17399006  0.48699185  1
  In  In14  1  0.50067267  0.66245399  0.18669922  1
  In  In15  1  -0.00625605  0.68675846  0.32214095  1
  In  In16  1  0.84483448  0.14517586  0.33575890  1
  In  In17  1  0.50913438  0.16095415  0.01104258  1
  In  In18  1  0.01723912  0.51347773  0.48616217  1
  In  In19  1  0.15887641  0.01570800  0.51756195  1
  In  In20  1  -0.03698997  0.82312109  0.50687077  1
  In  In21  1  -0.01599798  0.16157295  0.50801381  1
  In  In22  1  0.34483708  -0.02653496  0.69145801  1
  In  In23  1  0.17638444  0.49613705  -0.01370291  1
  In  In24  1  0.48537332  0.03529612  0.18107476  1
  In  In25  1  0.49708135  0.15798180  0.68620120  1
  In  In26  1  0.83436557  0.32257862  0.50770557  1
  In  In27  1  0.00295268  0.15950375  0.85580419  1
  In  In28  1  0.14967583  0.86685099  0.00296801  1
  In  In29  1  0.47475646  0.69716081  0.47683937  1
  In  In30  1  0.83975159  0.00440316  0.83654732  1
  In  In31  1  0.67617262  0.68170457  -0.00859712  1
  In  In32  1  0.16831119  0.70173883  0.17996678  1
  In  In33  1  0.49085602  0.33317205  0.83016266  1
  In  In34  1  0.03562153  0.12975435  0.14434509  1
  In  In35  1  0.66506226  0.51390617  0.52315444  1
  In  In36  1  0.13935014  0.87301792  0.30753527  1
  In  In37  1  0.49785399  0.81341907  0.66072229  1
  In  In38  1  0.69384226  0.48073575  0.16471761  1
  In  In39  1  0.48925864  0.48267135  0.32173272  1
  In  In40  1  0.82950104  0.67930398  0.80611977  1
  In  In41  1  0.82805528  0.49577912  0.33890254  1
  In  In42  1  0.85446568  0.86675825  0.02689515  1
  In  In43  1  0.67984572  -0.02018124  0.66718658  1
  In  In44  1  0.33458822  0.83375423  0.17015065  1
  In  In45  1  -0.01363706  0.52172148  0.18292198  1
  In  In46  1  -0.01168543  0.46953340  0.81417809  1
  In  In47  1  0.66849529  0.80736982  0.81417496  1
  In  In48  1  0.49644053  -0.01062916  0.51180259  1
  In  In49  1  0.31781622  0.00219460  0.31487647  1
  In  In50  1  0.17105121  0.68808026  0.82592127  1
  In  In51  1  0.84628688  0.86684373  0.31609003  1
  In  In52  1  0.15876978  0.15626898  0.32797979  1
  In  In53  1  0.52679258  0.33357855  0.49578015  1
  In  In54  1  0.17853100  0.82930925  0.64903590  1
  In  In55  1  0.47629416  0.84885754  0.01605459  1
  In  In56  1  -0.00744197  0.02457396  0.68125900  1
  In  In57  1  0.31885272  0.67372142  0.66338925  1
  In  In58  1  0.69362874  0.14977119  0.16695655  1
  In  In59  1  0.31758489  0.50078994  0.14377020  1
  In  In60  1  0.16044763  0.16844533  0.68297634  1
  In  In61  1  0.01271822  0.67819653  -0.01018425  1
  In  In62  1  0.64894559  0.49128627  0.81352057  1
  In  In63  1  0.01594590  0.84250962  0.83601435  1
  In  In64  1  -0.00329958  0.31183018  0.67086854  1
  In  In65  1  0.67516848  0.33752997  0.66487151  1
  In  In66  1  0.71157632  0.27698533  -0.02650120  1
  In  In67  1  0.84878258  0.49274716  -0.01149014  1
  In  In68  1  0.48474738  -0.00443710  0.86391089  1
  In  In69  1  0.35026518  0.50025130  0.50779596  1
  In  In70  1  0.67585381  0.00040906  0.00109203  1
  In  In71  1  0.67787976  0.65847924  0.35199221  1
  Te  Te72  1  0.11312427  0.10538327  0.01667801  1
  Te  Te73  1  0.06566251  0.07379696  0.41515649  1
  Te  Te74  1  0.10023725  0.06751743  0.77718831  1
  Te  Te75  1  0.07969310  0.43524050  0.08808931  1
  Te  Te76  1  0.06392728  0.41331891  0.39328917  1
  Te  Te77  1  0.09802700  0.39461839  0.74634146  1
  Te  Te78  1  0.06508892  0.77002645  0.09573720  1
  Te  Te79  1  0.07563033  0.77999282  0.40742683  1
  Te  Te80  1  0.07190084  0.74844543  0.73296892  1
  Te  Te81  1  0.40789970  0.07034718  0.06401576  1
  Te  Te82  1  0.40591164  0.07083283  0.41783287  1
  Te  Te83  1  0.39972610  0.08728888  0.77716019  1
  Te  Te84  1  0.44627040  0.41653765  0.10598821  1
  Te  Te85  1  0.41285626  0.39377580  0.41571153  1
  Te  Te86  1  0.42723266  0.43465560  0.74806288  1
  Te  Te87  1  0.41070713  0.73084656  0.08678881  1
  Te  Te88  1  0.39772249  0.74502411  0.36441202  1
  Te  Te89  1  0.40215007  0.75491405  0.76223441  1
  Te  Te90  1  0.77955478  0.08279361  0.06576708  1
  Te  Te91  1  0.72337123  0.15778798  0.42113706  1
  Te  Te92  1  0.74229995  0.08128332  0.75632886  1
  Te  Te93  1  0.76685116  0.39343149  0.06717605  1
  Te  Te94  1  0.73487092  0.41348207  0.43306655  1
  Te  Te95  1  0.76658884  0.41404192  0.75758046  1
  Te  Te96  1  0.76031963  0.76174867  0.08751998  1
  Te  Te97  1  0.77061859  0.76235500  0.40400776  1
  Te  Te98  1  0.76548779  0.77110798  0.70604727  1
  Te  Te99  1  0.06767062  0.24441504  0.24293400  1
  Te  Te100  1  0.09146683  0.24642794  0.57314180  1
  Te  Te101  1  0.11544708  0.23898890  0.91513189  1
  Te  Te102  1  0.09989561  0.58834922  0.25892948  1
  Te  Te103  1  0.09402628  0.60586380  0.56721843  1
  Te  Te104  1  0.06897224  0.56829591  0.90233814  1
  Te  Te105  1  0.05674803  0.95677193  0.21750282  1
  Te  Te106  1  0.06396844  0.92212259  0.58877348  1
  Te  Te107  1  0.03490506  0.94143689  0.94244965  1
  Te  Te108  1  0.37899579  0.19510388  0.24814323  1
  Te  Te109  1  0.42666461  0.24471174  0.58293542  1
  Te  Te110  1  0.41600953  0.24794042  0.92826459  1
  Te  Te111  1  0.39425010  0.57717993  0.25191646  1
  Te  Te112  1  0.42873778  0.60270529  0.58645603  1
  Te  Te113  1  0.41219825  0.58032549  0.92617320  1
  Te  Te114  1  0.42914778  0.91592601  0.25527760  1
  Te  Te115  1  0.39996104  0.89234236  0.57625712  1
  Te  Te116  1  0.38149445  0.91203332  0.92537749  1
  Te  Te117  1  0.78027165  0.24823334  0.24116075  1
  Te  Te118  1  0.73388369  0.23706372  0.57421980  1
  Te  Te119  1  0.78455453  0.20874219  0.86636334  1
  Te  Te120  1  0.75994233  0.59269969  0.24199271  1
  Te  Te121  1  0.76697677  0.61303422  0.56349302  1
  Te  Te122  1  0.75082494  0.58251815  0.90356523  1
  Te  Te123  1  0.73823111  0.95816909  0.26708149  1
  Te  Te124  1  0.77525506  0.95705387  0.55675459  1
  Te  Te125  1  0.74558213  0.89637839  0.91019241  1
  Te  Te126  1  0.24320464  0.24482140  0.06959229  1
  Te  Te127  1  0.22650662  0.25505461  0.41319926  1
  Te  Te128  1  0.26305160  0.24883573  0.74766579  1
  Te  Te129  1  0.23073036  0.60465892  0.07692199  1
  Te  Te130  1  0.25371808  0.57847064  0.43041286  1
  Te  Te131  1  0.24759415  0.57824449  0.75693497  1
  Te  Te132  1  0.23536552  0.93037661  0.11675389  1
  Te  Te133  1  0.23145425  0.92907657  0.41512333  1
  Te  Te134  1  0.23482019  0.90668046  0.75874944  1
  Te  Te135  1  0.59820191  0.24899262  0.09604316  1
  Te  Te136  1  0.55842762  0.21866371  0.41054025  1
  Te  Te137  1  0.59345967  0.24905637  0.75843328  1
  Te  Te138  1  0.60182141  0.58828317  0.08718715  1
  Te  Te139  1  0.56672064  0.57336554  0.41705035  1
  Te  Te140  1  0.60220593  0.60681138  0.73850403  1
  Te  Te141  1  0.58664576  0.91892599  0.09297041  1
  Te  Te142  1  0.57823694  0.91271799  0.41905108  1
  Te  Te143  1  0.56701314  0.91365253  0.75901373  1
  Te  Te144  1  0.93780116  0.22553657  0.08837789  1
  Te  Te145  1  0.92374083  0.25639534  0.40689974  1
  Te  Te146  1  0.91124300  0.23256509  0.76157214  1
  Te  Te147  1  0.91197020  0.59762090  0.07524576  1
  Te  Te148  1  0.91395121  0.59591154  0.41302643  1
  Te  Te149  1  0.93008734  0.58692965  0.73904694  1
  Te  Te150  1  0.92624313  0.94466902  0.13133210  1
  Te  Te151  1  0.91246813  0.93531659  0.42824883  1
  Te  Te152  1  0.91432698  0.91093322  0.74554626  1
  Te  Te153  1  0.25413364  0.10335221  0.22472426  1
  Te  Te154  1  0.26911902  0.07919382  0.59975673  1
  Te  Te155  1  0.21802428  0.00229275  0.97952963  1
  Te  Te156  1  0.26653872  0.40083393  0.24591374  1
  Te  Te157  1  0.24369929  0.41566408  0.57638550  1
  Te  Te158  1  0.27514752  0.42263387  0.91002457  1
  Te  Te159  1  0.26318210  0.75600113  0.28600456  1
  Te  Te160  1  0.25370182  0.74675189  0.55519847  1
  Te  Te161  1  0.22905713  0.75741232  0.93788883  1
  Te  Te162  1  0.60418890  0.07412733  0.25687539  1
  Te  Te163  1  0.58546707  0.07814014  0.59456591  1
  Te  Te164  1  0.59519258  0.08852757  0.90932568  1
  Te  Te165  1  0.60951892  0.40934488  0.26709723  1
  Te  Te166  1  0.57023030  0.42889117  0.60478812  1
  Te  Te167  1  0.60282990  0.39775968  0.92501534  1
  Te  Te168  1  0.59203005  0.75064234  0.26621644  1
  Te  Te169  1  0.58955849  0.75305821  0.55955932  1
  Te  Te170  1  0.56631307  0.75881860  0.92218677  1
  Te  Te171  1  0.92849731  0.06408177  0.23863203  1
  Te  Te172  1  0.89190204  0.09124872  0.59699921  1
  Te  Te173  1  0.89606543  0.09476148  0.94148906  1
  Te  Te174  1  0.90333162  0.41784598  0.24157532  1
  Te  Te175  1  0.92036518  0.41842094  0.58704986  1
  Te  Te176  1  0.92134885  0.38236265  0.91560679  1
  Te  Te177  1  0.91679161  0.76941482  0.23000216  1
  Te  Te178  1  0.87699483  0.74273801  0.59363610  1
  Te  Te179  1  0.90448915  0.75603205  0.91523793  1
