# generated using pymatgen
data_In2Te3
_symmetry_space_group_name_H-M   'P 1'
_cell_length_a   18.94721203
_cell_length_b   18.94645336
_cell_length_c   18.93012508
_cell_angle_alpha   90.01704472
_cell_angle_beta   90.00527818
_cell_angle_gamma   89.97287383
_symmetry_Int_Tables_number   1
_chemical_formula_structural   In2Te3
_chemical_formula_sum   'In72 Te108'
_cell_volume   6795.58194798
_cell_formula_units_Z   36
loop_
 _symmetry_equiv_pos_site_id
 _symmetry_equiv_pos_as_xyz
  1  'x, y, z'
loop_
 _atom_site_type_symbol
 _atom_site_label
 _atom_site_symmetry_multiplicity
 _atom_site_fract_x
 _atom_site_fract_y
 _atom_site_fract_z
 _atom_site_occupancy
  In  In0  1  0.64514568  0.32207425  0.66807518  1
  In  In1  1  0.66963515  0.15273738  0.52054396  1
  In  In2  1  0.01222081  0.01662586  0.35020022  1
  In  In3  1  -0.00387086  0.16264893  0.17768479  1
  In  In4  1  0.48504763  0.81893939  0.00213134  1
  In  In5  1  0.32783779  0.51060977  0.17564553  1
  In  In6  1  0.81129200  0.80959463  0.33561677  1
  In  In7  1  0.80700063  0.48820480  0.65606085  1
  In  In8  1  0.15815867  0.35352192  0.86396579  1
  In  In9  1  0.49109089  0.51572229  -0.02888639  1
  In  In10  1  0.65202747  0.66912884  0.00025366  1
  In  In11  1  0.17115458  0.51243727  0.31870932  1
  In  In12  1  0.48858047  0.35003982  0.48336442  1
  In  In13  1  0.83279567  0.49645221  0.01429762  1
  In  In14  1  0.02982125  0.68479775  0.00507425  1
  In  In15  1  0.50379394  0.18198467  0.02628821  1
  In  In16  1  0.50910666  0.51158140  0.66172502  1
  In  In17  1  0.50369028  0.00163211  0.16109818  1
  In  In18  1  -0.00745849  0.33583686  0.66534693  1
  In  In19  1  0.18078856  0.15006491  0.66656305  1
  In  In20  1  0.03742398  0.67715456  0.66902803  1
  In  In21  1  0.49979747  0.34288361  0.85469089  1
  In  In22  1  0.33188821  -0.02116199  0.35111368  1
  In  In23  1  0.14337117  0.49041062  0.03344274  1
  In  In24  1  0.00609061  0.66315988  0.32334469  1
  In  In25  1  0.83629703  0.34726560  0.82417767  1
  In  In26  1  0.14784974  0.19012392  0.01055708  1
  In  In27  1  0.33447286  0.14819242  0.83188706  1
  In  In28  1  0.32721392  0.31888353  0.64962355  1
  In  In29  1  0.33528452  0.66911903  0.33863046  1
  In  In30  1  0.33256274  0.53900655  0.78349581  1
  In  In31  1  0.19553819  0.82063864  -0.02280985  1
  In  In32  1  0.33993626  0.16560646  0.48680794  1
  In  In33  1  0.82149621  0.01364840  0.50551440  1
  In  In34  1  0.64938878  0.65813898  0.33438761  1
  In  In35  1  0.81797504  0.17427571  0.37013850  1
  In  In36  1  0.83818577  0.15048646  0.66725216  1
  In  In37  1  0.17845913  0.01400650  0.16571106  1
  In  In38  1  0.36235146  0.01304236  -0.00043650  1
  In  In39  1  -0.01493164  0.33621406  0.32049304  1
  In  In40  1  0.65690088  0.18019033  0.86195020  1
  In  In41  1  0.83781502  0.67495619  0.17763726  1
  In  In42  1  0.01654586  -0.01152923  0.68050216  1
  In  In43  1  0.81592833  0.65340826  0.82545378  1
  In  In44  1  0.64526148  0.66590365  0.66163440  1
  In  In45  1  0.17884239  -0.02825687  0.82702511  1
  In  In46  1  0.85318033  0.13760159  -0.01019215  1
  In  In47  1  0.85307154  0.85496637  0.65085159  1
  In  In48  1  0.35278273  0.82079117  0.17454938  1
  In  In49  1  0.30220650  0.34979462  0.01068752  1
  In  In50  1  0.01527964  0.51652148  0.83326575  1
  In  In51  1  0.14671991  0.34521934  0.49469155  1
  In  In52  1  0.85077093  0.34383782  0.48031185  1
  In  In53  1  0.84653220  0.86784428  -0.01460001  1
  In  In54  1  0.64932983  0.80457941  0.16354346  1
  In  In55  1  0.67836150  -0.01888028  0.65835726  1
  In  In56  1  0.16030720  0.16290257  0.35883122  1
  In  In57  1  0.84129938  0.50809277  0.31104865  1
  In  In58  1  0.00493944  0.85070025  0.50638958  1
  In  In59  1  0.50099336  0.32898485  0.17566359  1
  In  In60  1  0.17691804  0.83566154  0.34361863  1
  In  In61  1  0.66046542  0.34232348  0.31568534  1
  In  In62  1  0.28424758  0.78291680  0.76504426  1
  In  In63  1  0.84040590  0.34230778  0.17212979  1
  In  In64  1  0.82092999  -0.00881243  0.15611214  1
  In  In65  1  0.68550317  0.83594738  0.85578761  1
  In  In66  1  0.51065362  0.15520101  0.32449471  1
  In  In67  1  0.49261657  0.00336237  0.81163368  1
  In  In68  1  0.49782910  0.67969841  0.48852447  1
  In  In69  1  -0.02067973  0.84933275  0.82669268  1
  In  In70  1  0.33297898  0.49888079  0.47678268  1
  In  In71  1  0.50967100  -0.07167416  0.52987920  1
  Te  Te72  1  0.07102832  0.07590610  0.07816546  1
  Te  Te73  1  0.11535250  0.05455615  0.44914685  1
  Te  Te74  1  0.09146305  0.08402445  0.77087691  1
  Te  Te75  1  0.05543639  0.40299151  0.10544420  1
  Te  Te76  1  0.06493500  0.43347157  0.40549575  1
  Te  Te77  1  0.09132278  0.41983838  0.74384100  1
  Te  Te78  1  0.10615457  0.77958524  0.08560567  1
  Te  Te79  1  0.08382251  0.74947420  0.42640069  1
  Te  Te80  1  0.09325903  0.77605643  0.76253784  1
  Te  Te81  1  0.40310111  0.10560795  0.11112948  1
  Te  Te82  1  0.43659697  0.06500326  0.42308121  1
  Te  Te83  1  0.40028100  0.07732221  0.72272928  1
  Te  Te84  1  0.41925989  0.42075021  0.07382611  1
  Te  Te85  1  0.40011265  0.40788296  0.38183336  1
  Te  Te86  1  0.41660919  0.40897202  0.73806064  1
  Te  Te87  1  0.43138475  0.72011956  0.09846653  1
  Te  Te88  1  0.39446795  0.77130896  0.43029575  1
  Te  Te89  1  0.41331603  0.74137982  0.69643329  1
  Te  Te90  1  0.74241430  0.07872889  0.06816571  1
  Te  Te91  1  0.71517156  0.06211332  0.40452658  1
  Te  Te92  1  0.72170177  0.09883611  0.74635380  1
  Te  Te93  1  0.74111316  0.42883729  0.10764246  1
  Te  Te94  1  0.75127774  0.42751452  0.40538539  1
  Te  Te95  1  0.71940228  0.41886154  0.75903562  1
  Te  Te96  1  0.76226089  0.75581209  0.06520454  1
  Te  Te97  1  0.76067151  0.70349267  0.42230463  1
  Te  Te98  1  0.76108260  0.76550981  0.73910431  1
  Te  Te99  1  0.09207724  0.25014616  0.25431092  1
  Te  Te100  1  0.08604072  0.24260536  0.58906759  1
  Te  Te101  1  0.06055687  0.25871560  0.91648483  1
  Te  Te102  1  0.09576114  0.59928004  0.22655382  1
  Te  Te103  1  0.10864148  0.57259015  0.59793815  1
  Te  Te104  1  0.11367347  0.59425697  0.91676135  1
  Te  Te105  1  0.09157152  0.92808015  0.25617584  1
  Te  Te106  1  0.09972599  0.88653949  0.61479380  1
  Te  Te107  1  0.08213245  0.90925823  0.92420250  1
  Te  Te108  1  0.41579721  0.24811478  0.26477834  1
  Te  Te109  1  0.43570235  0.24273884  0.57736362  1
  Te  Te110  1  0.39835175  0.24827811  0.92817245  1
  Te  Te111  1  0.42402289  0.57394837  0.26966520  1
  Te  Te112  1  0.40963898  0.58507192  0.57599017  1
  Te  Te113  1  0.40663150  0.61051954  0.89024770  1
  Te  Te114  1  0.43682516  0.91018596  0.26297051  1
  Te  Te115  1  0.41221216  0.88430164  0.63071371  1
  Te  Te116  1  0.41160505  0.90975998  0.90253907  1
  Te  Te117  1  0.75487153  0.24250241  0.25049513  1
  Te  Te118  1  0.76657921  0.26348197  0.58611783  1
  Te  Te119  1  0.76888575  0.25683606  0.92599596  1
  Te  Te120  1  0.73487367  0.57924508  0.22884630  1
  Te  Te121  1  0.73899436  0.58980769  0.57613854  1
  Te  Te122  1  0.73579954  0.56969952  0.92072103  1
  Te  Te123  1  0.73363343  0.90264210  0.24505595  1
  Te  Te124  1  0.73978897  0.88981916  0.54780541  1
  Te  Te125  1  0.73799717  0.95171677  0.93138332  1
  Te  Te126  1  0.24151456  0.25337286  0.10206151  1
  Te  Te127  1  0.25246482  0.26822170  0.41662742  1
  Te  Te128  1  0.24402228  0.25826801  0.76286091  1
  Te  Te129  1  0.24249110  0.58594108  0.08148570  1
  Te  Te130  1  0.23249608  0.60058538  0.42817034  1
  Te  Te131  1  0.21122043  0.59279919  0.71012836  1
  Te  Te132  1  0.27362869  0.91986814  0.08764823  1
  Te  Te133  1  0.27245278  0.88247733  0.44809112  1
  Te  Te134  1  0.28060591  0.92830734  0.72708583  1
  Te  Te135  1  0.60185002  0.27521422  0.08084938  1
  Te  Te136  1  0.59871559  0.25012611  0.42733571  1
  Te  Te137  1  0.55863739  0.23855604  0.75976783  1
  Te  Te138  1  0.55044332  0.59931011  0.08141752  1
  Te  Te139  1  0.55684616  0.56991568  0.40883002  1
  Te  Te140  1  0.58554792  0.58144923  0.76501280  1
  Te  Te141  1  0.58445779  0.90824710  0.07218365  1
  Te  Te142  1  0.62177953  0.92008138  0.43837931  1
  Te  Te143  1  0.59104292  0.90287287  0.75446248  1
  Te  Te144  1  0.91647094  0.24792603  0.08182367  1
  Te  Te145  1  0.94306920  0.23508705  0.42889318  1
  Te  Te146  1  0.92125733  0.23893628  0.75808820  1
  Te  Te147  1  0.92356817  0.60036327  0.07750858  1
  Te  Te148  1  0.91522131  0.58565956  0.41028804  1
  Te  Te149  1  0.91267667  0.57531416  0.73771808  1
  Te  Te150  1  0.93097113  0.91865949  0.09225821  1
  Te  Te151  1  0.90534057  0.91943400  0.41041879  1
  Te  Te152  1  0.88432389  0.95586767  0.76580227  1
  Te  Te153  1  0.25956202  0.08585666  0.27128046  1
  Te  Te154  1  0.24955775  0.07305831  0.56073293  1
  Te  Te155  1  0.24222383  0.07604464  0.92992610  1
  Te  Te156  1  0.24349607  0.41035468  0.24274689  1
  Te  Te157  1  0.24547180  0.42366818  0.57946743  1
  Te  Te158  1  0.27507433  0.44387933  0.89379845  1
  Te  Te159  1  0.24222286  0.74376242  0.24230949  1
  Te  Te160  1  0.27446029  0.71433620  0.62996876  1
  Te  Te161  1  0.28878779  0.73137705  0.90623109  1
  Te  Te162  1  0.60019072  0.08630017  0.23140633  1
  Te  Te163  1  0.57155100  0.06320407  0.58816851  1
  Te  Te164  1  0.56024960  0.08235669  0.92625641  1
  Te  Te165  1  0.56281176  0.43491180  0.25892319  1
  Te  Te166  1  0.59126702  0.42368427  0.56902141  1
  Te  Te167  1  0.59220760  0.41041207  0.94439854  1
  Te  Te168  1  0.56352910  0.76118257  0.27290463  1
  Te  Te169  1  0.58060922  0.76831103  0.57582717  1
  Te  Te170  1  0.57114635  0.74606988  0.89752713  1
  Te  Te171  1  0.90052971  0.08522322  0.26843625  1
  Te  Te172  1  0.93656223  0.07514843  0.58061214  1
  Te  Te173  1  0.91036619  0.04734425  0.89132719  1
  Te  Te174  1  0.95363259  0.44534159  0.21432914  1
  Te  Te175  1  0.92581965  0.43632094  0.57357844  1
  Te  Te176  1  0.92717506  0.42521834  0.91762292  1
  Te  Te177  1  0.92893313  0.77263517  0.24699663  1
  Te  Te178  1  0.92605062  0.74293652  0.58279879  1
  Te  Te179  1  0.91421919  0.73559632  0.90769494  1
