# generated using pymatgen
data_In2Te3
_symmetry_space_group_name_H-M   'P 1'
_cell_length_a   18.77889000
_cell_length_b   18.78172121
_cell_length_c   18.78692428
_cell_angle_alpha   90.03134417
_cell_angle_beta   89.98267727
_cell_angle_gamma   89.88109521
_symmetry_Int_Tables_number   1
_chemical_formula_structural   In2Te3
_chemical_formula_sum   'In72 Te108'
_cell_volume   6626.13030709
_cell_formula_units_Z   36
loop_
 _symmetry_equiv_pos_site_id
 _symmetry_equiv_pos_as_xyz
  1  'x, y, z'
loop_
 _atom_site_type_symbol
 _atom_site_label
 _atom_site_symmetry_multiplicity
 _atom_site_fract_x
 _atom_site_fract_y
 _atom_site_fract_z
 _atom_site_occupancy
  In  In0  1  0.82042547  0.66641022  0.83253254  1
  In  In1  1  0.52512110  0.14078508  0.29840239  1
  In  In2  1  0.30974606  0.47918841  0.82524481  1
  In  In3  1  0.34405520  0.69924431  0.00433865  1
  In  In4  1  -0.00698021  0.83876074  0.83351202  1
  In  In5  1  0.00290817  0.48755095  0.50059931  1
  In  In6  1  0.35126249  0.12736761  0.85486448  1
  In  In7  1  0.79868436  -0.03201961  0.86259824  1
  In  In8  1  0.67569630  0.33305667  0.32411087  1
  In  In9  1  0.17532076  0.84101641  0.68221344  1
  In  In10  1  0.50113470  0.49541578  -0.00845760  1
  In  In11  1  0.81485395  0.84918178  0.28930829  1
  In  In12  1  0.50883188  0.67557897  0.84627083  1
  In  In13  1  0.33326351  0.49860081  0.18899673  1
  In  In14  1  0.66867094  0.50737556  0.84006077  1
  In  In15  1  0.82874786  0.17812104  0.31936273  1
  In  In16  1  0.50673525  0.30679613  0.16430637  1
  In  In17  1  0.82570488  0.14676633  0.01262174  1
  In  In18  1  0.83575945  0.17485245  0.65594226  1
  In  In19  1  0.67701547  0.17239213  0.47847451  1
  In  In20  1  0.17192846  0.15332403  0.67020633  1
  In  In21  1  0.16279674  0.67472461  0.16694367  1
  In  In22  1  0.83892002  0.01300656  0.49304284  1
  In  In23  1  0.50289307  0.83304588  0.67167955  1
  In  In24  1  0.49678154  0.52250314  0.34066580  1
  In  In25  1  0.50087510  0.11887990  0.02576458  1
  In  In26  1  0.82550863  0.33271185  0.16010743  1
  In  In27  1  -0.02196522  0.69338542  0.30391250  1
  In  In28  1  0.33211273  -0.00849053  0.31857885  1
  In  In29  1  0.48840033  0.31099787  0.84132272  1
  In  In30  1  0.82815558  0.35284120  0.83572315  1
  In  In31  1  0.63443264  0.50497473  0.50175441  1
  In  In32  1  0.67867453  0.69528175  0.00984153  1
  In  In33  1  0.32232764  0.16014072  0.51489167  1
  In  In34  1  0.18265271  0.50473810  0.29896407  1
  In  In35  1  0.15943932  0.15311041  0.32334958  1
  In  In36  1  -0.01508250  0.65950048  0.01360807  1
  In  In37  1  0.51724866  0.80916385  0.32220487  1
  In  In38  1  0.36456167  0.65048522  0.64833485  1
  In  In39  1  0.15412153  0.48874321  0.00387797  1
  In  In40  1  0.67695933  0.51081716  0.15032249  1
  In  In41  1  0.16695372  0.85637740  0.33854309  1
  In  In42  1  0.18350589  0.70582025  0.85346059  1
  In  In43  1  0.01371326  0.84238826  0.51031405  1
  In  In44  1  0.18440714  0.18124907  0.03027767  1
  In  In45  1  0.36019734  0.32921224  0.31258332  1
  In  In46  1  0.81274379  0.52959635  0.30621573  1
  In  In47  1  -0.00857660  0.82748539  0.17563923  1
  In  In48  1  0.00855580  -0.00332202  0.33135418  1
  In  In49  1  0.68056495  0.68382857  0.65911928  1
  In  In50  1  0.34429529  0.67998729  0.34207316  1
  In  In51  1  0.81300313  -0.00882263  0.16802776  1
  In  In52  1  0.65268234  -0.01149115  0.67682711  1
  In  In53  1  0.85083354  0.33154705  0.49642746  1
  In  In54  1  0.83242920  0.82168273  0.68980619  1
  In  In55  1  0.35823313  0.86187185  0.14778644  1
  In  In56  1  0.48942863  0.16000035  0.68983944  1
  In  In57  1  0.64964292  0.83389208  0.49841130  1
  In  In58  1  -0.02098608  0.50578588  0.82767604  1
  In  In59  1  0.16312020  0.00375203  0.82274217  1
  In  In60  1  0.01587920  0.01948530  0.00790632  1
  In  In61  1  -0.00609281  0.31804770  0.33241464  1
  In  In62  1  0.00423139  0.31515520  0.66467403  1
  In  In63  1  0.48999897  -0.00923197  0.50161757  1
  In  In64  1  0.00666543  0.31951088  -0.00641026  1
  In  In65  1  0.82269741  0.67379181  0.49620503  1
  In  In66  1  0.16826292  0.31852829  0.86079348  1
  In  In67  1  0.17986139  0.65468394  0.50094546  1
  In  In68  1  0.65576067  0.16490574  0.84866344  1
  In  In69  1  0.18583797  0.33774206  0.51905105  1
  In  In70  1  0.34601141  0.33261964  0.67809256  1
  In  In71  1  0.16829047  0.50070175  0.65780682  1
  Te  Te72  1  0.08511022  0.10201354  0.10961652  1
  Te  Te73  1  0.10103405  0.06267752  0.42477859  1
  Te  Te74  1  0.06666684  0.09105681  0.75264017  1
  Te  Te75  1  0.07484894  0.40489892  0.09448121  1
  Te  Te76  1  0.09983390  0.41311576  0.40885077  1
  Te  Te77  1  0.09291492  0.41008915  0.75799807  1
  Te  Te78  1  0.08643012  0.76154694  0.06952863  1
  Te  Te79  1  0.09008597  0.73838030  0.40616545  1
  Te  Te80  1  0.07682283  0.74385200  0.74939212  1
  Te  Te81  1  0.38040019  0.04942592  0.09502979  1
  Te  Te82  1  0.41997837  0.09554371  0.41076141  1
  Te  Te83  1  0.41475828  0.04641832  0.74718973  1
  Te  Te84  1  0.42161472  0.41539114  0.09360878  1
  Te  Te85  1  0.42318435  0.41620687  0.41318185  1
  Te  Te86  1  0.43566029  0.42892135  0.75426217  1
  Te  Te87  1  0.44532931  0.75225846  0.09715791  1
  Te  Te88  1  0.42014319  0.77232810  0.42689508  1
  Te  Te89  1  0.40746927  0.74810987  0.75897374  1
  Te  Te90  1  0.71354133  0.07081969  0.08033595  1
  Te  Te91  1  0.74329862  0.06867061  0.38835149  1
  Te  Te92  1  0.74902357  0.08269178  0.75141509  1
  Te  Te93  1  0.74447542  0.41164902  0.06555997  1
  Te  Te94  1  0.75873822  0.42390844  0.41396633  1
  Te  Te95  1  0.74261507  0.42573488  0.74104353  1
  Te  Te96  1  0.76303386  0.79186305  0.08571581  1
  Te  Te97  1  0.74798345  0.76426303  0.40199260  1
  Te  Te98  1  0.72104759  0.77055851  0.77938633  1
  Te  Te99  1  0.07226500  0.23813784  0.23612359  1
  Te  Te100  1  0.08726371  0.23342297  0.56714534  1
  Te  Te101  1  0.07790419  0.21151073  0.91358671  1
  Te  Te102  1  0.06450568  0.58135148  0.23599516  1
  Te  Te103  1  0.06986752  0.59391134  0.58859859  1
  Te  Te104  1  0.08870318  0.59007648  0.90803040  1
  Te  Te105  1  0.09659199  0.92762134  0.22488022  1
  Te  Te106  1  0.09337164  0.93026693  0.59529824  1
  Te  Te107  1  0.08820762  0.91375095  0.92424028  1
  Te  Te108  1  0.40662880  0.21066472  0.22802672  1
  Te  Te109  1  0.42859289  0.24925187  0.58078537  1
  Te  Te110  1  0.41569493  0.23014226  0.94618989  1
  Te  Te111  1  0.42770596  0.60919379  0.23427826  1
  Te  Te112  1  0.44948358  0.56178170  0.56523598  1
  Te  Te113  1  0.39847963  0.57973973  0.91185562  1
  Te  Te114  1  0.45250345  0.92805892  0.24723652  1
  Te  Te115  1  0.40576559  0.91955724  0.59810557  1
  Te  Te116  1  0.44882839  0.96394673  0.97757698  1
  Te  Te117  1  0.72593451  0.23307102  0.22123315  1
  Te  Te118  1  0.73908881  0.26815515  0.57995712  1
  Te  Te119  1  0.75398924  0.25128829  0.92684813  1
  Te  Te120  1  0.69929365  0.61754862  0.25747394  1
  Te  Te121  1  0.75049954  0.57178050  0.58246435  1
  Te  Te122  1  0.75685396  0.58127222  0.94114140  1
  Te  Te123  1  0.69245282  0.91102079  0.22334523  1
  Te  Te124  1  0.75563915  0.90947633  0.58114466  1
  Te  Te125  1  0.72744976  0.90663026  0.98062958  1
  Te  Te126  1  0.25851297  0.28864159  0.09601472  1
  Te  Te127  1  0.25609135  0.25616240  0.40934838  1
  Te  Te128  1  0.26404368  0.23935685  0.76810017  1
  Te  Te129  1  0.25415005  0.58660991  0.08010105  1
  Te  Te130  1  0.26710354  0.56678782  0.41144007  1
  Te  Te131  1  0.24452395  0.59772789  0.75034684  1
  Te  Te132  1  0.26548087  0.94989360  0.07145334  1
  Te  Te133  1  0.26105201  0.92325192  0.42886731  1
  Te  Te134  1  0.26953560  0.91040728  0.77477273  1
  Te  Te135  1  0.58429204  0.23825323  0.05977417  1
  Te  Te136  1  0.57246472  0.25296849  0.40174080  1
  Te  Te137  1  0.59442580  0.25766257  0.74247779  1
  Te  Te138  1  0.57549052  0.59752144  0.07403447  1
  Te  Te139  1  0.59375773  0.61236253  0.40863747  1
  Te  Te140  1  0.58598584  0.59482607  0.74524849  1
  Te  Te141  1  0.57588272  0.91164551  0.03519893  1
  Te  Te142  1  0.58748146  0.93200468  0.40245193  1
  Te  Te143  1  0.57742633  0.91030375  0.77615303  1
  Te  Te144  1  0.92123806  0.23589928  0.09101262  1
  Te  Te145  1  0.92802019  0.21881087  0.42837670  1
  Te  Te146  1  0.91618144  0.24657601  0.76695583  1
  Te  Te147  1  0.90749074  0.59103354  0.11842906  1
  Te  Te148  1  0.92119535  0.58441319  0.41088438  1
  Te  Te149  1  0.90504884  0.59322073  0.73627921  1
  Te  Te150  1  0.91903850  0.92290329  0.07920858  1
  Te  Te151  1  0.91349584  0.89693100  0.40494339  1
  Te  Te152  1  0.91003199  0.93533926  0.75054736  1
  Te  Te153  1  0.25220340  0.08103574  0.23059142  1
  Te  Te154  1  0.26372427  0.05809025  0.60238453  1
  Te  Te155  1  0.24298742  0.06731131  0.94386057  1
  Te  Te156  1  0.23445034  0.37861617  0.22292604  1
  Te  Te157  1  0.28319377  0.43616831  0.58143542  1
  Te  Te158  1  0.26708946  0.39649917  0.94661493  1
  Te  Te159  1  0.25741194  0.76581560  0.24388378  1
  Te  Te160  1  0.26159097  0.74702208  0.58665248  1
  Te  Te161  1  0.27103295  0.80192470  0.92554332  1
  Te  Te162  1  0.60574578  0.07025533  0.19649573  1
  Te  Te163  1  0.59094265  0.09003467  0.57915210  1
  Te  Te164  1  0.56378663  0.05850715  0.89829677  1
  Te  Te165  1  0.58185537  0.42304481  0.24361358  1
  Te  Te166  1  0.53895296  0.43797676  0.59002472  1
  Te  Te167  1  0.59086302  0.39923514  0.91696689  1
  Te  Te168  1  0.62277655  0.75504146  0.23127203  1
  Te  Te169  1  0.56406157  0.73309352  0.57283250  1
  Te  Te170  1  0.56727076  0.77465678  0.94093394  1
  Te  Te171  1  0.91549156  0.07928916  0.24190733  1
  Te  Te172  1  0.92813539  0.08239043  0.58609675  1
  Te  Te173  1  0.90452005  0.06713405  0.90933376  1
  Te  Te174  1  0.90848001  0.41885412  0.25489783  1
  Te  Te175  1  0.91241760  0.42154562  0.60443381  1
  Te  Te176  1  0.91277425  0.43001849  0.94007901  1
  Te  Te177  1  0.86772682  0.72176426  0.19215143  1
  Te  Te178  1  0.91986886  0.74832603  0.58807927  1
  Te  Te179  1  0.90407669  0.75603498  0.92508390  1
