# generated using pymatgen
data_In2Te3
_symmetry_space_group_name_H-M   'P 1'
_cell_length_a   18.83225000
_cell_length_b   18.83243023
_cell_length_c   18.85546681
_cell_angle_alpha   90.03045136
_cell_angle_beta   90.14951241
_cell_angle_gamma   90.04767225
_symmetry_Int_Tables_number   1
_chemical_formula_structural   In2Te3
_chemical_formula_sum   'In72 Te108'
_cell_volume   6687.19790079
_cell_formula_units_Z   36
loop_
 _symmetry_equiv_pos_site_id
 _symmetry_equiv_pos_as_xyz
  1  'x, y, z'
loop_
 _atom_site_type_symbol
 _atom_site_label
 _atom_site_symmetry_multiplicity
 _atom_site_fract_x
 _atom_site_fract_y
 _atom_site_fract_z
 _atom_site_occupancy
  In  In0  1  0.52601780  0.48949570  -0.00953501  1
  In  In1  1  0.87024628  0.12929408  0.64796164  1
  In  In2  1  0.49686705  0.66242112  0.16536888  1
  In  In3  1  0.32316552  0.81982531  0.16793394  1
  In  In4  1  0.51745264  0.32535463  0.17222436  1
  In  In5  1  -0.00943631  0.52528962  0.84227479  1
  In  In6  1  0.49742842  0.69291300  0.53129702  1
  In  In7  1  0.28967796  -0.00431293  0.32748262  1
  In  In8  1  0.49633263  -0.01112033  0.15365861  1
  In  In9  1  0.67524716  0.48671894  0.17210614  1
  In  In10  1  0.86290804  0.17818490  0.30966209  1
  In  In11  1  0.15266039  0.32858013  0.15655665  1
  In  In12  1  0.01678840  0.71844203  0.69695500  1
  In  In13  1  0.68383939  0.82970326  0.12279932  1
  In  In14  1  0.69113572  0.33938403  0.30374402  1
  In  In15  1  0.47646605  0.31946320  0.49965100  1
  In  In16  1  0.67129063  -0.03348551  0.71195094  1
  In  In17  1  0.17440640  0.51540491  0.66713794  1
  In  In18  1  0.31436563  0.33738056  0.34289823  1
  In  In19  1  0.88275497  0.81386521  0.28732008  1
  In  In20  1  0.65846797  0.00516303  0.30146003  1
  In  In21  1  0.70762056  0.69423568  -0.00618688  1
  In  In22  1  -0.00195686  0.49521697  0.50008611  1
  In  In23  1  0.82472137  0.32338732  0.86636273  1
  In  In24  1  0.00579150  0.16407604  0.86311851  1
  In  In25  1  0.86262071  -0.03038491  0.83435129  1
  In  In26  1  0.29754767  0.84188562  0.50695907  1
  In  In27  1  0.15005526  0.51390585  0.01339683  1
  In  In28  1  0.00452139  0.30141192  0.31594260  1
  In  In29  1  0.66107469  0.81934181  0.52003787  1
  In  In30  1  0.14705262  -0.00549940  0.16925944  1
  In  In31  1  0.01408906  0.00007692  0.34000295  1
  In  In32  1  0.86087071  0.52135879  0.68117828  1
  In  In33  1  0.87362667  0.31206460  0.12817051  1
  In  In34  1  0.14906748  0.67149184  0.16739274  1
  In  In35  1  0.48043685  0.00004162  0.50770104  1
  In  In36  1  0.15494070  0.83434865  -0.00866407  1
  In  In37  1  0.16426454  0.31988281  0.50595020  1
  In  In38  1  0.00348816  0.34111312  0.68542678  1
  In  In39  1  0.51475515  0.85510956  -0.03598279  1
  In  In40  1  0.31128243  0.69911880  -0.01718636  1
  In  In41  1  0.82736604  0.65952033  0.51527766  1
  In  In42  1  0.15644906  -0.02640356  0.83170274  1
  In  In43  1  0.84662729  0.31727690  0.44758793  1
  In  In44  1  0.83672298  0.01492392  0.50040883  1
  In  In45  1  0.34495065  0.16331393  0.79934592  1
  In  In46  1  0.48469078  0.66889089  0.82481074  1
  In  In47  1  0.47863419  0.16223307  0.66358384  1
  In  In48  1  0.82431093  -0.00308272  0.12453388  1
  In  In49  1  0.67347384  0.15238297  0.85942055  1
  In  In50  1  0.50168979  0.52713579  0.66554829  1
  In  In51  1  0.66927649  0.51740128  0.53332008  1
  In  In52  1  0.29078827  0.65818679  0.32045557  1
  In  In53  1  0.66414617  0.65339471  0.33534258  1
  In  In54  1  0.65990450  0.16410766  0.50238611  1
  In  In55  1  0.84004530  0.51668668  0.32285488  1
  In  In56  1  0.35490840  0.00334514  -0.02231537  1
  In  In57  1  0.50103031  0.82092217  0.35581348  1
  In  In58  1  0.51462744  0.32525124  0.85341462  1
  In  In59  1  0.49615400  0.15690362  0.32350477  1
  In  In60  1  0.69249720  0.33111691  0.67279299  1
  In  In61  1  0.34269281  0.34177879  0.65947438  1
  In  In62  1  0.32803804  -0.00827018  0.66115570  1
  In  In63  1  0.85243393  0.53771526  0.02115356  1
  In  In64  1  0.16434012  0.15962802  0.01263820  1
  In  In65  1  0.01810249  0.84055381  0.50920383  1
  In  In66  1  0.34126080  0.48842591  0.17564314  1
  In  In67  1  0.17767409  0.13314991  0.66890770  1
  In  In68  1  0.31775061  0.51471404  0.83465312  1
  In  In69  1  0.16306881  0.67552046  0.50486172  1
  In  In70  1  0.50845579  0.16176303  -0.00496703  1
  In  In71  1  0.16315607  0.31974543  0.87234051  1
  Te  Te72  1  0.06364378  0.05789160  0.05873286  1
  Te  Te73  1  0.07980210  0.12678437  0.38636816  1
  Te  Te74  1  0.06741457  0.07536094  0.75771835  1
  Te  Te75  1  0.05988725  0.42937219  0.09537980  1
  Te  Te76  1  0.07493331  0.40214241  0.41053417  1
  Te  Te77  1  0.09624369  0.42621561  0.77411363  1
  Te  Te78  1  0.06943380  0.73175947  0.05595102  1
  Te  Te79  1  0.07128544  0.74414198  0.41281746  1
  Te  Te80  1  0.07673982  0.78554981  0.81469951  1
  Te  Te81  1  0.40482979  0.09241391  0.08997784  1
  Te  Te82  1  0.39846239  0.07851573  0.40854890  1
  Te  Te83  1  0.43593705  0.04925239  0.75785954  1
  Te  Te84  1  0.42879905  0.41042693  0.07878341  1
  Te  Te85  1  0.40606393  0.42217720  0.42368937  1
  Te  Te86  1  0.42179679  0.41796546  0.76512109  1
  Te  Te87  1  0.43586843  0.76984186  0.07484110  1
  Te  Te88  1  0.38473814  0.74595147  0.41611557  1
  Te  Te89  1  0.42552216  0.79088194  0.76537221  1
  Te  Te90  1  0.74327566  0.08488874  0.03730564  1
  Te  Te91  1  0.74819332  0.09639082  0.39412225  1
  Te  Te92  1  0.75630312  0.08992371  0.74635073  1
  Te  Te93  1  0.77144388  0.41945879  0.07911339  1
  Te  Te94  1  0.74516062  0.43678480  0.42467156  1
  Te  Te95  1  0.76965823  0.42654599  0.76072977  1
  Te  Te96  1  0.81198339  0.75324211  0.08846481  1
  Te  Te97  1  0.75021121  0.75037014  0.41621670  1
  Te  Te98  1  0.79837523  0.83565591  0.77767699  1
  Te  Te99  1  0.08890079  0.21356753  0.23191903  1
  Te  Te100  1  0.08098601  0.23871897  0.60435544  1
  Te  Te101  1  0.04798328  0.27332681  0.96365520  1
  Te  Te102  1  0.05873742  0.57338411  0.23577012  1
  Te  Te103  1  0.05404688  0.58821142  0.60807786  1
  Te  Te104  1  0.09684071  0.60464771  0.90948410  1
  Te  Te105  1  0.05576555  0.90040607  0.23698382  1
  Te  Te106  1  0.07837394  0.93197613  0.60857721  1
  Te  Te107  1  0.06173564  0.94377169  0.94453778  1
  Te  Te108  1  0.40684944  0.25428292  0.24880371  1
  Te  Te109  1  0.37811416  0.22470491  0.56750367  1
  Te  Te110  1  0.40146417  0.24459958  0.91382586  1
  Te  Te111  1  0.41879993  0.58493578  0.26743012  1
  Te  Te112  1  0.39958021  0.60229512  0.59347021  1
  Te  Te113  1  0.41408477  0.58681306  0.94144807  1
  Te  Te114  1  0.41595840  0.91449140  0.26006098  1
  Te  Te115  1  0.42071253  0.88834071  0.58700647  1
  Te  Te116  1  0.38831021  0.88828113  0.88736752  1
  Te  Te117  1  0.76039950  0.24150177  0.21376115  1
  Te  Te118  1  0.76978327  0.24081604  0.57536093  1
  Te  Te119  1  0.76298823  0.22115634  0.96047393  1
  Te  Te120  1  0.75905252  0.60322865  0.22750320  1
  Te  Te121  1  0.74275571  0.60754583  0.63159230  1
  Te  Te122  1  0.77183815  0.59199196  0.90998570  1
  Te  Te123  1  0.75552186  0.90479873  0.24379335  1
  Te  Te124  1  0.75168740  0.92139125  0.58865953  1
  Te  Te125  1  0.75190539  0.90159415  0.91594807  1
  Te  Te126  1  0.25303335  0.26135120  0.06986948  1
  Te  Te127  1  0.22566324  0.23324089  0.40273163  1
  Te  Te128  1  0.23610197  0.26555855  0.74662424  1
  Te  Te129  1  0.26837759  0.59878363  0.09428748  1
  Te  Te130  1  0.21912612  0.57299346  0.41545071  1
  Te  Te131  1  0.26110726  0.61159861  0.73984587  1
  Te  Te132  1  0.26097725  0.92245114  0.07321725  1
  Te  Te133  1  0.20589029  0.93003322  0.42947034  1
  Te  Te134  1  0.22387828  0.89993839  0.71971915  1
  Te  Te135  1  0.59105787  0.26975946  0.05660326  1
  Te  Te136  1  0.58944837  0.25644872  0.40288049  1
  Te  Te137  1  0.58617101  0.24181477  0.74245035  1
  Te  Te138  1  0.60161761  0.59362434  0.07829849  1
  Te  Te139  1  0.57308147  0.59287355  0.44056966  1
  Te  Te140  1  0.58198758  0.56637922  0.78090750  1
  Te  Te141  1  0.60311082  0.94183959  0.05622505  1
  Te  Te142  1  0.59558534  0.93077863  0.42041825  1
  Te  Te143  1  0.56425051  0.86593552  0.73718560  1
  Te  Te144  1  0.95356040  0.20472521  0.06695563  1
  Te  Te145  1  0.95200007  0.20217572  0.43795585  1
  Te  Te146  1  0.91018543  0.24685357  0.76151933  1
  Te  Te147  1  0.96157411  0.58768162  0.11188928  1
  Te  Te148  1  0.92705311  0.60066974  0.41602474  1
  Te  Te149  1  0.90981209  0.63435535  0.77333091  1
  Te  Te150  1  0.90199060  0.88403579  0.06728266  1
  Te  Te151  1  0.90308629  0.90962306  0.41003415  1
  Te  Te152  1  0.93439476  0.88966776  0.72645160  1
  Te  Te153  1  0.23353874  0.09562188  0.23471432  1
  Te  Te154  1  0.24403455  0.06054977  0.55883564  1
  Te  Te155  1  0.24583397  0.08701522  0.89772419  1
  Te  Te156  1  0.22774806  0.42623417  0.25203325  1
  Te  Te157  1  0.25399122  0.42841847  0.57125055  1
  Te  Te158  1  0.25180975  0.42494581  0.93929438  1
  Te  Te159  1  0.21444413  0.77753469  0.26267461  1
  Te  Te160  1  0.22163097  0.76389447  0.60981486  1
  Te  Te161  1  0.21967047  0.75705899  0.87694508  1
  Te  Te162  1  0.58599974  0.10358299  0.21282317  1
  Te  Te163  1  0.58940835  0.06929103  0.59754229  1
  Te  Te164  1  0.55815853  0.06571298  0.89231808  1
  Te  Te165  1  0.57376440  0.43224001  0.27015851  1
  Te  Te166  1  0.58006324  0.39981485  0.59062034  1
  Te  Te167  1  0.62206454  0.40023578  0.92176525  1
  Te  Te168  1  0.58897816  0.76285468  0.24397367  1
  Te  Te169  1  0.59643619  0.74381327  0.63208878  1
  Te  Te170  1  0.59968489  0.74692666  0.90044122  1
  Te  Te171  1  0.91592773  0.06008407  0.23482962  1
  Te  Te172  1  0.97083568  0.03580720  0.57600951  1
  Te  Te173  1  0.89978318  0.08234052  0.92830682  1
  Te  Te174  1  0.90712113  0.40183302  0.25094493  1
  Te  Te175  1  0.90576007  0.40448829  0.58130302  1
  Te  Te176  1  0.91803083  0.42635117  0.93031537  1
  Te  Te177  1  0.95464577  0.69665223  0.22974773  1
  Te  Te178  1  0.91208076  0.76179487  0.59002057  1
  Te  Te179  1  0.86936271  0.80731215  0.93359410  1
