# generated using pymatgen
data_In2Te3
_symmetry_space_group_name_H-M   'P 1'
_cell_length_a   19.07681625
_cell_length_b   19.09287995
_cell_length_c   19.07432402
_cell_angle_alpha   90.12937979
_cell_angle_beta   89.94051621
_cell_angle_gamma   89.93748524
_symmetry_Int_Tables_number   1
_chemical_formula_structural   In2Te3
_chemical_formula_sum   'In72 Te108'
_cell_volume   6947.44141758
_cell_formula_units_Z   36
loop_
 _symmetry_equiv_pos_site_id
 _symmetry_equiv_pos_as_xyz
  1  'x, y, z'
loop_
 _atom_site_type_symbol
 _atom_site_label
 _atom_site_symmetry_multiplicity
 _atom_site_fract_x
 _atom_site_fract_y
 _atom_site_fract_z
 _atom_site_occupancy
  In  In0  1  -0.00321962  0.34994331  0.33426924  1
  In  In1  1  -0.03380790  0.66960483  0.69839081  1
  In  In2  1  0.64776920  0.34468929  -0.00876811  1
  In  In3  1  0.02749670  0.67799393  0.30836903  1
  In  In4  1  0.68244259  -0.00737550  0.35016786  1
  In  In5  1  0.34922895  0.50449910  0.48479792  1
  In  In6  1  0.15849998  0.64823600  0.51501390  1
  In  In7  1  0.85971182  0.68805045  0.14976829  1
  In  In8  1  0.16948032  0.16663836  0.34217280  1
  In  In9  1  0.35885768  0.30647825  0.35184329  1
  In  In10  1  0.50179167  0.47455363  0.31569625  1
  In  In11  1  0.51202108  0.02393847  0.15203798  1
  In  In12  1  0.15210860  0.69885844  0.09500747  1
  In  In13  1  0.32436679  0.83979282  0.16307129  1
  In  In14  1  0.68953636  -0.02514098  -0.02989700  1
  In  In15  1  0.88125315  0.03301325  0.49188645  1
  In  In16  1  0.79290746  0.30499827  0.49819240  1
  In  In17  1  0.83692061  0.32660187  0.83156399  1
  In  In18  1  0.67496121  0.51365808  0.85458161  1
  In  In19  1  0.50318968  0.64485734  0.82922716  1
  In  In20  1  0.65531642  0.66259373  0.01837289  1
  In  In21  1  0.54224470  0.18893713  0.36594820  1
  In  In22  1  0.34283312  0.49205293  0.83748052  1
  In  In23  1  0.32378848  0.18348982  0.81801349  1
  In  In24  1  0.67298674  0.83928797  0.17841929  1
  In  In25  1  0.00217601  0.48790138  0.83777344  1
  In  In26  1  0.16774666  0.48405177  0.36537201  1
  In  In27  1  0.33359458  -0.00068852  0.02513276  1
  In  In28  1  0.33642100  -0.00041199  0.32471192  1
  In  In29  1  0.35335450  0.49880803  0.14939939  1
  In  In30  1  0.81952889  0.15897889  0.32195240  1
  In  In31  1  0.67192322  0.47891033  0.50572120  1
  In  In32  1  0.32594180  0.83735822  0.48793784  1
  In  In33  1  0.67308812  0.82677446  0.50156436  1
  In  In34  1  0.14851020  0.01575924  0.18854887  1
  In  In35  1  0.51124667  -0.00672690  0.49260461  1
  In  In36  1  -0.03063485  0.48247799  0.53512861  1
  In  In37  1  0.01350847  0.18691416  0.52041002  1
  In  In38  1  0.48284190  0.81380285  0.67154530  1
  In  In39  1  0.85234056  0.51898066  0.31184042  1
  In  In40  1  0.33687523  0.33870995  0.66604950  1
  In  In41  1  0.66421202  0.16556479  0.80533614  1
  In  In42  1  0.48512419  0.82206571  -0.01071930  1
  In  In43  1  0.81597977  0.75066392  0.87452495  1
  In  In44  1  0.01709940  -0.00331985  0.00098753  1
  In  In45  1  0.16626633  0.18792999  -0.00082855  1
  In  In46  1  0.18420759  0.34094408  0.17708521  1
  In  In47  1  0.00314389  0.84216479  0.81901711  1
  In  In48  1  0.34619716  0.34587348  -0.00865100  1
  In  In49  1  -0.00148402  0.16145344  0.82362727  1
  In  In50  1  0.50345138  0.17503909  0.67849370  1
  In  In51  1  0.16312399  0.02264914  0.81009731  1
  In  In52  1  0.65154741  0.48354903  0.15943882  1
  In  In53  1  0.84692221  0.15194267  -0.00506087  1
  In  In54  1  0.11643104  0.95557099  0.62853708  1
  In  In55  1  0.65356175  -0.01213658  0.68781357  1
  In  In56  1  0.86380728  0.85237062  0.65640416  1
  In  In57  1  0.80729707  0.46857544  0.67131052  1
  In  In58  1  0.31724297  0.64994327  -0.01338847  1
  In  In59  1  0.31134420  0.15000792  0.52301680  1
  In  In60  1  0.65217460  0.66620102  0.31617450  1
  In  In61  1  0.15082350  0.66410142  0.85276184  1
  In  In62  1  -0.01939742  0.31674464  0.00828940  1
  In  In63  1  0.48868206  0.00983809  0.84034241  1
  In  In64  1  0.49176657  0.67906440  0.49076878  1
  In  In65  1  0.15569757  0.84213951  0.31318360  1
  In  In66  1  0.84096537  0.66748883  0.49182992  1
  In  In67  1  -0.00232812  0.49755986  0.15473461  1
  In  In68  1  0.35167161  0.64662011  0.66246980  1
  In  In69  1  0.86759445  0.00482018  0.16012310  1
  In  In70  1  0.16141574  0.47004880  0.68844902  1
  In  In71  1  0.68053383  0.18866686  0.15722321  1
  Te  Te72  1  0.07622366  0.10538481  0.08659393  1
  Te  Te73  1  0.08167307  0.08825227  0.43123258  1
  Te  Te74  1  0.09280231  0.11611896  0.71384322  1
  Te  Te75  1  0.08661601  0.40037132  0.08015180  1
  Te  Te76  1  0.07337397  0.40585672  0.45286652  1
  Te  Te77  1  0.05109418  0.39164980  0.73872629  1
  Te  Te78  1  0.03268662  0.77285871  0.05945576  1
  Te  Te79  1  0.09602399  0.75066609  0.42143210  1
  Te  Te80  1  0.09010676  0.74449459  0.74030222  1
  Te  Te81  1  0.42667110  0.10226880  0.06510183  1
  Te  Te82  1  0.41706147  0.08650558  0.41915804  1
  Te  Te83  1  0.40184825  0.07990457  0.73949638  1
  Te  Te84  1  0.43589258  0.39187870  0.09812203  1
  Te  Te85  1  0.44451695  0.39965748  0.43389211  1
  Te  Te86  1  0.42658991  0.42627651  0.73877455  1
  Te  Te87  1  0.40045999  0.73928090  0.08041633  1
  Te  Te88  1  0.41601023  0.76335454  0.40091614  1
  Te  Te89  1  0.39758013  0.74015466  0.77132976  1
  Te  Te90  1  0.74607048  0.06750373  0.08573608  1
  Te  Te91  1  0.74871491  0.09282045  0.43731083  1
  Te  Te92  1  0.75743846  0.06781889  0.75225028  1
  Te  Te93  1  0.74551169  0.41639464  0.07224551  1
  Te  Te94  1  0.77996103  0.42990156  0.41336639  1
  Te  Te95  1  0.71917215  0.39489548  0.76692275  1
  Te  Te96  1  0.75363731  0.76675494  0.07522764  1
  Te  Te97  1  0.75175232  0.74680257  0.40041713  1
  Te  Te98  1  0.77086479  0.77041998  0.73641824  1
  Te  Te99  1  0.08560615  0.25663910  0.25418470  1
  Te  Te100  1  0.11538568  0.23441452  0.61574776  1
  Te  Te101  1  0.07685437  0.26184603  0.90374796  1
  Te  Te102  1  0.09604342  0.55668537  0.25384711  1
  Te  Te103  1  0.06393834  0.57524744  0.61037434  1
  Te  Te104  1  0.09718384  0.55264386  0.92761218  1
  Te  Te105  1  0.05309745  0.93232749  0.26103446  1
  Te  Te106  1  0.02336593  0.95311923  0.50383846  1
  Te  Te107  1  0.10154364  0.92051467  0.90258972  1
  Te  Te108  1  0.44836955  0.23298433  0.26463111  1
  Te  Te109  1  0.41679185  0.24476503  0.57735025  1
  Te  Te110  1  0.42209239  0.25442255  0.90020379  1
  Te  Te111  1  0.41412449  0.57422371  0.25794160  1
  Te  Te112  1  0.44789498  0.56507619  0.58240647  1
  Te  Te113  1  0.43248073  0.56524618  0.93779179  1
  Te  Te114  1  0.42791581  0.92380002  0.23322774  1
  Te  Te115  1  0.41778748  0.91486654  0.58112515  1
  Te  Te116  1  0.39453661  0.91628030  0.91441848  1
  Te  Te117  1  0.73390946  0.26705749  0.26885079  1
  Te  Te118  1  0.69573290  0.26014071  0.60214173  1
  Te  Te119  1  0.74934881  0.23792845  0.92058101  1
  Te  Te120  1  0.75579095  0.59690015  0.22854861  1
  Te  Te121  1  0.75701490  0.58213975  0.58128952  1
  Te  Te122  1  0.76240696  0.61466704  0.92422513  1
  Te  Te123  1  0.77243824  0.92366715  0.25304517  1
  Te  Te124  1  0.74843711  0.92488929  0.58491803  1
  Te  Te125  1  0.76732482  0.89622570  0.87717660  1
  Te  Te126  1  0.26690471  0.25262666  0.08891778  1
  Te  Te127  1  0.24456296  0.25600359  0.43713896  1
  Te  Te128  1  0.23011707  0.25269458  0.72599571  1
  Te  Te129  1  0.23729385  0.57005522  0.08603327  1
  Te  Te130  1  0.25653990  0.59789220  0.41091968  1
  Te  Te131  1  0.24389040  0.58308799  0.74946056  1
  Te  Te132  1  0.22174644  0.92376876  0.09205643  1
  Te  Te133  1  0.23474633  0.92896992  0.40857478  1
  Te  Te134  1  0.22984948  0.92648807  0.71981075  1
  Te  Te135  1  0.57665141  0.25115869  0.07896145  1
  Te  Te136  1  0.61962831  0.26819738  0.46409381  1
  Te  Te137  1  0.54815812  0.25648095  0.79377883  1
  Te  Te138  1  0.56950722  0.59846059  0.11850143  1
  Te  Te139  1  0.58729743  0.57620053  0.41703330  1
  Te  Te140  1  0.60356948  0.58141764  0.74628514  1
  Te  Te141  1  0.57993631  0.91046657  0.06947630  1
  Te  Te142  1  0.58051864  0.89415653  0.40238592  1
  Te  Te143  1  0.56351060  0.89887049  0.76752705  1
  Te  Te144  1  0.90424934  0.23387607  0.09978085  1
  Te  Te145  1  0.91513907  0.25096725  0.41412842  1
  Te  Te146  1  0.89055143  0.22212794  0.74159919  1
  Te  Te147  1  0.92334741  0.58613255  0.06799113  1
  Te  Te148  1  0.94383781  0.58051474  0.41572107  1
  Te  Te149  1  0.89051177  0.55977801  0.76254554  1
  Te  Te150  1  0.92407368  0.90356642  0.06827274  1
  Te  Te151  1  0.90013340  0.89909199  0.44230561  1
  Te  Te152  1  0.97996848  0.93472278  0.70316212  1
  Te  Te153  1  0.26192667  0.10073232  0.24240178  1
  Te  Te154  1  0.23874152  0.04027113  0.58654514  1
  Te  Te155  1  0.25036951  0.08852789  0.92074031  1
  Te  Te156  1  0.26984834  0.41216027  0.27881885  1
  Te  Te157  1  0.25367792  0.42880107  0.57557068  1
  Te  Te158  1  0.24546020  0.41349582  0.91042960  1
  Te  Te159  1  0.22480028  0.74239465  0.22098961  1
  Te  Te160  1  0.26107787  0.73678610  0.58297223  1
  Te  Te161  1  0.22654325  0.75584878  0.94035260  1
  Te  Te162  1  0.59625948  0.08390710  0.26365507  1
  Te  Te163  1  0.58475844  0.08036581  0.58998747  1
  Te  Te164  1  0.59667820  0.07976627  0.91660317  1
  Te  Te165  1  0.61989752  0.39749175  0.27440622  1
  Te  Te166  1  0.60241761  0.37872933  0.58838588  1
  Te  Te167  1  0.56676052  0.45302814  0.93403568  1
  Te  Te168  1  0.57005984  0.74677607  0.22594167  1
  Te  Te169  1  0.58775823  0.74057534  0.59100784  1
  Te  Te170  1  0.58549853  0.74318664  0.91049736  1
  Te  Te171  1  0.93001155  0.07777556  0.27068378  1
  Te  Te172  1  0.90486839  0.12670328  0.60188817  1
  Te  Te173  1  0.92048190  0.05927291  0.90245559  1
  Te  Te174  1  0.90375663  0.40441964  0.22856360  1
  Te  Te175  1  0.89361279  0.37024695  0.59742958  1
  Te  Te176  1  0.90049456  0.41795968  0.93151811  1
  Te  Te177  1  0.92203721  0.76200015  0.25884425  1
  Te  Te178  1  0.93864526  0.74873725  0.57255467  1
  Te  Te179  1  0.95665481  0.74597010  0.92432871  1
