# generated using pymatgen
data_In2Te3
_symmetry_space_group_name_H-M   'P 1'
_cell_length_a   18.91133567
_cell_length_b   18.88177452
_cell_length_c   18.89661926
_cell_angle_alpha   90.13788595
_cell_angle_beta   90.02595109
_cell_angle_gamma   90.01593566
_symmetry_Int_Tables_number   1
_chemical_formula_structural   In2Te3
_chemical_formula_sum   'In72 Te108'
_cell_volume   6747.57629768
_cell_formula_units_Z   36
loop_
 _symmetry_equiv_pos_site_id
 _symmetry_equiv_pos_as_xyz
  1  'x, y, z'
loop_
 _atom_site_type_symbol
 _atom_site_label
 _atom_site_symmetry_multiplicity
 _atom_site_fract_x
 _atom_site_fract_y
 _atom_site_fract_z
 _atom_site_occupancy
  In  In0  1  0.00484505  0.35190985  0.63950054  1
  In  In1  1  -0.02869890  0.82759414  0.85238668  1
  In  In2  1  0.69630842  0.33813573  -0.00366709  1
  In  In3  1  0.13530579  0.34711868  0.79984082  1
  In  In4  1  0.33033048  0.49042234  0.49399243  1
  In  In5  1  0.68876901  0.67966183  0.33623875  1
  In  In6  1  0.51723540  0.01906707  0.49683436  1
  In  In7  1  0.14724211  -0.00021862  0.48051147  1
  In  In8  1  0.67720186  0.16622927  0.16523662  1
  In  In9  1  0.49701276  0.19430322  0.66376070  1
  In  In10  1  0.32541022  0.33799560  -0.00388732  1
  In  In11  1  0.85515576  0.49944019  0.33080618  1
  In  In12  1  0.32808712  0.68161185  0.01379741  1
  In  In13  1  0.50635375  0.33223529  0.82918779  1
  In  In14  1  0.66607217  0.84219218  0.16082211  1
  In  In15  1  0.16813775  0.33981432  0.13984445  1
  In  In16  1  0.16436412  0.49329881  0.35501711  1
  In  In17  1  0.85101175  0.50037802  0.67093925  1
  In  In18  1  0.15081424  0.76213408  0.64197324  1
  In  In19  1  0.15558155  0.19621165  -0.00064456  1
  In  In20  1  0.14348155  0.80023695  0.01252118  1
  In  In21  1  0.15992387  0.67223684  0.15675840  1
  In  In22  1  0.29674370  0.19436273  0.81699142  1
  In  In23  1  0.83547432  0.15373746  0.66575112  1
  In  In24  1  0.50936744  0.80747523  0.67519155  1
  In  In25  1  -0.00448183  0.67360374  0.33474795  1
  In  In26  1  0.67615310  0.51134743  0.14233673  1
  In  In27  1  0.67797814  -0.00170780  0.34363292  1
  In  In28  1  0.84620693  0.82556216  0.32156147  1
  In  In29  1  0.69245940  0.54761567  0.85181388  1
  In  In30  1  0.33547215  0.84285946  0.17661613  1
  In  In31  1  0.50987353  0.00052134  0.83514379  1
  In  In32  1  0.16397002  -0.01572258  0.82939517  1
  In  In33  1  0.36380026  0.84849120  0.82641783  1
  In  In34  1  0.66825131  0.32238037  0.66372009  1
  In  In35  1  0.47782560  0.53133473  0.34046088  1
  In  In36  1  0.31663001  0.51437072  0.18503628  1
  In  In37  1  0.16580857  0.84571762  0.31748149  1
  In  In38  1  0.68662125  -0.00474482  0.01465534  1
  In  In39  1  0.49245807  0.85890640  0.33833860  1
  In  In40  1  0.49832065  0.14185649  0.01304280  1
  In  In41  1  -0.04465380  0.02397850  -0.02453455  1
  In  In42  1  -0.02307678  0.32236989  0.00459763  1
  In  In43  1  0.50371561  0.33570581  0.18672804  1
  In  In44  1  -0.00710282  0.00127619  0.66441023  1
  In  In45  1  0.83857207  0.83180048  0.01674780  1
  In  In46  1  -0.00928053  0.15500705  0.17825368  1
  In  In47  1  0.18651861  0.18696037  0.35906646  1
  In  In48  1  0.47775188  0.33434028  0.49938597  1
  In  In49  1  -0.02623028  0.52599846  0.13745681  1
  In  In50  1  0.32995206  0.46979461  0.81997850  1
  In  In51  1  0.00321396  0.32713250  0.35112562  1
  In  In52  1  0.84471935  -0.01156913  0.49817113  1
  In  In53  1  0.49545034  0.16742788  0.34286164  1
  In  In54  1  -0.00069055  0.81423835  0.50225876  1
  In  In55  1  0.66085104  0.31763215  0.31770218  1
  In  In56  1  0.67405170  0.79837983  0.84585634  1
  In  In57  1  0.84127998  0.65357528  0.49449440  1
  In  In58  1  0.34835778  0.01193358  0.64871673  1
  In  In59  1  0.68762108  0.14123019  0.51161877  1
  In  In60  1  0.17669897  0.64478123  0.83159507  1
  In  In61  1  0.33008377  -0.00584806  0.01168581  1
  In  In62  1  0.15567999  0.02033301  0.19554532  1
  In  In63  1  0.48786024  0.67218154  0.51140560  1
  In  In64  1  0.31569217  0.82252230  0.50360369  1
  In  In65  1  0.68295358  0.48009872  0.49705400  1
  In  In66  1  0.50801281  0.51514398  0.00545973  1
  In  In67  1  0.14712953  0.18225045  0.66286088  1
  In  In68  1  0.81254463  0.82224042  0.66231369  1
  In  In69  1  0.83092222  0.31824208  0.82328034  1
  In  In70  1  0.50379764  0.66802334  0.84217104  1
  In  In71  1  -0.00523517  0.51023671  0.84350800  1
  Te  Te72  1  0.08165943  0.08444113  0.06799832  1
  Te  Te73  1  0.07701836  0.09058974  0.39002281  1
  Te  Te74  1  0.07492698  0.08538565  0.76156882  1
  Te  Te75  1  0.06990882  0.42651171  0.06564163  1
  Te  Te76  1  0.09309935  0.40114729  0.44829177  1
  Te  Te77  1  0.07546592  0.46044232  0.71943796  1
  Te  Te78  1  0.04310466  0.75199601  0.11009407  1
  Te  Te79  1  0.10380372  0.74389855  0.41601806  1
  Te  Te80  1  0.07827654  0.74780232  0.77213168  1
  Te  Te81  1  0.41051568  0.07324210  0.10763327  1
  Te  Te82  1  0.40661968  0.08520277  0.42869457  1
  Te  Te83  1  0.41114091  0.09373139  0.76220867  1
  Te  Te84  1  0.41177520  0.42103190  0.09013711  1
  Te  Te85  1  0.41009625  0.40451411  0.38440269  1
  Te  Te86  1  0.42236556  0.39807811  0.72922554  1
  Te  Te87  1  0.42378926  0.75878521  0.09229055  1
  Te  Te88  1  0.40975690  0.75016470  0.40697454  1
  Te  Te89  1  0.40133217  0.72671006  0.74441408  1
  Te  Te90  1  0.77781497  0.08073274  0.09727571  1
  Te  Te91  1  0.76218263  0.12020284  0.38091387  1
  Te  Te92  1  0.78352026  0.06089669  0.76539395  1
  Te  Te93  1  0.77477921  0.40838259  0.10042713  1
  Te  Te94  1  0.76518989  0.39853470  0.40011067  1
  Te  Te95  1  0.73863007  0.42346306  0.75586816  1
  Te  Te96  1  0.73771885  0.74013310  0.07876848  1
  Te  Te97  1  0.76275230  0.76903047  0.43486316  1
  Te  Te98  1  0.77282671  0.72064836  0.76551914  1
  Te  Te99  1  0.09358360  0.25151601  0.24010863  1
  Te  Te100  1  0.06383349  0.24214797  0.55811332  1
  Te  Te101  1  0.06240066  0.25284392  0.89621918  1
  Te  Te102  1  0.08066208  0.57136204  0.24693737  1
  Te  Te103  1  0.12732913  0.63763307  0.56427615  1
  Te  Te104  1  0.08516556  0.58902830  0.93067166  1
  Te  Te105  1  0.06322354  0.91595785  0.24035411  1
  Te  Te106  1  0.09146569  0.90391943  0.59557829  1
  Te  Te107  1  0.06992777  0.91918152  0.93020790  1
  Te  Te108  1  0.40830167  0.25201135  0.25930670  1
  Te  Te109  1  0.39654681  0.22206630  0.55679050  1
  Te  Te110  1  0.41569592  0.24258837  0.91687920  1
  Te  Te111  1  0.42622483  0.60458997  0.22384430  1
  Te  Te112  1  0.43011535  0.55698941  0.58151971  1
  Te  Te113  1  0.39582910  0.57319496  0.91883701  1
  Te  Te114  1  0.41041263  0.94513002  0.25331507  1
  Te  Te115  1  0.42763414  0.90298361  0.57798869  1
  Te  Te116  1  0.43921085  0.91456839  0.93905415  1
  Te  Te117  1  0.76034097  0.28057799  0.21417172  1
  Te  Te118  1  0.76818884  0.25589645  0.57256460  1
  Te  Te119  1  0.76242143  0.22786246  0.92058394  1
  Te  Te120  1  0.76777113  0.58844813  0.24497713  1
  Te  Te121  1  0.74743729  0.58161543  0.58917708  1
  Te  Te122  1  0.74012359  0.60028149  0.98046004  1
  Te  Te123  1  0.76556250  0.92598779  0.24266215  1
  Te  Te124  1  0.74592606  0.93360097  0.59032052  1
  Te  Te125  1  0.75763294  0.90766521  0.91223038  1
  Te  Te126  1  0.26940592  0.23441483  0.09192092  1
  Te  Te127  1  0.25815679  0.27007846  0.46560700  1
  Te  Te128  1  0.24821674  0.28934893  0.71309133  1
  Te  Te129  1  0.23693747  0.57315077  0.06983417  1
  Te  Te130  1  0.26774269  0.58666548  0.40123181  1
  Te  Te131  1  0.24585601  0.55788191  0.73619699  1
  Te  Te132  1  0.22736794  0.90993399  0.08729595  1
  Te  Te133  1  0.25877611  0.92572439  0.40856977  1
  Te  Te134  1  0.26275929  0.91670676  0.73562643  1
  Te  Te135  1  0.57936409  0.26150825  0.07678830  1
  Te  Te136  1  0.59253664  0.24698202  0.43955245  1
  Te  Te137  1  0.60523722  0.23412223  0.76903062  1
  Te  Te138  1  0.57099963  0.60696111  0.10116701  1
  Te  Te139  1  0.60063572  0.58396349  0.41778190  1
  Te  Te140  1  0.58524015  0.57889129  0.75916063  1
  Te  Te141  1  0.57824830  0.94260549  0.09846886  1
  Te  Te142  1  0.59964213  0.90695210  0.43706381  1
  Te  Te143  1  0.59453546  0.90214274  0.75813839  1
  Te  Te144  1  0.90186380  0.21811426  0.07787158  1
  Te  Te145  1  0.89930017  0.22604961  0.38321684  1
  Te  Te146  1  0.93092885  0.25331583  0.73215553  1
  Te  Te147  1  0.88678352  0.58841183  0.03414058  1
  Te  Te148  1  0.94858126  0.56652844  0.43177438  1
  Te  Te149  1  0.89684048  0.59857167  0.77282532  1
  Te  Te150  1  0.90695193  0.94414779  0.08811057  1
  Te  Te151  1  0.93857935  0.91407401  0.40571643  1
  Te  Te152  1  0.90143136  0.91551683  0.75036158  1
  Te  Te153  1  0.25834797  0.09751110  0.26430507  1
  Te  Te154  1  0.23023934  0.07954326  0.58396915  1
  Te  Te155  1  0.24724112  0.08389724  0.91479153  1
  Te  Te156  1  0.24280151  0.40325045  0.25580073  1
  Te  Te157  1  0.23149727  0.39263797  0.54896196  1
  Te  Te158  1  0.22373747  0.40789795  0.91129713  1
  Te  Te159  1  0.25406199  0.73883449  0.25377675  1
  Te  Te160  1  0.26952461  0.69497793  0.57284106  1
  Te  Te161  1  0.25589934  0.77397932  0.91160150  1
  Te  Te162  1  0.58694461  0.08243303  0.25506849  1
  Te  Te163  1  0.58966355  0.08283548  0.61466322  1
  Te  Te164  1  0.60177108  0.08702728  0.91855785  1
  Te  Te165  1  0.58838413  0.44069932  0.25909997  1
  Te  Te166  1  0.57731619  0.41483935  0.58485758  1
  Te  Te167  1  0.59366552  0.42309598  0.91816470  1
  Te  Te168  1  0.58562910  0.76131351  0.26298090  1
  Te  Te169  1  0.59866404  0.73349719  0.58626680  1
  Te  Te170  1  0.56982704  0.75461760  0.93940849  1
  Te  Te171  1  0.90851659  0.10565693  0.29203880  1
  Te  Te172  1  0.93387197  0.09293841  0.55916606  1
  Te  Te173  1  0.87229209  0.10344581  0.88252267  1
  Te  Te174  1  0.94085682  0.41503490  0.23866704  1
  Te  Te175  1  0.89704128  0.41510450  0.56067618  1
  Te  Te176  1  0.89690413  0.41851180  0.91678508  1
  Te  Te177  1  0.91484656  0.73417666  0.22682422  1
  Te  Te178  1  0.92217341  0.73103821  0.59926325  1
  Te  Te179  1  0.92295156  0.72569699  0.94865016  1
