# generated using pymatgen
data_In2Te3
_symmetry_space_group_name_H-M   'P 1'
_cell_length_a   18.87460759
_cell_length_b   18.86421132
_cell_length_c   18.86436446
_cell_angle_alpha   90.09806570
_cell_angle_beta   90.03167770
_cell_angle_gamma   89.97152018
_symmetry_Int_Tables_number   1
_chemical_formula_structural   In2Te3
_chemical_formula_sum   'In72 Te108'
_cell_volume   6716.73178939
_cell_formula_units_Z   36
loop_
 _symmetry_equiv_pos_site_id
 _symmetry_equiv_pos_as_xyz
  1  'x, y, z'
loop_
 _atom_site_type_symbol
 _atom_site_label
 _atom_site_symmetry_multiplicity
 _atom_site_fract_x
 _atom_site_fract_y
 _atom_site_fract_z
 _atom_site_occupancy
  In  In0  1  0.83279979  0.32560017  0.16724565  1
  In  In1  1  0.68065629  0.03201710  0.02416221  1
  In  In2  1  0.49968416  0.48001358  -0.00934318  1
  In  In3  1  0.84498826  0.65959778  0.79465137  1
  In  In4  1  0.85090029  0.48641583  0.66471096  1
  In  In5  1  0.87516769  0.16530514  0.32093893  1
  In  In6  1  0.32874601  0.29810518  0.35640753  1
  In  In7  1  -0.01197863  0.52247645  0.17833302  1
  In  In8  1  0.83695339  -0.00562414  0.50480405  1
  In  In9  1  0.29307847  0.48002973  0.84738506  1
  In  In10  1  0.18477049  0.49608552  0.66239354  1
  In  In11  1  0.30185535  0.14026395  0.19778006  1
  In  In12  1  0.04384272  0.32236918  0.37868767  1
  In  In13  1  0.34622125  -0.00374216  0.67161502  1
  In  In14  1  0.67497323  0.17619555  0.50263596  1
  In  In15  1  0.29592861  -0.00039258  0.02213833  1
  In  In16  1  0.48937503  0.18924899  0.00417938  1
  In  In17  1  0.14886649  0.15595040  0.01445308  1
  In  In18  1  0.30417860  0.81578415  0.84576186  1
  In  In19  1  0.84291505  0.83886400  0.66777063  1
  In  In20  1  -0.00275101  0.32575909  0.00993444  1
  In  In21  1  0.01909996  0.66310376  0.66440507  1
  In  In22  1  0.18443672  0.18742796  0.65155972  1
  In  In23  1  0.33470258  0.50317399  0.50639270  1
  In  In24  1  0.65474131  0.00644727  0.32234023  1
  In  In25  1  0.15597916  -0.00272390  0.84777585  1
  In  In26  1  0.13598053  0.01578124  0.48058477  1
  In  In27  1  0.17674755  0.65823156  0.49385476  1
  In  In28  1  0.84045198  0.31372340  0.84978655  1
  In  In29  1  0.84269424  0.82823104  -0.00628168  1
  In  In30  1  0.50472169  0.33633509  0.17256873  1
  In  In31  1  0.65471579  0.33166230  0.32408747  1
  In  In32  1  0.49856692  0.33067353  0.82827300  1
  In  In33  1  0.80563161  0.85381242  0.33597695  1
  In  In34  1  0.83167922  0.66730614  0.18690984  1
  In  In35  1  0.48807844  0.86093828  0.00661803  1
  In  In36  1  0.65844844  0.69291600  0.64822126  1
  In  In37  1  0.01884387  0.33276406  0.63159984  1
  In  In38  1  0.34616864  0.49111613  0.18096324  1
  In  In39  1  -0.00172479  0.15885600  0.85003388  1
  In  In40  1  0.30737118  0.67143479  0.00519550  1
  In  In41  1  0.02347346  0.86538734  0.18614274  1
  In  In42  1  0.83823599  0.49544665  0.33534755  1
  In  In43  1  0.32179653  0.63089824  0.64222364  1
  In  In44  1  0.16669064  0.33174295  0.16933377  1
  In  In45  1  -0.00699497  0.83230560  0.48738517  1
  In  In46  1  0.47863221  0.66042468  0.81077995  1
  In  In47  1  0.32604370  0.87233685  0.19358798  1
  In  In48  1  0.67071006  0.66691028  0.33705872  1
  In  In49  1  0.83598320  0.46915813  0.01636528  1
  In  In50  1  0.00277826  0.84108363  0.81591654  1
  In  In51  1  0.67326130  0.50658201  0.49143538  1
  In  In52  1  0.49359165  0.67112586  0.18144881  1
  In  In53  1  0.66328702  0.48860100  0.84114732  1
  In  In54  1  0.50046540  0.49524433  0.62604746  1
  In  In55  1  0.49644132  0.84099780  0.33124993  1
  In  In56  1  0.32303258  0.35575987  0.65732674  1
  In  In57  1  0.63638237  0.85068042  0.85734643  1
  In  In58  1  0.50845415  -0.00839606  0.17365380  1
  In  In59  1  0.07942887  0.65475650  -0.02770450  1
  In  In60  1  0.17203576  0.68423536  0.18306923  1
  In  In61  1  0.66624081  0.65137857  0.00897119  1
  In  In62  1  0.50084067  0.83650818  0.62883195  1
  In  In63  1  0.32723754  0.84224635  0.49823312  1
  In  In64  1  0.68394930  0.16245555  0.83690654  1
  In  In65  1  0.49464755  0.01002803  0.80529271  1
  In  In66  1  0.50817237  0.16262788  0.65071346  1
  In  In67  1  0.51317179  0.32832684  0.49557069  1
  In  In68  1  -0.01801606  0.01705110  0.01903933  1
  In  In69  1  -0.00947589  0.00048261  0.65837565  1
  In  In70  1  0.00228249  0.65625937  0.33961407  1
  In  In71  1  0.83084211  0.15429149  0.65631774  1
  Te  Te72  1  0.07803443  0.07652406  0.11956960  1
  Te  Te73  1  0.08746839  0.10315556  0.36377039  1
  Te  Te74  1  0.08842645  0.08831875  0.74117842  1
  Te  Te75  1  0.07436932  0.42680533  0.09337643  1
  Te  Te76  1  0.11173173  0.43553946  0.44430567  1
  Te  Te77  1  0.10919337  0.39055275  0.73649350  1
  Te  Te78  1  0.05858284  0.74125320  0.09846892  1
  Te  Te79  1  0.09671134  0.75536012  0.40711650  1
  Te  Te80  1  0.09871924  0.75352572  0.74801884  1
  Te  Te81  1  0.41068501  0.07426524  0.08437672  1
  Te  Te82  1  0.34752174  0.16084939  0.41796580  1
  Te  Te83  1  0.40020744  0.11527125  0.75021122  1
  Te  Te84  1  0.40310022  0.39889777  0.07420633  1
  Te  Te85  1  0.41924312  0.41340543  0.41453042  1
  Te  Te86  1  0.42081985  0.44186084  0.74399547  1
  Te  Te87  1  0.40428416  0.76435645  0.08696851  1
  Te  Te88  1  0.39415934  0.75513097  0.39753326  1
  Te  Te89  1  0.41238515  0.77521296  0.73927301  1
  Te  Te90  1  0.79568152  0.12060854  0.06072349  1
  Te  Te91  1  0.76326212  0.08924634  0.40957264  1
  Te  Te92  1  0.74267427  0.07044848  0.73872218  1
  Te  Te93  1  0.73276642  0.41179618  0.10051249  1
  Te  Te94  1  0.75338299  0.39938349  0.41838999  1
  Te  Te95  1  0.75882054  0.40529337  0.75745392  1
  Te  Te96  1  0.74904970  0.75083375  0.08842383  1
  Te  Te97  1  0.77376635  0.73589397  0.41638812  1
  Te  Te98  1  0.73395808  0.76179112  0.76935855  1
  Te  Te99  1  0.08077058  0.24469474  0.25469202  1
  Te  Te100  1  0.09064087  0.23343752  0.54526389  1
  Te  Te101  1  0.09419477  0.25730852  0.91411053  1
  Te  Te102  1  0.10277595  0.57048597  0.26471747  1
  Te  Te103  1  0.08283772  0.56333399  0.56759418  1
  Te  Te104  1  0.13886962  0.53496803  0.90062613  1
  Te  Te105  1  0.12517252  0.91317839  0.28501821  1
  Te  Te106  1  0.08419044  0.90925545  0.58229892  1
  Te  Te107  1  0.06370466  0.91755999  0.93533966  1
  Te  Te108  1  0.41423927  0.22980888  0.24346815  1
  Te  Te109  1  0.40779551  0.25530777  0.57853016  1
  Te  Te110  1  0.40059770  0.26403368  0.91416138  1
  Te  Te111  1  0.39886360  0.59884162  0.26801995  1
  Te  Te112  1  0.44265048  0.61366681  0.55543925  1
  Te  Te113  1  0.40638594  0.58196588  0.92299847  1
  Te  Te114  1  0.41139371  0.96066007  0.28618358  1
  Te  Te115  1  0.42688347  0.94624130  0.55221702  1
  Te  Te116  1  0.40216861  0.92563738  0.90141756  1
  Te  Te117  1  0.75307197  0.23283972  0.25658473  1
  Te  Te118  1  0.75598080  0.26178530  0.59082608  1
  Te  Te119  1  0.75151308  0.24117603  0.94469841  1
  Te  Te120  1  0.73947419  0.56200359  0.24111337  1
  Te  Te121  1  0.75287980  0.58675143  0.59456800  1
  Te  Te122  1  0.76039716  0.58606054  0.90782955  1
  Te  Te123  1  0.75992013  0.94877057  0.23475293  1
  Te  Te124  1  0.74833774  0.90287783  0.57674415  1
  Te  Te125  1  0.74597698  0.92762705  0.92836573  1
  Te  Te126  1  0.25461846  0.23728184  0.08863166  1
  Te  Te127  1  0.20959152  0.20987595  0.41178278  1
  Te  Te128  1  0.23916411  0.28092499  0.75532544  1
  Te  Te129  1  0.24323944  0.57439247  0.10076266  1
  Te  Te130  1  0.26390033  0.58115484  0.40374331  1
  Te  Te131  1  0.24386902  0.60081487  0.76642269  1
  Te  Te132  1  0.22073370  0.89758595  0.09272656  1
  Te  Te133  1  0.23819280  0.92908765  0.41063992  1
  Te  Te134  1  0.24009945  0.91679335  0.75002313  1
  Te  Te135  1  0.58884167  0.23405453  0.10313210  1
  Te  Te136  1  0.57174311  0.22751407  0.39996767  1
  Te  Te137  1  0.59374281  0.24702233  0.74506373  1
  Te  Te138  1  0.56930509  0.56990653  0.09267528  1
  Te  Te139  1  0.57747985  0.56893482  0.39846676  1
  Te  Te140  1  0.58994134  0.58057110  0.74217150  1
  Te  Te141  1  0.60462301  0.91031401  0.08626460  1
  Te  Te142  1  0.59839636  0.90711303  0.41668204  1
  Te  Te143  1  0.58729717  0.91764262  0.73007802  1
  Te  Te144  1  0.91529004  0.22736991  0.08641392  1
  Te  Te145  1  0.91594170  0.26435001  0.42318292  1
  Te  Te146  1  0.93041061  0.24728025  0.74368191  1
  Te  Te147  1  0.90431439  0.59250609  0.07283547  1
  Te  Te148  1  0.91342914  0.58105151  0.42858937  1
  Te  Te149  1  0.95216451  0.55997222  0.75481752  1
  Te  Te150  1  0.90302151  0.91739047  0.10289054  1
  Te  Te151  1  0.92484753  0.93197761  0.39679542  1
  Te  Te152  1  0.90030246  0.94120572  0.76516561  1
  Te  Te153  1  0.20799290  0.04470598  0.26909162  1
  Te  Te154  1  0.24479573  0.06684317  0.58092616  1
  Te  Te155  1  0.25105867  0.09510595  0.91371442  1
  Te  Te156  1  0.25647954  0.40294320  0.26953377  1
  Te  Te157  1  0.22580095  0.39452906  0.54062497  1
  Te  Te158  1  0.22172960  0.42316331  0.95907050  1
  Te  Te159  1  0.27510495  0.75310490  0.26704201  1
  Te  Te160  1  0.24542069  0.75247056  0.59242590  1
  Te  Te161  1  0.19999881  0.74929240  0.93422377  1
  Te  Te162  1  0.59410025  0.10143262  0.22407260  1
  Te  Te163  1  0.58650775  0.07484882  0.56430036  1
  Te  Te164  1  0.57183290  0.07772707  0.91858989  1
  Te  Te165  1  0.55883899  0.43275048  0.27220833  1
  Te  Te166  1  0.60905642  0.39975390  0.58975626  1
  Te  Te167  1  0.60084482  0.38393840  0.93130724  1
  Te  Te168  1  0.59635591  0.76319639  0.24393748  1
  Te  Te169  1  0.59125927  0.76324021  0.53718932  1
  Te  Te170  1  0.56266220  0.73417744  0.92556560  1
  Te  Te171  1  0.97442663  0.08809493  0.24021627  1
  Te  Te172  1  0.93511615  0.09831829  0.55803674  1
  Te  Te173  1  0.89183016  0.08501118  0.92129435  1
  Te  Te174  1  0.93251576  0.40416912  0.25557643  1
  Te  Te175  1  0.92251922  0.41570390  0.55711328  1
  Te  Te176  1  0.93208232  0.42100173  0.90919078  1
  Te  Te177  1  0.92571095  0.76283280  0.25839008  1
  Te  Te178  1  0.91650802  0.73863138  0.58080940  1
  Te  Te179  1  0.92546146  0.73792743  0.90050330  1
