# generated using pymatgen
data_VFe(PbO3)2
_symmetry_space_group_name_H-M   'P 1'
_cell_length_a   15.38144338
_cell_length_b   15.37872564
_cell_length_c   18.50126956
_cell_angle_alpha   90.02076657
_cell_angle_beta   89.99926567
_cell_angle_gamma   90.00785785
_symmetry_Int_Tables_number   1
_chemical_formula_structural   VFe(PbO3)2
_chemical_formula_sum   'V32 Fe32 Pb64 O192'
_cell_volume   4376.41943981
_cell_formula_units_Z   32
loop_
 _symmetry_equiv_pos_site_id
 _symmetry_equiv_pos_as_xyz
  1  'x, y, z'
loop_
 _atom_site_type_symbol
 _atom_site_label
 _atom_site_symmetry_multiplicity
 _atom_site_fract_x
 _atom_site_fract_y
 _atom_site_fract_z
 _atom_site_occupancy
  V  V0  1  0.87946246  0.87050196  0.63866961  1
  V  V1  1  0.37518607  0.62483792  0.89138857  1
  V  V2  1  0.12369793  0.37682100  0.38813926  1
  V  V3  1  0.37291629  0.62837483  0.63976829  1
  V  V4  1  0.62602912  0.87538287  0.13967390  1
  V  V5  1  0.62461835  0.12532227  0.14303247  1
  V  V6  1  0.37810978  0.62071937  0.13439540  1
  V  V7  1  0.87811179  0.62326777  0.38799540  1
  V  V8  1  0.62734182  0.87630545  0.63871117  1
  V  V9  1  0.87487565  0.62474194  0.89200066  1
  V  V10  1  0.37256852  0.38117497  0.64270735  1
  V  V11  1  0.62701214  0.87306366  0.38339327  1
  V  V12  1  0.12393428  0.87757299  0.90164293  1
  V  V13  1  0.12768585  0.62624656  0.64347793  1
  V  V14  1  0.12730198  0.12811631  0.13620816  1
  V  V15  1  0.12182888  0.12769865  0.88970550  1
  V  V16  1  0.87343642  0.87455531  0.89309240  1
  V  V17  1  0.37531784  0.87397328  0.89742729  1
  V  V18  1  0.12256449  0.37193519  0.13608550  1
  V  V19  1  0.62725186  0.12743430  0.88696924  1
  V  V20  1  0.12738684  0.12265157  0.64120259  1
  V  V21  1  0.37521293  0.87294226  0.64059824  1
  V  V22  1  0.37282184  0.62203487  0.38515416  1
  V  V23  1  0.87459432  0.37309428  0.39557771  1
  V  V24  1  0.12790806  0.87560092  0.64098139  1
  V  V25  1  0.87401775  0.12972734  0.14168730  1
  V  V26  1  0.12436927  0.12552221  0.38828842  1
  V  V27  1  0.12385834  0.87249639  0.38185933  1
  V  V28  1  0.37379803  0.12440849  0.63966502  1
  V  V29  1  0.87385378  0.37268870  0.88499138  1
  V  V30  1  0.62646307  0.37259111  0.13906203  1
  V  V31  1  0.62515896  0.87714889  0.89278780  1
  Fe  Fe32  1  0.62464668  0.37787345  0.39160710  1
  Fe  Fe33  1  0.62382587  0.37540777  0.63339650  1
  Fe  Fe34  1  0.87218198  0.87735417  0.14303088  1
  Fe  Fe35  1  0.37602205  0.37405729  0.14057441  1
  Fe  Fe36  1  0.62213097  0.62945438  0.63315368  1
  Fe  Fe37  1  0.37291143  0.37500118  0.38096294  1
  Fe  Fe38  1  0.12564766  0.62330973  0.37884234  1
  Fe  Fe39  1  0.62510217  0.37589471  0.87880137  1
  Fe  Fe40  1  0.62194339  0.12216545  0.62948742  1
  Fe  Fe41  1  0.87461129  0.12095666  0.88417160  1
  Fe  Fe42  1  0.87309696  0.37169371  0.13577990  1
  Fe  Fe43  1  0.87161703  0.61972495  0.13134881  1
  Fe  Fe44  1  0.12721136  0.37225217  0.64633101  1
  Fe  Fe45  1  0.62393131  0.62845666  0.89361086  1
  Fe  Fe46  1  0.12520084  0.62351067  0.12853393  1
  Fe  Fe47  1  0.37781323  0.87485996  0.14002998  1
  Fe  Fe48  1  0.62603720  0.12427743  0.38968231  1
  Fe  Fe49  1  0.87605347  0.62906219  0.63598870  1
  Fe  Fe50  1  0.37294564  0.12537238  0.38329325  1
  Fe  Fe51  1  0.62460057  0.62248092  0.13002492  1
  Fe  Fe52  1  0.37534659  0.12176532  0.89297785  1
  Fe  Fe53  1  0.62464756  0.62529504  0.38727536  1
  Fe  Fe54  1  0.37618296  0.87377218  0.37821358  1
  Fe  Fe55  1  0.12457604  0.37523387  0.87905212  1
  Fe  Fe56  1  0.37652697  0.12750000  0.13308335  1
  Fe  Fe57  1  0.87773543  0.37860752  0.63184123  1
  Fe  Fe58  1  0.12384692  0.87996464  0.13213736  1
  Fe  Fe59  1  0.12506410  0.62707635  0.89929366  1
  Fe  Fe60  1  0.87600021  0.12099770  0.63118398  1
  Fe  Fe61  1  0.87485593  0.87273642  0.37760558  1
  Fe  Fe62  1  0.87842428  0.12443353  0.39506091  1
  Fe  Fe63  1  0.37660616  0.37433953  0.88304421  1
  Pb  Pb64  1  -0.00269311  -0.00664217  0.00717442  1
  Pb  Pb65  1  -0.01034616  -0.00007231  0.25120897  1
  Pb  Pb66  1  -0.00429298  0.00056861  0.49809030  1
  Pb  Pb67  1  -0.00328298  0.00208979  0.75210239  1
  Pb  Pb68  1  -0.00437748  0.25656577  -0.00246604  1
  Pb  Pb69  1  -0.00654179  0.24403485  0.25442306  1
  Pb  Pb70  1  0.00064261  0.26328617  0.50874107  1
  Pb  Pb71  1  -0.00674779  0.24881444  0.74441137  1
  Pb  Pb72  1  -0.00272070  0.50445004  -0.00069347  1
  Pb  Pb73  1  -0.00037899  0.50591270  0.24201800  1
  Pb  Pb74  1  -0.00381726  0.50053677  0.50457147  1
  Pb  Pb75  1  0.00327649  0.49759282  0.74971110  1
  Pb  Pb76  1  -0.00416624  0.75185448  0.01008261  1
  Pb  Pb77  1  -0.00009015  0.75069474  0.23621292  1
  Pb  Pb78  1  -0.00398575  0.74560076  0.49614419  1
  Pb  Pb79  1  0.00822205  0.74511853  0.75797915  1
  Pb  Pb80  1  0.25163579  -0.00182476  0.00680901  1
  Pb  Pb81  1  0.26125011  -0.00158915  0.24627485  1
  Pb  Pb82  1  0.25175908  -0.00207539  0.49338529  1
  Pb  Pb83  1  0.25529358  0.00279575  0.75658873  1
  Pb  Pb84  1  0.26096894  0.25531436  -0.00115037  1
  Pb  Pb85  1  0.26034323  0.25066797  0.25081802  1
  Pb  Pb86  1  0.24745697  0.25601351  0.49942447  1
  Pb  Pb87  1  0.26373265  0.24895870  0.75810931  1
  Pb  Pb88  1  0.24524575  0.49527243  -0.00467170  1
  Pb  Pb89  1  0.24738803  0.50405058  0.24527947  1
  Pb  Pb90  1  0.24356649  0.49454708  0.49949027  1
  Pb  Pb91  1  0.24873620  0.49337597  0.75824273  1
  Pb  Pb92  1  0.24241685  0.75233752  0.00975051  1
  Pb  Pb93  1  0.24603047  0.75114349  0.23864540  1
  Pb  Pb94  1  0.25140273  0.74889571  0.49197908  1
  Pb  Pb95  1  0.24526314  0.74512780  0.75928762  1
  Pb  Pb96  1  0.49380428  0.00233476  0.00683533  1
  Pb  Pb97  1  0.49267274  0.00471091  0.25248441  1
  Pb  Pb98  1  0.50029377  0.00260891  0.49210137  1
  Pb  Pb99  1  0.49370026  0.00526043  0.75116659  1
  Pb  Pb100  1  0.48951432  0.25516791  0.00013730  1
  Pb  Pb101  1  0.49482901  0.25158087  0.25443352  1
  Pb  Pb102  1  0.50173416  0.25080007  0.49171640  1
  Pb  Pb103  1  0.50228354  0.25598292  0.74802090  1
  Pb  Pb104  1  0.50593538  0.49650704  -0.00500668  1
  Pb  Pb105  1  0.51246732  0.49493448  0.25463791  1
  Pb  Pb106  1  0.50873308  0.49509608  0.49975858  1
  Pb  Pb107  1  0.51273726  0.50061007  0.75151844  1
  Pb  Pb108  1  0.49653271  0.75597867  0.00612897  1
  Pb  Pb109  1  0.50425182  0.74208285  0.24830118  1
  Pb  Pb110  1  0.50348080  0.74699329  0.49590781  1
  Pb  Pb111  1  0.50266382  0.74568612  0.75381126  1
  Pb  Pb112  1  0.75410520  -0.00535012  0.00459480  1
  Pb  Pb113  1  0.74997793  0.01356839  0.25852397  1
  Pb  Pb114  1  0.75492145  0.00426060  0.49687853  1
  Pb  Pb115  1  0.75421419  0.00776054  0.74701957  1
  Pb  Pb116  1  0.75397037  0.25628809  -0.00276878  1
  Pb  Pb117  1  0.73945674  0.24952054  0.26097970  1
  Pb  Pb118  1  0.74017457  0.24368440  0.50312029  1
  Pb  Pb119  1  0.74779245  0.25092694  0.73494124  1
  Pb  Pb120  1  0.74955680  0.50621755  -0.00060528  1
  Pb  Pb121  1  0.74414097  0.49932677  0.24918898  1
  Pb  Pb122  1  0.74642125  0.49869958  0.50495354  1
  Pb  Pb123  1  0.74594187  0.50063482  0.73987967  1
  Pb  Pb124  1  0.75613314  0.74649786  0.00701719  1
  Pb  Pb125  1  0.75372009  0.74532399  0.24409648  1
  Pb  Pb126  1  0.75173082  0.74114003  0.49791880  1
  Pb  Pb127  1  0.74372789  0.74207908  0.75136948  1
  O  O128  1  0.11848078  0.01340383  0.15950502  1
  O  O129  1  0.12536795  -0.00039539  0.40854056  1
  O  O130  1  0.12890086  -0.00018467  0.66875766  1
  O  O131  1  0.12190761  -0.00123646  0.91985640  1
  O  O132  1  0.12061094  0.24580197  0.16660157  1
  O  O133  1  0.12488784  0.24767334  0.41375726  1
  O  O134  1  0.12752237  0.23791490  0.66446373  1
  O  O135  1  0.11951618  0.24491220  0.90565712  1
  O  O136  1  0.12515256  0.49045518  0.15413987  1
  O  O137  1  0.12521720  0.49792779  0.41378149  1
  O  O138  1  0.12981784  0.51004481  0.66304615  1
  O  O139  1  0.12316966  0.49833486  0.91395793  1
  O  O140  1  0.12735259  0.75021330  0.15292474  1
  O  O141  1  0.12613957  0.75435228  0.40518887  1
  O  O142  1  0.12953664  0.75101396  0.67155275  1
  O  O143  1  0.12414520  0.75891911  0.92243308  1
  O  O144  1  0.37903035  0.00377886  0.16224330  1
  O  O145  1  0.37088198  -0.00262256  0.41264302  1
  O  O146  1  0.37234671  -0.00249606  0.66908659  1
  O  O147  1  0.37563171  -0.00431559  0.92072864  1
  O  O148  1  0.37615433  0.24905780  0.16707048  1
  O  O149  1  0.37018100  0.25012961  0.41339738  1
  O  O150  1  0.37141611  0.24874842  0.66307361  1
  O  O151  1  0.37560281  0.24698367  0.91281387  1
  O  O152  1  0.37610434  0.50385426  0.16017510  1
  O  O153  1  0.36905441  0.50651294  0.41017949  1
  O  O154  1  0.37082668  0.50057808  0.66367741  1
  O  O155  1  0.37553673  0.50713493  0.90915543  1
  O  O156  1  0.37728599  0.74153100  0.16009337  1
  O  O157  1  0.37139737  0.74624013  0.40958619  1
  O  O158  1  0.37169368  0.75100465  0.66944659  1
  O  O159  1  0.37484438  0.75209325  0.92148035  1
  O  O160  1  0.62749226  0.00588150  0.16377447  1
  O  O161  1  0.62621545  -0.01050375  0.40964913  1
  O  O162  1  0.62037261  -0.00849809  0.66341861  1
  O  O163  1  0.62661200  -0.00500631  0.91868584  1
  O  O164  1  0.62837419  0.24801878  0.16745499  1
  O  O165  1  0.62792310  0.25194484  0.41406040  1
  O  O166  1  0.62124377  0.24771452  0.65735647  1
  O  O167  1  0.62998539  0.24314591  0.90385027  1
  O  O168  1  0.62372510  0.49186312  0.15898274  1
  O  O169  1  0.62712240  0.50403653  0.41834734  1
  O  O170  1  0.61980839  0.50341663  0.65968069  1
  O  O171  1  0.62513026  0.50057451  0.91110416  1
  O  O172  1  0.62450856  0.75593320  0.15678909  1
  O  O173  1  0.62354648  0.75369020  0.41214347  1
  O  O174  1  0.62030743  0.75895891  0.66768199  1
  O  O175  1  0.62575145  0.76026223  0.91810297  1
  O  O176  1  0.87230878  0.01170522  0.16422153  1
  O  O177  1  0.87926093  -0.00607262  0.41405971  1
  O  O178  1  0.87713729  -0.00944710  0.66515585  1
  O  O179  1  0.87431080  -0.00399281  0.91807271  1
  O  O180  1  0.87194283  0.24636844  0.17115032  1
  O  O181  1  0.88054145  0.25725035  0.41460132  1
  O  O182  1  0.87925433  0.24718989  0.65692233  1
  O  O183  1  0.87367892  0.25230847  0.90694436  1
  O  O184  1  0.87371529  0.49436860  0.16422696  1
  O  O185  1  0.88076972  0.50380586  0.41475908  1
  O  O186  1  0.87895683  0.50547535  0.66469405  1
  O  O187  1  0.87512104  0.50213137  0.90712484  1
  O  O188  1  0.87110817  0.74808290  0.16021120  1
  O  O189  1  0.87974249  0.74543693  0.40930852  1
  O  O190  1  0.87708881  0.75539956  0.67092051  1
  O  O191  1  0.87386510  0.75115499  0.91840793  1
  O  O192  1  -0.00566565  0.13017150  0.16233084  1
  O  O193  1  0.01070657  0.12446995  0.41788523  1
  O  O194  1  0.00823238  0.11713971  0.66167514  1
  O  O195  1  0.00350160  0.12103954  0.91599678  1
  O  O196  1  0.00619476  0.36925803  0.16389004  1
  O  O197  1  0.00164951  0.37662666  0.41844079  1
  O  O198  1  0.00189964  0.37615618  0.66733408  1
  O  O199  1  -0.00813145  0.37542830  0.91030564  1
  O  O200  1  -0.00009280  0.62101656  0.15531197  1
  O  O201  1  -0.00125227  0.62544771  0.41166381  1
  O  O202  1  0.01039327  0.63171933  0.66609844  1
  O  O203  1  -0.00820611  0.62896436  0.91740955  1
  O  O204  1  -0.00003289  0.87864694  0.16083287  1
  O  O205  1  0.00866814  0.87427635  0.40771531  1
  O  O206  1  0.00496777  0.87349387  0.66697105  1
  O  O207  1  -0.00064368  0.87531739  0.91934603  1
  O  O208  1  0.24345646  0.12806047  0.15403021  1
  O  O209  1  0.24069725  0.12364986  0.41492875  1
  O  O210  1  0.24868103  0.12004703  0.67051621  1
  O  O211  1  0.23850961  0.12033376  0.91454674  1
  O  O212  1  0.23979333  0.36928822  0.16051532  1
  O  O213  1  0.24534519  0.37567068  0.41580034  1
  O  O214  1  0.25575375  0.37489606  0.66972708  1
  O  O215  1  0.24922463  0.37356605  0.90991896  1
  O  O216  1  0.25624941  0.62136068  0.15690285  1
  O  O217  1  0.25256843  0.62664964  0.41277651  1
  O  O218  1  0.24859488  0.62910760  0.67265258  1
  O  O219  1  0.25890088  0.63005281  0.91835733  1
  O  O220  1  0.24953306  0.87930222  0.15839716  1
  O  O221  1  0.24215871  0.87513040  0.40940796  1
  O  O222  1  0.25067811  0.87488566  0.66989552  1
  O  O223  1  0.24764458  0.87751834  0.92026457  1
  O  O224  1  0.50821144  0.12804288  0.16177139  1
  O  O225  1  0.49876660  0.12199208  0.41100402  1
  O  O226  1  0.49440570  0.11989952  0.66302671  1
  O  O227  1  0.51166180  0.11933418  0.91241727  1
  O  O228  1  0.50887731  0.36963760  0.16266526  1
  O  O229  1  0.49575999  0.37882794  0.41324618  1
  O  O230  1  0.48996701  0.37488391  0.66099744  1
  O  O231  1  0.50195203  0.37329827  0.91185401  1
  O  O232  1  0.49716653  0.62336317  0.16022035  1
  O  O233  1  0.48998211  0.62644787  0.41123824  1
  O  O234  1  0.49305279  0.62995449  0.66459311  1
  O  O235  1  0.49183991  0.63088816  0.91630519  1
  O  O236  1  0.51027598  0.87877176  0.16567089  1
  O  O237  1  0.50485299  0.87270688  0.40850940  1
  O  O238  1  0.49733594  0.87488918  0.66592807  1
  O  O239  1  0.50413246  0.87627250  0.91778245  1
  O  O240  1  0.75080741  0.12805650  0.16793442  1
  O  O241  1  0.75232063  0.12297243  0.41638592  1
  O  O242  1  0.74869405  0.11812148  0.65820001  1
  O  O243  1  0.74472441  0.11907746  0.91391901  1
  O  O244  1  0.74307168  0.37118399  0.16577177  1
  O  O245  1  0.75968148  0.38016231  0.41538995  1
  O  O246  1  0.75138062  0.37685776  0.65731635  1
  O  O247  1  0.75624610  0.37568643  0.90855859  1
  O  O248  1  0.74608556  0.62218383  0.16298794  1
  O  O249  1  0.75898531  0.62622496  0.41012957  1
  O  O250  1  0.74815473  0.63198457  0.66302437  1
  O  O251  1  0.75642648  0.62828627  0.91273661  1
  O  O252  1  0.74050330  0.87992752  0.16692460  1
  O  O253  1  0.74559269  0.86985869  0.40638754  1
  O  O254  1  0.74543899  0.87365369  0.65965368  1
  O  O255  1  0.74755636  0.87601867  0.91790729  1
  O  O256  1  0.12129854  0.13249875  0.04534055  1
  O  O257  1  0.12292937  0.12714623  0.29738832  1
  O  O258  1  0.13169776  0.11989370  0.55053449  1
  O  O259  1  0.12116650  0.11879364  0.79858401  1
  O  O260  1  0.11955516  0.36588816  0.04460782  1
  O  O261  1  0.12343347  0.37531722  0.29722098  1
  O  O262  1  0.12950738  0.37141350  0.54492748  1
  O  O263  1  0.12731478  0.38213126  0.77822381  1
  O  O264  1  0.12632560  0.62407482  0.02633023  1
  O  O265  1  0.13042290  0.61779581  0.27952719  1
  O  O266  1  0.13095744  0.63188225  0.55255470  1
  O  O267  1  0.12594349  0.63725554  0.79808845  1
  O  O268  1  0.12164429  0.88238157  0.03107629  1
  O  O269  1  0.12560260  0.87520901  0.29074972  1
  O  O270  1  0.12661439  0.87315057  0.55029616  1
  O  O271  1  0.12438216  0.87709299  0.81011565  1
  O  O272  1  0.37961557  0.12816343  0.03132533  1
  O  O273  1  0.37142881  0.12348062  0.28247622  1
  O  O274  1  0.36814198  0.11974624  0.54888455  1
  O  O275  1  0.37092614  0.11734607  0.79182735  1
  O  O276  1  0.37583442  0.36513838  0.03939389  1
  O  O277  1  0.37140395  0.36943196  0.28004994  1
  O  O278  1  0.36647476  0.38017586  0.55154361  1
  O  O279  1  0.37392818  0.37115812  0.78266407  1
  O  O280  1  0.37890727  0.62162189  0.04349110  1
  O  O281  1  0.37240941  0.62203731  0.29389409  1
  O  O282  1  0.36709143  0.62997898  0.54919142  1
  O  O283  1  0.37415456  0.63149372  0.80008905  1
  O  O284  1  0.38494274  0.87588238  0.03859380  1
  O  O285  1  0.37450674  0.88018541  0.27809780  1
  O  O286  1  0.37357391  0.87304311  0.54969270  1
  O  O287  1  0.37545660  0.87427022  0.80617858  1
  O  O288  1  0.62926278  0.12790114  0.05234635  1
  O  O289  1  0.63504850  0.12571734  0.28790146  1
  O  O290  1  0.62492800  0.11970638  0.52930204  1
  O  O291  1  0.62701667  0.11780066  0.79564227  1
  O  O292  1  0.62942370  0.36815249  0.04757201  1
  O  O293  1  0.62723575  0.38278010  0.28992967  1
  O  O294  1  0.62367198  0.38149301  0.53162226  1
  O  O295  1  0.61867964  0.37607509  0.77822007  1
  O  O296  1  0.62917501  0.61973005  0.02933053  1
  O  O297  1  0.61659961  0.62115108  0.28663239  1
  O  O298  1  0.62330487  0.63628144  0.53270301  1
  O  O299  1  0.61948650  0.63487264  0.79212045  1
  O  O300  1  0.62664950  0.88060178  0.04832780  1
  O  O301  1  0.62433237  0.87171433  0.29254034  1
  O  O302  1  0.62412827  0.87320625  0.54805274  1
  O  O303  1  0.62514467  0.87856981  0.80187646  1
  O  O304  1  0.87085689  0.13329859  0.05037634  1
  O  O305  1  0.88148402  0.12345966  0.29362404  1
  O  O306  1  0.88054761  0.11384820  0.53068647  1
  O  O307  1  0.87712169  0.11356830  0.78476029  1
  O  O308  1  0.87304546  0.36380417  0.03584296  1
  O  O309  1  0.87797629  0.37665072  0.30444333  1
  O  O310  1  0.88734488  0.38210417  0.53110831  1
  O  O311  1  0.87635853  0.37425628  0.79413506  1
  O  O312  1  0.86823086  0.62147595  0.03033984  1
  O  O313  1  0.87903692  0.62054439  0.29680978  1
  O  O314  1  0.88083695  0.63441329  0.53600154  1
  O  O315  1  0.87779014  0.63165578  0.80095630  1
  O  O316  1  0.86933901  0.87977536  0.04112165  1
  O  O317  1  0.87848326  0.87674886  0.27746474  1
  O  O318  1  0.88092698  0.86808638  0.54713272  1
  O  O319  1  0.87356771  0.87318277  0.80213891  1
