# generated using pymatgen
data_VFe(PbO3)2
_symmetry_space_group_name_H-M   'P 1'
_cell_length_a   15.38565841
_cell_length_b   15.37691489
_cell_length_c   18.54204048
_cell_angle_alpha   89.98551389
_cell_angle_beta   90.05018052
_cell_angle_gamma   89.99474050
_symmetry_Int_Tables_number   1
_chemical_formula_structural   VFe(PbO3)2
_chemical_formula_sum   'V32 Fe32 Pb64 O192'
_cell_volume   4386.74751866
_cell_formula_units_Z   32
loop_
 _symmetry_equiv_pos_site_id
 _symmetry_equiv_pos_as_xyz
  1  'x, y, z'
loop_
 _atom_site_type_symbol
 _atom_site_label
 _atom_site_symmetry_multiplicity
 _atom_site_fract_x
 _atom_site_fract_y
 _atom_site_fract_z
 _atom_site_occupancy
  V  V0  1  0.87304031  0.87766118  0.14106034  1
  V  V1  1  0.87367455  0.37763381  0.64352768  1
  V  V2  1  0.12874778  0.37533591  0.63991388  1
  V  V3  1  0.37427094  0.37180326  0.64244667  1
  V  V4  1  0.37501242  0.87842756  0.38613215  1
  V  V5  1  0.12862784  0.87191600  0.89238679  1
  V  V6  1  0.37606735  0.12310243  0.64201296  1
  V  V7  1  0.11811420  0.62628136  0.14031198  1
  V  V8  1  0.37643251  0.62232564  0.63996134  1
  V  V9  1  0.12692859  0.62376998  0.63688287  1
  V  V10  1  0.63161881  0.62072105  0.13818741  1
  V  V11  1  0.63175438  0.87031772  0.88967830  1
  V  V12  1  0.62276134  0.87489669  0.63896044  1
  V  V13  1  0.62541590  0.62356919  0.64266419  1
  V  V14  1  0.12471780  0.37616802  0.88939300  1
  V  V15  1  0.87539092  0.12892715  0.13718606  1
  V  V16  1  0.37837187  0.87347512  0.63835309  1
  V  V17  1  0.87657566  0.62518468  0.39196051  1
  V  V18  1  0.62442758  0.87378024  0.13924167  1
  V  V19  1  0.12749039  0.62403153  0.38601671  1
  V  V20  1  0.12659178  0.62592885  0.89233071  1
  V  V21  1  0.87811489  0.87204690  0.63744176  1
  V  V22  1  0.37555701  0.37742805  0.89568737  1
  V  V23  1  0.87860594  0.87485599  0.88411197  1
  V  V24  1  0.37468036  0.12594627  0.38388529  1
  V  V25  1  0.38313111  0.87320778  0.89700068  1
  V  V26  1  0.87262360  0.12590682  0.39117337  1
  V  V27  1  0.87554218  0.62716135  0.88898694  1
  V  V28  1  0.12484238  0.12453076  0.39010520  1
  V  V29  1  0.62560000  0.62509612  0.38639087  1
  V  V30  1  0.87387507  0.37734604  0.13701396  1
  V  V31  1  0.12255082  0.37550188  0.13886542  1
  Fe  Fe32  1  0.12002452  0.87581317  0.13210422  1
  Fe  Fe33  1  0.87946173  0.37588981  0.87968369  1
  Fe  Fe34  1  0.11806611  0.12613190  0.13035423  1
  Fe  Fe35  1  0.12259800  0.87616371  0.39110218  1
  Fe  Fe36  1  0.62139284  0.37422539  0.64547709  1
  Fe  Fe37  1  0.37282892  0.12460907  0.89723180  1
  Fe  Fe38  1  0.62280406  0.12419813  0.38271446  1
  Fe  Fe39  1  0.13283053  0.87283641  0.63259876  1
  Fe  Fe40  1  0.37293740  0.62630455  0.88906533  1
  Fe  Fe41  1  0.62794829  0.37465539  0.12778708  1
  Fe  Fe42  1  0.12528175  0.12328671  0.88659680  1
  Fe  Fe43  1  0.62882773  0.12435865  0.13275469  1
  Fe  Fe44  1  0.37367734  0.87570496  0.13019989  1
  Fe  Fe45  1  0.62228489  0.62882691  0.88586703  1
  Fe  Fe46  1  0.62283295  0.12404816  0.64271364  1
  Fe  Fe47  1  0.37316034  0.12472130  0.12651003  1
  Fe  Fe48  1  0.12898518  0.12512078  0.64064872  1
  Fe  Fe49  1  0.12195920  0.37312949  0.38556746  1
  Fe  Fe50  1  0.37662483  0.62560726  0.37578953  1
  Fe  Fe51  1  0.37649636  0.37525288  0.12976721  1
  Fe  Fe52  1  0.62418216  0.12229425  0.88419556  1
  Fe  Fe53  1  0.37348081  0.62695733  0.14657943  1
  Fe  Fe54  1  0.62764173  0.37275003  0.38600490  1
  Fe  Fe55  1  0.87620558  0.37206558  0.38905820  1
  Fe  Fe56  1  0.87574054  0.87835757  0.38913242  1
  Fe  Fe57  1  0.87658108  0.12241898  0.87495483  1
  Fe  Fe58  1  0.37499371  0.37359682  0.38081701  1
  Fe  Fe59  1  0.62680499  0.37897074  0.88395744  1
  Fe  Fe60  1  0.87403099  0.62694411  0.13843019  1
  Fe  Fe61  1  0.62779769  0.87649255  0.38572633  1
  Fe  Fe62  1  0.87665374  0.12430132  0.64425848  1
  Fe  Fe63  1  0.87522990  0.62498091  0.63469126  1
  Pb  Pb64  1  0.00601677  -0.00029242  -0.00208520  1
  Pb  Pb65  1  0.00085657  -0.00657145  0.25111993  1
  Pb  Pb66  1  0.00020654  0.00860085  0.50687465  1
  Pb  Pb67  1  0.01008495  0.00844671  0.74804813  1
  Pb  Pb68  1  -0.00160948  0.24146253  -0.00894902  1
  Pb  Pb69  1  -0.00339844  0.25795067  0.25298761  1
  Pb  Pb70  1  -0.00077019  0.24119477  0.50704021  1
  Pb  Pb71  1  -0.00197846  0.24861651  0.74960835  1
  Pb  Pb72  1  -0.00579809  0.50765688  0.00133494  1
  Pb  Pb73  1  -0.00022860  0.49124623  0.25432048  1
  Pb  Pb74  1  -0.00435976  0.49979924  0.50018293  1
  Pb  Pb75  1  -0.00099193  0.49600785  0.74959996  1
  Pb  Pb76  1  0.00194911  0.75463208  0.00387930  1
  Pb  Pb77  1  -0.00261685  0.76163021  0.25630084  1
  Pb  Pb78  1  0.00269162  0.75498175  0.50038727  1
  Pb  Pb79  1  0.00512293  0.74978564  0.74490653  1
  Pb  Pb80  1  0.24727682  0.00766507  0.00401097  1
  Pb  Pb81  1  0.24474665  0.00021940  0.23570972  1
  Pb  Pb82  1  0.24362919  -0.00027443  0.50220995  1
  Pb  Pb83  1  0.25074945  0.00583135  0.75570544  1
  Pb  Pb84  1  0.25499469  0.24822098  0.00356634  1
  Pb  Pb85  1  0.25279951  0.25004034  0.24051696  1
  Pb  Pb86  1  0.24720040  0.24626541  0.49739032  1
  Pb  Pb87  1  0.25376992  0.23832400  0.75975944  1
  Pb  Pb88  1  0.25914341  0.50200984  0.00962468  1
  Pb  Pb89  1  0.25681913  0.49540782  0.24970893  1
  Pb  Pb90  1  0.25537371  0.49659469  0.49085354  1
  Pb  Pb91  1  0.25784218  0.50311252  0.75280414  1
  Pb  Pb92  1  0.25779131  0.75107587  0.01066776  1
  Pb  Pb93  1  0.24536987  0.75743774  0.24495704  1
  Pb  Pb94  1  0.24892306  0.75354680  0.49675825  1
  Pb  Pb95  1  0.25895140  0.74600237  0.75067013  1
  Pb  Pb96  1  0.50107296  0.00976955  0.00373448  1
  Pb  Pb97  1  0.50224048  0.00858437  0.24167516  1
  Pb  Pb98  1  0.50706597  0.00688190  0.49899378  1
  Pb  Pb99  1  0.49829815  0.00804804  0.75728949  1
  Pb  Pb100  1  0.51532199  0.24743516  -0.00082381  1
  Pb  Pb101  1  0.50128898  0.25306949  0.23599040  1
  Pb  Pb102  1  0.51612442  0.25486362  0.50464806  1
  Pb  Pb103  1  0.50846173  0.24746914  0.75860449  1
  Pb  Pb104  1  0.50029122  0.49909443  -0.00032866  1
  Pb  Pb105  1  0.49175847  0.48987243  0.24645651  1
  Pb  Pb106  1  0.50134550  0.49277236  0.49340520  1
  Pb  Pb107  1  0.50751659  0.50152009  0.75763608  1
  Pb  Pb108  1  0.48999729  0.74320404  0.00701450  1
  Pb  Pb109  1  0.49820194  0.74894731  0.24684140  1
  Pb  Pb110  1  0.49761328  0.75011542  0.49260747  1
  Pb  Pb111  1  0.49936172  0.74141246  0.75436976  1
  Pb  Pb112  1  0.74855362  0.00903364  -0.00488025  1
  Pb  Pb113  1  0.74267151  0.00046343  0.25438416  1
  Pb  Pb114  1  0.74810733  0.00667534  0.50104791  1
  Pb  Pb115  1  0.75041036  0.00532992  0.74778827  1
  Pb  Pb116  1  0.74892208  0.25140358  -0.01465718  1
  Pb  Pb117  1  0.73809125  0.25054659  0.25025816  1
  Pb  Pb118  1  0.74342610  0.24996346  0.50365872  1
  Pb  Pb119  1  0.74832537  0.24348643  0.75082519  1
  Pb  Pb120  1  0.74444200  0.49476418  -0.00583355  1
  Pb  Pb121  1  0.75101578  0.48682511  0.25343355  1
  Pb  Pb122  1  0.75044708  0.49833988  0.50160459  1
  Pb  Pb123  1  0.74986679  0.49144018  0.75576409  1
  Pb  Pb124  1  0.75822755  0.74322803  0.00300502  1
  Pb  Pb125  1  0.75105865  0.76033376  0.25450263  1
  Pb  Pb126  1  0.75370624  0.74918040  0.49986034  1
  Pb  Pb127  1  0.74462345  0.74790691  0.74896022  1
  O  O128  1  0.11707973  0.00116664  0.16117907  1
  O  O129  1  0.12653542  0.00608929  0.41572319  1
  O  O130  1  0.12966523  -0.00420426  0.66345936  1
  O  O131  1  0.12265950  -0.01023105  0.90951884  1
  O  O132  1  0.11661673  0.25697138  0.16050871  1
  O  O133  1  0.12640037  0.24234113  0.41534916  1
  O  O134  1  0.13000316  0.25782762  0.66695455  1
  O  O135  1  0.12403387  0.25955534  0.90547051  1
  O  O136  1  0.11749952  0.49670898  0.16342914  1
  O  O137  1  0.12290270  0.50832589  0.41297485  1
  O  O138  1  0.12953443  0.50013725  0.66700427  1
  O  O139  1  0.12112409  0.50901158  0.91683677  1
  O  O140  1  0.11757444  0.74413427  0.16079539  1
  O  O141  1  0.12364522  0.74141514  0.41448439  1
  O  O142  1  0.12951172  0.74600280  0.66479718  1
  O  O143  1  0.12002260  0.74584001  0.91829638  1
  O  O144  1  0.37361380  -0.00041850  0.15783005  1
  O  O145  1  0.37071932  -0.00131351  0.41314325  1
  O  O146  1  0.37704398  0.00355151  0.66208523  1
  O  O147  1  0.36955828  -0.01189696  0.91693758  1
  O  O148  1  0.37228133  0.25038205  0.15767740  1
  O  O149  1  0.36884066  0.24003618  0.40572856  1
  O  O150  1  0.37266633  0.25198523  0.66583919  1
  O  O151  1  0.36634198  0.26014670  0.91335823  1
  O  O152  1  0.37284564  0.50010935  0.16199855  1
  O  O153  1  0.37491175  0.50269406  0.41058600  1
  O  O154  1  0.37468577  0.49885376  0.66631373  1
  O  O155  1  0.36803196  0.49849318  0.91826032  1
  O  O156  1  0.37649539  0.75316135  0.16811768  1
  O  O157  1  0.37637323  0.75465371  0.40754219  1
  O  O158  1  0.37711984  0.74722339  0.66489820  1
  O  O159  1  0.36992075  0.75412665  0.91905967  1
  O  O160  1  0.63175265  -0.00614993  0.16168254  1
  O  O161  1  0.62460349  0.00155902  0.41829179  1
  O  O162  1  0.61947589  -0.00670029  0.66546621  1
  O  O163  1  0.62432131  -0.01320245  0.91404836  1
  O  O164  1  0.63143303  0.24976571  0.15807981  1
  O  O165  1  0.62533122  0.24621945  0.41634259  1
  O  O166  1  0.62133934  0.24996583  0.67116237  1
  O  O167  1  0.62311146  0.25135775  0.90506729  1
  O  O168  1  0.63322184  0.50505861  0.15520734  1
  O  O169  1  0.62721161  0.50760251  0.41331345  1
  O  O170  1  0.62152667  0.50631714  0.66435310  1
  O  O171  1  0.62466601  0.50455730  0.91388962  1
  O  O172  1  0.63087526  0.75526187  0.16375897  1
  O  O173  1  0.62572899  0.74449277  0.41378447  1
  O  O174  1  0.62124222  0.74805738  0.66696969  1
  O  O175  1  0.62583055  0.75623541  0.91869259  1
  O  O176  1  0.87544275  -0.00146763  0.16199353  1
  O  O177  1  0.87907025  0.00868241  0.41743404  1
  O  O178  1  0.87438696  -0.01341342  0.66240817  1
  O  O179  1  0.87630820  -0.00736578  0.90813426  1
  O  O180  1  0.87557467  0.24980429  0.15850097  1
  O  O181  1  0.87983033  0.24154762  0.41775871  1
  O  O182  1  0.87785683  0.25926228  0.66387326  1
  O  O183  1  0.87895305  0.24982236  0.90341578  1
  O  O184  1  0.87501866  0.49393368  0.16078664  1
  O  O185  1  0.87348644  0.50634119  0.41667749  1
  O  O186  1  0.87644453  0.49884374  0.66607099  1
  O  O187  1  0.87883345  0.50992620  0.90927116  1
  O  O188  1  0.87336619  0.75725975  0.16451363  1
  O  O189  1  0.87386436  0.74284454  0.41508072  1
  O  O190  1  0.87234473  0.75326547  0.66524921  1
  O  O191  1  0.87649182  0.74985686  0.91573840  1
  O  O192  1  -0.01022281  0.12587847  0.16556194  1
  O  O193  1  0.00450437  0.12447785  0.41478833  1
  O  O194  1  0.00373843  0.12528781  0.66622267  1
  O  O195  1  0.00003842  0.12251563  0.90805780  1
  O  O196  1  -0.00517445  0.37462508  0.16525026  1
  O  O197  1  -0.00003733  0.37576422  0.42181588  1
  O  O198  1  0.00271288  0.37899896  0.66415378  1
  O  O199  1  0.00728341  0.38311858  0.91387967  1
  O  O200  1  0.00200856  0.62180508  0.16759835  1
  O  O201  1  -0.00198658  0.62490215  0.41182164  1
  O  O202  1  0.00468047  0.62581388  0.66197244  1
  O  O203  1  -0.00118929  0.62893937  0.91546742  1
  O  O204  1  -0.00756829  0.87474485  0.16481345  1
  O  O205  1  -0.00115816  0.87421247  0.42180325  1
  O  O206  1  -0.00403152  0.86848449  0.65546225  1
  O  O207  1  0.00065039  0.86916771  0.91283923  1
  O  O208  1  0.24448511  0.12776519  0.15610339  1
  O  O209  1  0.24957057  0.12181179  0.41360319  1
  O  O210  1  0.25862634  0.12569082  0.66835170  1
  O  O211  1  0.24620906  0.12341811  0.91827110  1
  O  O212  1  0.23962045  0.37621027  0.15652332  1
  O  O213  1  0.24830544  0.37459705  0.41395885  1
  O  O214  1  0.25636905  0.37811421  0.66872578  1
  O  O215  1  0.23981946  0.38315015  0.91861919  1
  O  O216  1  0.23542925  0.62353668  0.16487705  1
  O  O217  1  0.24544212  0.62617495  0.40557747  1
  O  O218  1  0.25215372  0.62434977  0.66640339  1
  O  O219  1  0.24172054  0.62821488  0.91605549  1
  O  O220  1  0.24568646  0.87189424  0.15782198  1
  O  O221  1  0.25612387  0.87333821  0.41308505  1
  O  O222  1  0.26066913  0.87305989  0.66454517  1
  O  O223  1  0.24231634  0.86794557  0.91319302  1
  O  O224  1  0.50135887  0.12312048  0.15593353  1
  O  O225  1  0.48983104  0.11917482  0.40535303  1
  O  O226  1  0.49084594  0.12690119  0.66954385  1
  O  O227  1  0.49995346  0.12018879  0.91395904  1
  O  O228  1  0.50315728  0.37688928  0.15410093  1
  O  O229  1  0.50018708  0.37502631  0.41230490  1
  O  O230  1  0.48890612  0.37576749  0.66983790  1
  O  O231  1  0.49236660  0.38005926  0.90895833  1
  O  O232  1  0.51503048  0.62923913  0.16255152  1
  O  O233  1  0.50615530  0.62605068  0.40819783  1
  O  O234  1  0.50117175  0.62553954  0.66706832  1
  O  O235  1  0.49711822  0.62822253  0.91667482  1
  O  O236  1  0.50788577  0.87548863  0.15798556  1
  O  O237  1  0.49355474  0.87612792  0.41227911  1
  O  O238  1  0.49746260  0.87277104  0.67013941  1
  O  O239  1  0.49981465  0.87072436  0.91191107  1
  O  O240  1  0.76044539  0.12226146  0.16231899  1
  O  O241  1  0.75598865  0.12462004  0.41179253  1
  O  O242  1  0.74950824  0.12313949  0.66400636  1
  O  O243  1  0.75109395  0.11971058  0.90606146  1
  O  O244  1  0.75757244  0.37455369  0.15955535  1
  O  O245  1  0.75253548  0.37355238  0.42151651  1
  O  O246  1  0.75514519  0.37886450  0.66282595  1
  O  O247  1  0.75449694  0.37960205  0.90674482  1
  O  O248  1  0.74630831  0.62973444  0.16847367  1
  O  O249  1  0.74861467  0.62543443  0.41390582  1
  O  O250  1  0.74328216  0.62669174  0.66272860  1
  O  O251  1  0.75732413  0.63024787  0.90979305  1
  O  O252  1  0.75278833  0.87603234  0.16517158  1
  O  O253  1  0.75168145  0.87602219  0.42012039  1
  O  O254  1  0.74694673  0.87076292  0.66241122  1
  O  O255  1  0.75026523  0.87141843  0.91054348  1
  O  O256  1  0.11324283  0.12208256  0.02989565  1
  O  O257  1  0.12426961  0.12586392  0.29964363  1
  O  O258  1  0.13043332  0.12644019  0.54008309  1
  O  O259  1  0.13432568  0.11881991  0.78456458  1
  O  O260  1  0.11687112  0.37780246  0.04843977  1
  O  O261  1  0.11358566  0.37363225  0.28585729  1
  O  O262  1  0.13053809  0.37585642  0.54909936  1
  O  O263  1  0.12710885  0.38377985  0.79863419  1
  O  O264  1  0.11691234  0.62327992  0.04894338  1
  O  O265  1  0.12261230  0.62422874  0.29559775  1
  O  O266  1  0.12973151  0.62336885  0.54603973  1
  O  O267  1  0.12510626  0.62756924  0.80138996  1
  O  O268  1  0.11260617  0.87430294  0.03232291  1
  O  O269  1  0.11521287  0.87257105  0.29087322  1
  O  O270  1  0.13714228  0.86866714  0.53220764  1
  O  O271  1  0.12554513  0.86689602  0.80117949  1
  O  O272  1  0.37097297  0.12351707  0.02442873  1
  O  O273  1  0.37012639  0.12192294  0.29317447  1
  O  O274  1  0.37589235  0.12669052  0.55149150  1
  O  O275  1  0.36841064  0.12128836  0.79489952  1
  O  O276  1  0.36703445  0.38020357  0.02938397  1
  O  O277  1  0.37413031  0.37929442  0.28058395  1
  O  O278  1  0.37457101  0.37315712  0.55155425  1
  O  O279  1  0.36675080  0.38134588  0.80464055  1
  O  O280  1  0.37016594  0.63350843  0.04408912  1
  O  O281  1  0.37851933  0.62161631  0.27571953  1
  O  O282  1  0.37693179  0.62362962  0.54920108  1
  O  O283  1  0.36983402  0.62885142  0.78890922  1
  O  O284  1  0.37512376  0.86497032  0.03033372  1
  O  O285  1  0.37485520  0.88043854  0.29572827  1
  O  O286  1  0.38000199  0.87314170  0.54728740  1
  O  O287  1  0.37480947  0.87180506  0.80589122  1
  O  O288  1  0.62769621  0.11999115  0.03127939  1
  O  O289  1  0.63005971  0.12053914  0.28246724  1
  O  O290  1  0.61473742  0.12604775  0.54156335  1
  O  O291  1  0.61828033  0.11760734  0.78235855  1
  O  O292  1  0.62819600  0.37521769  0.02707908  1
  O  O293  1  0.63779760  0.37466215  0.28573455  1
  O  O294  1  0.61676070  0.36810949  0.54423098  1
  O  O295  1  0.62254862  0.38565223  0.78128257  1
  O  O296  1  0.63461570  0.62843847  0.04676950  1
  O  O297  1  0.62863900  0.62488868  0.29615671  1
  O  O298  1  0.62136054  0.62625901  0.55196816  1
  O  O299  1  0.62028789  0.63000699  0.78584426  1
  O  O300  1  0.62959559  0.87354954  0.04871149  1
  O  O301  1  0.63359485  0.87765585  0.28632436  1
  O  O302  1  0.61838337  0.87309358  0.54806046  1
  O  O303  1  0.62856457  0.86848558  0.79869035  1
  O  O304  1  0.87628635  0.12626718  0.04601309  1
  O  O305  1  0.87567516  0.12676305  0.30045883  1
  O  O306  1  0.88386463  0.12415739  0.54312511  1
  O  O307  1  0.87600233  0.12139769  0.77360924  1
  O  O308  1  0.87822620  0.37599937  0.04625146  1
  O  O309  1  0.87689214  0.37633838  0.28881044  1
  O  O310  1  0.87705051  0.38046552  0.55232083  1
  O  O311  1  0.88121013  0.38365484  0.78013158  1
  O  O312  1  0.87280830  0.62834741  0.03920775  1
  O  O313  1  0.87399372  0.62386553  0.30124510  1
  O  O314  1  0.87086463  0.62235141  0.53610524  1
  O  O315  1  0.87892932  0.63074201  0.79810232  1
  O  O316  1  0.87166319  0.87674256  0.05010529  1
  O  O317  1  0.87977245  0.87331772  0.28907325  1
  O  O318  1  0.87260464  0.87011429  0.54635475  1
  O  O319  1  0.87893216  0.87044951  0.79339124  1
