# generated using pymatgen
data_VFe(PbO3)2
_symmetry_space_group_name_H-M   'P 1'
_cell_length_a   15.37889222
_cell_length_b   15.37139045
_cell_length_c   18.53954330
_cell_angle_alpha   89.94736503
_cell_angle_beta   90.02903755
_cell_angle_gamma   90.01255936
_symmetry_Int_Tables_number   1
_chemical_formula_structural   VFe(PbO3)2
_chemical_formula_sum   'V32 Fe32 Pb64 O192'
_cell_volume   4382.65202381
_cell_formula_units_Z   32
loop_
 _symmetry_equiv_pos_site_id
 _symmetry_equiv_pos_as_xyz
  1  'x, y, z'
loop_
 _atom_site_type_symbol
 _atom_site_label
 _atom_site_symmetry_multiplicity
 _atom_site_fract_x
 _atom_site_fract_y
 _atom_site_fract_z
 _atom_site_occupancy
  V  V0  1  0.12654213  0.12234266  0.13471408  1
  V  V1  1  0.62376104  0.87429674  0.89011872  1
  V  V2  1  0.62088841  0.62621563  0.14111375  1
  V  V3  1  0.37631247  0.12308351  0.13805206  1
  V  V4  1  0.87809336  0.12202092  0.89387182  1
  V  V5  1  0.37813274  0.87390067  0.88768888  1
  V  V6  1  0.87586734  0.37491487  0.38503943  1
  V  V7  1  0.12445081  0.62478238  0.64230288  1
  V  V8  1  0.62942477  0.12723483  0.63688200  1
  V  V9  1  0.87125980  0.62620687  0.14150993  1
  V  V10  1  0.37408263  0.37524618  0.38767035  1
  V  V11  1  0.62745380  0.62603079  0.63680031  1
  V  V12  1  0.37439856  0.37726513  0.63960510  1
  V  V13  1  0.37463887  0.12571752  0.38768474  1
  V  V14  1  0.87670439  0.12328879  0.38711559  1
  V  V15  1  0.87996702  0.62702288  0.88878605  1
  V  V16  1  0.87631371  0.87621160  0.64433829  1
  V  V17  1  0.62297422  0.12500603  0.89271179  1
  V  V18  1  0.12108266  0.62759255  0.13712265  1
  V  V19  1  0.12237112  0.12556048  0.64273673  1
  V  V20  1  0.36853781  0.62532616  0.14300181  1
  V  V21  1  0.37832338  0.37085394  0.88845919  1
  V  V22  1  0.87501550  0.62282896  0.64146778  1
  V  V23  1  0.12465480  0.37465237  0.64356817  1
  V  V24  1  0.87564432  0.87276889  0.38661867  1
  V  V25  1  0.12174055  0.62219920  0.38833881  1
  V  V26  1  0.62772482  0.62348832  0.38744536  1
  V  V27  1  0.87524828  0.87648595  0.13850702  1
  V  V28  1  0.62350748  0.62695905  0.89323966  1
  V  V29  1  0.62686499  0.87557665  0.63494210  1
  V  V30  1  0.62298155  0.87146401  0.14661548  1
  V  V31  1  0.37763090  0.62316642  0.88862330  1
  Fe  Fe32  1  0.12728601  0.37686564  0.13499498  1
  Fe  Fe33  1  0.87604160  0.37435969  0.12643040  1
  Fe  Fe34  1  0.62381257  0.12240483  0.13866561  1
  Fe  Fe35  1  0.37498616  0.87534288  0.38505462  1
  Fe  Fe36  1  0.12398296  0.87365355  0.88026626  1
  Fe  Fe37  1  0.12353842  0.12851385  0.38528618  1
  Fe  Fe38  1  0.37622289  0.62164338  0.62945167  1
  Fe  Fe39  1  0.62629341  0.37558654  0.63300438  1
  Fe  Fe40  1  0.12720592  0.37728115  0.88405921  1
  Fe  Fe41  1  0.62274998  0.37710768  0.89460283  1
  Fe  Fe42  1  0.13037717  0.12386536  0.88264335  1
  Fe  Fe43  1  0.37379466  0.37147452  0.13478450  1
  Fe  Fe44  1  0.62422396  0.37324143  0.38887229  1
  Fe  Fe45  1  0.37428147  0.62372331  0.39112864  1
  Fe  Fe46  1  0.87492932  0.37511084  0.64011348  1
  Fe  Fe47  1  0.37550525  0.12667169  0.63962772  1
  Fe  Fe48  1  0.37534154  0.87404836  0.62976725  1
  Fe  Fe49  1  0.87149300  0.37586787  0.89632664  1
  Fe  Fe50  1  0.37376660  0.87504401  0.14454700  1
  Fe  Fe51  1  0.87600653  0.12344810  0.12867866  1
  Fe  Fe52  1  0.12610197  0.37295173  0.38414760  1
  Fe  Fe53  1  0.62172564  0.37609308  0.13131253  1
  Fe  Fe54  1  0.62722555  0.87746549  0.38367576  1
  Fe  Fe55  1  0.87454556  0.12614643  0.63715563  1
  Fe  Fe56  1  0.12225360  0.87770436  0.38460659  1
  Fe  Fe57  1  0.37831154  0.12251359  0.87976470  1
  Fe  Fe58  1  0.62568124  0.12557481  0.38113228  1
  Fe  Fe59  1  0.12479128  0.87157103  0.14101058  1
  Fe  Fe60  1  0.86936119  0.87427878  0.88655799  1
  Fe  Fe61  1  0.87618841  0.62355693  0.38116977  1
  Fe  Fe62  1  0.13160695  0.62618111  0.88253435  1
  Fe  Fe63  1  0.12405776  0.87529532  0.63927869  1
  Pb  Pb64  1  0.00639493  -0.00688093  -0.00420634  1
  Pb  Pb65  1  0.01321501  0.00329530  0.25215819  1
  Pb  Pb66  1  0.00747971  -0.00168300  0.50225842  1
  Pb  Pb67  1  0.00856857  0.00039858  0.75555149  1
  Pb  Pb68  1  0.00315075  0.25483506  -0.00509024  1
  Pb  Pb69  1  0.00289060  0.25132176  0.24004290  1
  Pb  Pb70  1  -0.00826979  0.24980099  0.50102348  1
  Pb  Pb71  1  -0.00341251  0.25638927  0.75403877  1
  Pb  Pb72  1  0.00817065  0.48911612  -0.00155856  1
  Pb  Pb73  1  -0.00325422  0.49605230  0.24472653  1
  Pb  Pb74  1  -0.00629394  0.49263955  0.49873997  1
  Pb  Pb75  1  0.00587992  0.49808753  0.75710722  1
  Pb  Pb76  1  0.01074428  0.75679570  -0.00280163  1
  Pb  Pb77  1  -0.00294056  0.74827340  0.25185204  1
  Pb  Pb78  1  0.00816039  0.75346957  0.50143817  1
  Pb  Pb79  1  0.00433083  0.75319645  0.75499770  1
  Pb  Pb80  1  0.24880982  -0.00250072  -0.00501551  1
  Pb  Pb81  1  0.24747557  -0.00679313  0.25074729  1
  Pb  Pb82  1  0.24948191  -0.00520234  0.49775092  1
  Pb  Pb83  1  0.25097039  0.00023043  0.74538957  1
  Pb  Pb84  1  0.24984537  0.25140162  -0.00588281  1
  Pb  Pb85  1  0.24140753  0.24924150  0.24757716  1
  Pb  Pb86  1  0.25136816  0.24447409  0.50047855  1
  Pb  Pb87  1  0.24480099  0.24377713  0.75374200  1
  Pb  Pb88  1  0.24905541  0.49259093  0.00203485  1
  Pb  Pb89  1  0.24710796  0.49480252  0.25092778  1
  Pb  Pb90  1  0.25256116  0.50442030  0.49985379  1
  Pb  Pb91  1  0.24341527  0.50070179  0.75339479  1
  Pb  Pb92  1  0.25031059  0.76256454  0.00180839  1
  Pb  Pb93  1  0.25686378  0.75280759  0.25827986  1
  Pb  Pb94  1  0.25222444  0.75879692  0.49706653  1
  Pb  Pb95  1  0.24831411  0.75203095  0.74341182  1
  Pb  Pb96  1  0.50161593  0.00320836  0.00431923  1
  Pb  Pb97  1  0.50684541  -0.00227621  0.25497089  1
  Pb  Pb98  1  0.49558303  -0.00196044  0.49616918  1
  Pb  Pb99  1  0.49566358  0.00190824  0.74422412  1
  Pb  Pb100  1  0.50910439  0.24874964  0.00593473  1
  Pb  Pb101  1  0.51176475  0.25378946  0.24837903  1
  Pb  Pb102  1  0.49908755  0.24515011  0.49947205  1
  Pb  Pb103  1  0.50021521  0.24780105  0.74873473  1
  Pb  Pb104  1  0.49514754  0.49288328  0.00695269  1
  Pb  Pb105  1  0.50192678  0.49368059  0.25200568  1
  Pb  Pb106  1  0.50281876  0.50018299  0.49916260  1
  Pb  Pb107  1  0.50673552  0.49277296  0.75020863  1
  Pb  Pb108  1  0.48995140  0.75621401  0.00708053  1
  Pb  Pb109  1  0.48919071  0.74829809  0.26178251  1
  Pb  Pb110  1  0.49167982  0.75524672  0.49605117  1
  Pb  Pb111  1  0.49624455  0.74894207  0.74188181  1
  Pb  Pb112  1  0.74743306  0.00921049  0.00609374  1
  Pb  Pb113  1  0.74477452  0.00261112  0.25013556  1
  Pb  Pb114  1  0.75250392  0.00732311  0.49690874  1
  Pb  Pb115  1  0.75379627  -0.00403286  0.75214224  1
  Pb  Pb116  1  0.75413421  0.24859211  0.00469742  1
  Pb  Pb117  1  0.74824274  0.24848308  0.23715191  1
  Pb  Pb118  1  0.75165194  0.25315808  0.49829243  1
  Pb  Pb119  1  0.75536273  0.26006691  0.75483541  1
  Pb  Pb120  1  0.74831107  0.49334822  0.00306486  1
  Pb  Pb121  1  0.74759229  0.49047270  0.24566205  1
  Pb  Pb122  1  0.75217008  0.48899570  0.50214047  1
  Pb  Pb123  1  0.74892614  0.48479518  0.75910163  1
  Pb  Pb124  1  0.74757297  0.75064416  0.00263004  1
  Pb  Pb125  1  0.74981963  0.74828836  0.25367602  1
  Pb  Pb126  1  0.74942389  0.74602374  0.49564771  1
  Pb  Pb127  1  0.75555284  0.75119668  0.75234091  1
  O  O128  1  0.12413094  0.00308490  0.16090937  1
  O  O129  1  0.12098672  0.00412270  0.41738800  1
  O  O130  1  0.12292022  0.00602907  0.66225271  1
  O  O131  1  0.12615862  -0.00242627  0.91336117  1
  O  O132  1  0.12815361  0.24343711  0.15676393  1
  O  O133  1  0.12472390  0.25109484  0.41875213  1
  O  O134  1  0.12483735  0.24944808  0.66748269  1
  O  O135  1  0.12963314  0.25055267  0.91085483  1
  O  O136  1  0.12706384  0.51092130  0.16272336  1
  O  O137  1  0.12294165  0.50232879  0.41392937  1
  O  O138  1  0.12201967  0.50365531  0.66676866  1
  O  O139  1  0.12902560  0.50361719  0.91428591  1
  O  O140  1  0.12499485  0.74096677  0.16654743  1
  O  O141  1  0.12027986  0.74431743  0.41206450  1
  O  O142  1  0.12014629  0.74363157  0.66287715  1
  O  O143  1  0.12666491  0.74995998  0.91305177  1
  O  O144  1  0.37305305  0.00547357  0.16622000  1
  O  O145  1  0.37509980  0.00765594  0.40848871  1
  O  O146  1  0.37778863  -0.00057446  0.66167469  1
  O  O147  1  0.37974480  -0.00898311  0.90813485  1
  O  O148  1  0.37044215  0.24050535  0.16082380  1
  O  O149  1  0.37481001  0.25203867  0.41391160  1
  O  O150  1  0.37726246  0.25956121  0.66649893  1
  O  O151  1  0.37708448  0.25500289  0.90569069  1
  O  O152  1  0.37722374  0.50970762  0.16524709  1
  O  O153  1  0.37457536  0.49378148  0.41262283  1
  O  O154  1  0.37540126  0.49577635  0.66462237  1
  O  O155  1  0.37952761  0.50622615  0.90998365  1
  O  O156  1  0.37701416  0.74222223  0.17050036  1
  O  O157  1  0.37396661  0.74872881  0.41472664  1
  O  O158  1  0.37675919  0.74564667  0.66012451  1
  O  O159  1  0.37978729  0.75260189  0.91546186  1
  O  O160  1  0.62499176  -0.00876229  0.16468057  1
  O  O161  1  0.62912853  0.00286842  0.41526669  1
  O  O162  1  0.62746655  -0.00145350  0.66225515  1
  O  O163  1  0.62158688  -0.00098103  0.91732316  1
  O  O164  1  0.62183286  0.24996092  0.15873328  1
  O  O165  1  0.62676893  0.24835262  0.41346228  1
  O  O166  1  0.62585161  0.24459215  0.65717626  1
  O  O167  1  0.62031112  0.24342366  0.91345963  1
  O  O168  1  0.62232908  0.50810101  0.16196670  1
  O  O169  1  0.62755989  0.50515790  0.41374002  1
  O  O170  1  0.63011051  0.50993266  0.66156506  1
  O  O171  1  0.61786037  0.51116840  0.91749425  1
  O  O172  1  0.62803027  0.74878268  0.16923481  1
  O  O173  1  0.63110887  0.74481478  0.41135074  1
  O  O174  1  0.62889258  0.74722613  0.66346351  1
  O  O175  1  0.62038127  0.74876914  0.91956415  1
  O  O176  1  0.87469635  -0.00861857  0.15808526  1
  O  O177  1  0.87631204  0.00197448  0.40871691  1
  O  O178  1  0.87219883  -0.00485425  0.66569076  1
  O  O179  1  0.86877932  0.00381385  0.91543454  1
  O  O180  1  0.87631930  0.24887588  0.15709639  1
  O  O181  1  0.87492458  0.25271908  0.40940607  1
  O  O182  1  0.87428610  0.24903093  0.67136248  1
  O  O183  1  0.86904650  0.24088327  0.91433224  1
  O  O184  1  0.87508414  0.50442369  0.16043309  1
  O  O185  1  0.87673666  0.49447558  0.40974951  1
  O  O186  1  0.87441492  0.50872299  0.66456207  1
  O  O187  1  0.86803916  0.51366586  0.91687457  1
  O  O188  1  0.87184639  0.75130210  0.16894375  1
  O  O189  1  0.87615409  0.75508827  0.40921560  1
  O  O190  1  0.87496049  0.75019865  0.66791376  1
  O  O191  1  0.86708904  0.74197591  0.91672363  1
  O  O192  1  0.00718627  0.12352299  0.15540838  1
  O  O193  1  -0.00846092  0.12894899  0.41442347  1
  O  O194  1  0.00414628  0.12649647  0.66660332  1
  O  O195  1  -0.00420956  0.12317507  0.90879735  1
  O  O196  1  0.00154304  0.37810752  0.15850539  1
  O  O197  1  -0.00600479  0.37412753  0.41163081  1
  O  O198  1  0.00260414  0.37697971  0.66861987  1
  O  O199  1  -0.00047189  0.37661976  0.91047776  1
  O  O200  1  0.00217603  0.62658524  0.16036567  1
  O  O201  1  0.00316720  0.62293119  0.41463910  1
  O  O202  1  -0.00398552  0.62593864  0.66761816  1
  O  O203  1  -0.00540399  0.62754071  0.90384121  1
  O  O204  1  -0.00813898  0.86871645  0.16130050  1
  O  O205  1  -0.00818630  0.87713132  0.41572410  1
  O  O206  1  -0.00708888  0.87456914  0.66551289  1
  O  O207  1  -0.00435292  0.87347934  0.91153649  1
  O  O208  1  0.24767209  0.12107733  0.16133697  1
  O  O209  1  0.25622812  0.12806342  0.41349776  1
  O  O210  1  0.24443602  0.12808297  0.66318597  1
  O  O211  1  0.25658010  0.12213883  0.91330429  1
  O  O212  1  0.25141052  0.37822322  0.16676322  1
  O  O213  1  0.25703373  0.37440171  0.41465569  1
  O  O214  1  0.25333973  0.37700315  0.66522050  1
  O  O215  1  0.26036513  0.38077816  0.91054397  1
  O  O216  1  0.25086924  0.62656163  0.16129139  1
  O  O217  1  0.24004346  0.62336624  0.41461924  1
  O  O218  1  0.24321880  0.62310010  0.65795819  1
  O  O219  1  0.26252335  0.62974422  0.91089537  1
  O  O220  1  0.24862005  0.87208702  0.16868611  1
  O  O221  1  0.24766003  0.87692252  0.41076237  1
  O  O222  1  0.24966758  0.87288782  0.66039971  1
  O  O223  1  0.25901469  0.87205120  0.90699783  1
  O  O224  1  0.49207323  0.12162570  0.16218579  1
  O  O225  1  0.49366823  0.12836397  0.41172532  1
  O  O226  1  0.51058618  0.12435666  0.66365896  1
  O  O227  1  0.50253364  0.12155041  0.91609493  1
  O  O228  1  0.49698934  0.37752057  0.16579550  1
  O  O229  1  0.49195172  0.37477031  0.41402920  1
  O  O230  1  0.49776880  0.37861870  0.66221964  1
  O  O231  1  0.49316677  0.37913974  0.91661154  1
  O  O232  1  0.50413721  0.62934465  0.16409811  1
  O  O233  1  0.50971235  0.62444943  0.41191864  1
  O  O234  1  0.50903490  0.62494607  0.65744823  1
  O  O235  1  0.49614146  0.63023507  0.91935710  1
  O  O236  1  0.50595156  0.87058627  0.16569613  1
  O  O237  1  0.50205863  0.87579245  0.41126188  1
  O  O238  1  0.50637952  0.87158615  0.65949196  1
  O  O239  1  0.49935284  0.87288080  0.91890548  1
  O  O240  1  0.75115532  0.12045616  0.16098134  1
  O  O241  1  0.75912645  0.12676662  0.41095683  1
  O  O242  1  0.74360674  0.12181790  0.66535921  1
  O  O243  1  0.74205952  0.12208241  0.91598453  1
  O  O244  1  0.74885830  0.37920361  0.15501191  1
  O  O245  1  0.75764738  0.37593215  0.41088716  1
  O  O246  1  0.74841864  0.37741586  0.66829848  1
  O  O247  1  0.74579314  0.37781247  0.91947724  1
  O  O248  1  0.74430578  0.62616476  0.16561956  1
  O  O249  1  0.74887434  0.62423321  0.41312015  1
  O  O250  1  0.75344279  0.63098299  0.66214345  1
  O  O251  1  0.73970726  0.62800451  0.91548228  1
  O  O252  1  0.75165336  0.87160509  0.16610973  1
  O  O253  1  0.75973448  0.87696354  0.41367195  1
  O  O254  1  0.75132232  0.87255120  0.66782228  1
  O  O255  1  0.74289905  0.87301441  0.91877919  1
  O  O256  1  0.13074305  0.12105175  0.04358302  1
  O  O257  1  0.11998353  0.12432983  0.28541820  1
  O  O258  1  0.12205908  0.12809270  0.55154213  1
  O  O259  1  0.12962157  0.12106762  0.78284743  1
  O  O260  1  0.12980558  0.38216791  0.03388540  1
  O  O261  1  0.12942299  0.37394166  0.28418822  1
  O  O262  1  0.12490919  0.37590874  0.55274313  1
  O  O263  1  0.12938861  0.38356470  0.78306336  1
  O  O264  1  0.12381874  0.62955916  0.04602339  1
  O  O265  1  0.12185246  0.62231059  0.29745957  1
  O  O266  1  0.11680029  0.62282528  0.55177609  1
  O  O267  1  0.12736120  0.62251105  0.78250035  1
  O  O268  1  0.12369167  0.86875474  0.03977940  1
  O  O269  1  0.11639644  0.88191387  0.28406796  1
  O  O270  1  0.11445829  0.87532599  0.53851755  1
  O  O271  1  0.12048589  0.87435984  0.77912113  1
  O  O272  1  0.37589112  0.12063367  0.04673887  1
  O  O273  1  0.37454202  0.12903953  0.29734182  1
  O  O274  1  0.37823256  0.13379965  0.54004034  1
  O  O275  1  0.38277204  0.12679131  0.77942559  1
  O  O276  1  0.37309638  0.38057136  0.03490009  1
  O  O277  1  0.37372509  0.37481032  0.29654862  1
  O  O278  1  0.37380319  0.37667280  0.54879666  1
  O  O279  1  0.38227049  0.37818716  0.79739479  1
  O  O280  1  0.37291563  0.62887108  0.05186205  1
  O  O281  1  0.37465743  0.63097613  0.29085106  1
  O  O282  1  0.37541369  0.61566955  0.52959891  1
  O  O283  1  0.38149269  0.62658451  0.79759842  1
  O  O284  1  0.37399096  0.86632604  0.04389676  1
  O  O285  1  0.37471242  0.86681999  0.28309524  1
  O  O286  1  0.37672496  0.87644734  0.52925031  1
  O  O287  1  0.38398976  0.86882835  0.79691231  1
  O  O288  1  0.61729665  0.11830489  0.03774720  1
  O  O289  1  0.62336184  0.11914412  0.28034205  1
  O  O290  1  0.63004120  0.12304099  0.54573625  1
  O  O291  1  0.62361981  0.12246292  0.80206383  1
  O  O292  1  0.61281133  0.37770538  0.03006160  1
  O  O293  1  0.61991117  0.37897027  0.28827500  1
  O  O294  1  0.63077979  0.38166907  0.53300493  1
  O  O295  1  0.62367976  0.38469939  0.79315462  1
  O  O296  1  0.62289226  0.62983129  0.05042007  1
  O  O297  1  0.62853372  0.62229735  0.29632006  1
  O  O298  1  0.63104243  0.62773239  0.54598175  1
  O  O299  1  0.62175148  0.62782374  0.80243491  1
  O  O300  1  0.62658302  0.86963848  0.05549749  1
  O  O301  1  0.62938585  0.87976526  0.28394184  1
  O  O302  1  0.63217866  0.87381830  0.54425626  1
  O  O303  1  0.62298747  0.87336066  0.79922498  1
  O  O304  1  0.86825191  0.12252904  0.02907441  1
  O  O305  1  0.87830289  0.12533253  0.29643562  1
  O  O306  1  0.87335284  0.13001855  0.53809452  1
  O  O307  1  0.86980202  0.12071390  0.80273546  1
  O  O308  1  0.87691654  0.37520161  0.02489659  1
  O  O309  1  0.87600231  0.37592710  0.29401034  1
  O  O310  1  0.87482423  0.37732642  0.53978362  1
  O  O311  1  0.86430172  0.37567239  0.79394595  1
  O  O312  1  0.87036786  0.63254228  0.05089847  1
  O  O313  1  0.87835966  0.62668672  0.28224511  1
  O  O314  1  0.87719024  0.62552204  0.55049349  1
  O  O315  1  0.86977781  0.62728057  0.79763808  1
  O  O316  1  0.87119852  0.87024439  0.04756318  1
  O  O317  1  0.87772346  0.87451818  0.29575517  1
  O  O318  1  0.87338481  0.87405801  0.55365389  1
  O  O319  1  0.86576912  0.87305255  0.78715724  1
