# generated using pymatgen
data_VFe(PbO3)2
_symmetry_space_group_name_H-M   'P 1'
_cell_length_a   15.36616418
_cell_length_b   15.36686284
_cell_length_c   18.60483203
_cell_angle_alpha   90.02294649
_cell_angle_beta   90.00979303
_cell_angle_gamma   89.98979189
_symmetry_Int_Tables_number   1
_chemical_formula_structural   VFe(PbO3)2
_chemical_formula_sum   'V32 Fe32 Pb64 O192'
_cell_volume   4393.15361289
_cell_formula_units_Z   32
loop_
 _symmetry_equiv_pos_site_id
 _symmetry_equiv_pos_as_xyz
  1  'x, y, z'
loop_
 _atom_site_type_symbol
 _atom_site_label
 _atom_site_symmetry_multiplicity
 _atom_site_fract_x
 _atom_site_fract_y
 _atom_site_fract_z
 _atom_site_occupancy
  V  V0  1  0.12588225  0.37658523  0.38973923  1
  V  V1  1  0.87354252  0.62206760  0.88797157  1
  V  V2  1  0.87590748  0.37488803  0.13813684  1
  V  V3  1  0.37948110  0.37503087  0.13846894  1
  V  V4  1  0.37413001  0.12579399  0.64197780  1
  V  V5  1  0.62371036  0.87464516  0.38680645  1
  V  V6  1  0.37264546  0.62454295  0.63925405  1
  V  V7  1  0.62783763  0.37627487  0.14002232  1
  V  V8  1  0.37764640  0.12571707  0.88732542  1
  V  V9  1  0.62313485  0.37533360  0.38690691  1
  V  V10  1  0.62230914  0.87456363  0.14083577  1
  V  V11  1  0.87737902  0.87548350  0.39048961  1
  V  V12  1  0.12420565  0.87513407  0.63942871  1
  V  V13  1  0.87485801  0.37007779  0.88519785  1
  V  V14  1  0.12311836  0.87505800  0.13980869  1
  V  V15  1  0.62425590  0.87707092  0.63732511  1
  V  V16  1  0.37509884  0.62809849  0.13903819  1
  V  V17  1  0.12725083  0.12344110  0.63822600  1
  V  V18  1  0.62625576  0.37290527  0.64061088  1
  V  V19  1  0.62888201  0.87520746  0.88900578  1
  V  V20  1  0.12597986  0.63112293  0.38846898  1
  V  V21  1  0.37215515  0.12753644  0.38902529  1
  V  V22  1  0.12565429  0.12218910  0.89177062  1
  V  V23  1  0.62513867  0.12671669  0.14268088  1
  V  V24  1  0.37384538  0.12548227  0.13818601  1
  V  V25  1  0.37512471  0.37642548  0.64432310  1
  V  V26  1  0.12314429  0.12489916  0.38824486  1
  V  V27  1  0.86883521  0.87616366  0.14003750  1
  V  V28  1  0.37500092  0.62512017  0.88562217  1
  V  V29  1  0.62210302  0.62511070  0.63833699  1
  V  V30  1  0.87789554  0.87174692  0.88856575  1
  V  V31  1  0.87496592  0.12402107  0.64017697  1
  Fe  Fe32  1  0.62842644  0.37623896  0.88338083  1
  Fe  Fe33  1  0.62501540  0.62781296  0.88443024  1
  Fe  Fe34  1  0.12524460  0.87821086  0.38345243  1
  Fe  Fe35  1  0.87412860  0.37469672  0.63033511  1
  Fe  Fe36  1  0.12361913  0.37560614  0.88814950  1
  Fe  Fe37  1  0.37480595  0.87284686  0.64095644  1
  Fe  Fe38  1  0.37558479  0.37687048  0.88276893  1
  Fe  Fe39  1  0.62605019  0.62359324  0.14147696  1
  Fe  Fe40  1  0.87485936  0.12399109  0.14126211  1
  Fe  Fe41  1  0.12571100  0.12761360  0.13502235  1
  Fe  Fe42  1  0.87523410  0.62557114  0.62990593  1
  Fe  Fe43  1  0.62399758  0.12454067  0.38730813  1
  Fe  Fe44  1  0.12531683  0.37215668  0.63552561  1
  Fe  Fe45  1  0.37733223  0.87731711  0.13926538  1
  Fe  Fe46  1  0.62675055  0.12292901  0.88079652  1
  Fe  Fe47  1  0.87378937  0.62580029  0.13862562  1
  Fe  Fe48  1  0.12643374  0.37582336  0.13196131  1
  Fe  Fe49  1  0.37568687  0.87515140  0.88489047  1
  Fe  Fe50  1  0.87631022  0.12146756  0.88439360  1
  Fe  Fe51  1  0.12556490  0.62358372  0.13391071  1
  Fe  Fe52  1  0.62417699  0.62518576  0.38342129  1
  Fe  Fe53  1  0.37497247  0.37398702  0.38431095  1
  Fe  Fe54  1  0.37390763  0.62224962  0.38432618  1
  Fe  Fe55  1  0.87485262  0.62422800  0.39066312  1
  Fe  Fe56  1  0.37319882  0.87634384  0.38213700  1
  Fe  Fe57  1  0.12379051  0.87494973  0.88570432  1
  Fe  Fe58  1  0.12628855  0.62430355  0.63241976  1
  Fe  Fe59  1  0.87494905  0.12514400  0.38137380  1
  Fe  Fe60  1  0.62062321  0.12358203  0.63863538  1
  Fe  Fe61  1  0.12457716  0.62834285  0.88705408  1
  Fe  Fe62  1  0.87369403  0.87499428  0.63365117  1
  Fe  Fe63  1  0.87430469  0.37273151  0.39024168  1
  Pb  Pb64  1  -0.00193709  0.01229412  0.00587952  1
  Pb  Pb65  1  0.00233869  0.00193322  0.24831411  1
  Pb  Pb66  1  -0.00594889  -0.00508338  0.50051771  1
  Pb  Pb67  1  -0.00363270  0.00237513  0.75058974  1
  Pb  Pb68  1  0.00788666  0.24769309  0.00363077  1
  Pb  Pb69  1  -0.00328519  0.24869269  0.24748798  1
  Pb  Pb70  1  -0.00301727  0.25701386  0.50151220  1
  Pb  Pb71  1  0.00160690  0.25465489  0.74751965  1
  Pb  Pb72  1  0.00793408  0.50372863  0.00046337  1
  Pb  Pb73  1  -0.00019961  0.50301978  0.24717034  1
  Pb  Pb74  1  -0.00264454  0.50184567  0.50176309  1
  Pb  Pb75  1  0.00137369  0.49967618  0.73958294  1
  Pb  Pb76  1  0.00027357  0.74323932  0.00202715  1
  Pb  Pb77  1  -0.00005644  0.74652195  0.24854274  1
  Pb  Pb78  1  0.00126730  0.73980080  0.50366943  1
  Pb  Pb79  1  0.00389149  0.74427137  0.74566029  1
  Pb  Pb80  1  0.25269027  -0.00535609  -0.00008839  1
  Pb  Pb81  1  0.24940548  -0.00981506  0.25183869  1
  Pb  Pb82  1  0.25678584  -0.00636594  0.50057371  1
  Pb  Pb83  1  0.25030380  -0.00978736  0.75349592  1
  Pb  Pb84  1  0.24347977  0.25322480  -0.00098789  1
  Pb  Pb85  1  0.25096926  0.25639007  0.24605366  1
  Pb  Pb86  1  0.24456025  0.25418330  0.50228918  1
  Pb  Pb87  1  0.24832580  0.25939972  0.75459828  1
  Pb  Pb88  1  0.24411774  0.49829154  -0.00449836  1
  Pb  Pb89  1  0.25714298  0.50065001  0.24739559  1
  Pb  Pb90  1  0.24151511  0.49900051  0.50082547  1
  Pb  Pb91  1  0.23654078  0.49791629  0.75232299  1
  Pb  Pb92  1  0.24721470  0.75242203  -0.00295149  1
  Pb  Pb93  1  0.25200049  0.75837423  0.25104870  1
  Pb  Pb94  1  0.25717668  0.75699099  0.49881039  1
  Pb  Pb95  1  0.23851560  0.75224219  0.75562430  1
  Pb  Pb96  1  0.49722978  -0.00693863  0.00057909  1
  Pb  Pb97  1  0.50389685  0.00506748  0.25308445  1
  Pb  Pb98  1  0.50239706  0.00285886  0.50079537  1
  Pb  Pb99  1  0.49486177  -0.00454632  0.75103546  1
  Pb  Pb100  1  0.50559595  0.25400679  -0.00748828  1
  Pb  Pb101  1  0.50348470  0.25098048  0.25190675  1
  Pb  Pb102  1  0.50576778  0.24517877  0.50151884  1
  Pb  Pb103  1  0.50047975  0.25713166  0.75450986  1
  Pb  Pb104  1  0.50729736  0.50395867  -0.00533914  1
  Pb  Pb105  1  0.49368251  0.50318342  0.25310665  1
  Pb  Pb106  1  0.49541613  0.50268366  0.49480975  1
  Pb  Pb107  1  0.50264440  0.49588442  0.75396774  1
  Pb  Pb108  1  0.49648201  0.75278834  -0.00060230  1
  Pb  Pb109  1  0.49784164  0.74027570  0.25446345  1
  Pb  Pb110  1  0.49322161  0.75270834  0.49466733  1
  Pb  Pb111  1  0.50276220  0.74486951  0.75056727  1
  Pb  Pb112  1  0.75507508  0.00500517  -0.00031761  1
  Pb  Pb113  1  0.74783472  0.00991742  0.25423395  1
  Pb  Pb114  1  0.75152944  0.00045736  0.49844421  1
  Pb  Pb115  1  0.75096125  0.00891839  0.75190293  1
  Pb  Pb116  1  0.75279994  0.24373413  -0.00539115  1
  Pb  Pb117  1  0.75842095  0.25184996  0.25566412  1
  Pb  Pb118  1  0.75257637  0.24678073  0.49609573  1
  Pb  Pb119  1  0.74397327  0.24426611  0.75039966  1
  Pb  Pb120  1  0.74796053  0.51002266  0.00141537  1
  Pb  Pb121  1  0.76077770  0.50163404  0.25708818  1
  Pb  Pb122  1  0.75654142  0.50179562  0.49647096  1
  Pb  Pb123  1  0.74529531  0.49989372  0.74545860  1
  Pb  Pb124  1  0.74810776  0.74101430  0.00600847  1
  Pb  Pb125  1  0.75106920  0.73593245  0.25656067  1
  Pb  Pb126  1  0.75637881  0.74910037  0.49913040  1
  Pb  Pb127  1  0.74980631  0.74594310  0.74441695  1
  O  O128  1  0.12518471  -0.00407782  0.16216224  1
  O  O129  1  0.12863079  0.00870088  0.41271547  1
  O  O130  1  0.12569034  -0.00037092  0.66521812  1
  O  O131  1  0.12409407  0.00419512  0.91501407  1
  O  O132  1  0.12648013  0.25298848  0.16620359  1
  O  O133  1  0.12878296  0.24549044  0.41477927  1
  O  O134  1  0.12671764  0.24256952  0.66612410  1
  O  O135  1  0.12286142  0.24431396  0.91453648  1
  O  O136  1  0.12527381  0.49857946  0.16487420  1
  O  O137  1  0.12555295  0.49454859  0.41001222  1
  O  O138  1  0.12784767  0.49891041  0.66232266  1
  O  O139  1  0.12209529  0.50256123  0.91365268  1
  O  O140  1  0.12589485  0.75539811  0.16276881  1
  O  O141  1  0.12396987  0.74702026  0.40723962  1
  O  O142  1  0.12803538  0.75604888  0.65977844  1
  O  O143  1  0.12445454  0.75173428  0.91909503  1
  O  O144  1  0.37805555  0.00892406  0.16235373  1
  O  O145  1  0.37285274  0.00680120  0.41325281  1
  O  O146  1  0.37501285  0.00521194  0.66543849  1
  O  O147  1  0.37431976  0.00806558  0.91576326  1
  O  O148  1  0.38004586  0.24660915  0.16424115  1
  O  O149  1  0.37465392  0.24499182  0.41461239  1
  O  O150  1  0.37453382  0.24634248  0.66656694  1
  O  O151  1  0.37322416  0.24158496  0.91219645  1
  O  O152  1  0.37969870  0.50143361  0.16315533  1
  O  O153  1  0.37253349  0.49730111  0.41719136  1
  O  O154  1  0.37881780  0.50316410  0.66536236  1
  O  O155  1  0.37661977  0.50716597  0.91092139  1
  O  O156  1  0.37612192  0.74591484  0.15992620  1
  O  O157  1  0.37223932  0.74960967  0.41251169  1
  O  O158  1  0.37904772  0.74134462  0.66218775  1
  O  O159  1  0.37688497  0.74568116  0.91215271  1
  O  O160  1  0.62486348  -0.00184949  0.16800781  1
  O  O161  1  0.62360725  -0.00775081  0.41529327  1
  O  O162  1  0.62186252  -0.00629016  0.66116975  1
  O  O163  1  0.62500581  -0.00618261  0.91280706  1
  O  O164  1  0.62388141  0.25274154  0.16752085  1
  O  O165  1  0.62143534  0.25386630  0.41359398  1
  O  O166  1  0.62330400  0.25370956  0.66267002  1
  O  O167  1  0.62896375  0.24889193  0.91317452  1
  O  O168  1  0.62384662  0.49106151  0.16181386  1
  O  O169  1  0.62419361  0.49367925  0.40987971  1
  O  O170  1  0.62247334  0.49632124  0.66265601  1
  O  O171  1  0.62817695  0.50245143  0.91434560  1
  O  O172  1  0.62715397  0.75990291  0.16279658  1
  O  O173  1  0.62618907  0.75943647  0.41329549  1
  O  O174  1  0.62191529  0.75211777  0.66273181  1
  O  O175  1  0.62474599  0.75700857  0.91565492  1
  O  O176  1  0.87702620  -0.00820223  0.16736665  1
  O  O177  1  0.87572872  -0.00313177  0.41406065  1
  O  O178  1  0.87688806  0.00267026  0.66582784  1
  O  O179  1  0.87328996  -0.00989877  0.91477233  1
  O  O180  1  0.87028750  0.25635756  0.16307428  1
  O  O181  1  0.87573246  0.24682270  0.41609177  1
  O  O182  1  0.87399976  0.24133210  0.66109220  1
  O  O183  1  0.87408643  0.25354736  0.90566094  1
  O  O184  1  0.87025631  0.49294096  0.16413453  1
  O  O185  1  0.87617001  0.49817704  0.41531312  1
  O  O186  1  0.87222525  0.50005715  0.65878853  1
  O  O187  1  0.87268650  0.50629447  0.90703789  1
  O  O188  1  0.87488500  0.76039633  0.16624188  1
  O  O189  1  0.87619738  0.75735853  0.41314436  1
  O  O190  1  0.87213369  0.75087564  0.66203976  1
  O  O191  1  0.87055675  0.75386150  0.91467274  1
  O  O192  1  0.00062105  0.12560985  0.16674982  1
  O  O193  1  0.00737543  0.12518970  0.40940327  1
  O  O194  1  -0.00025161  0.12267419  0.66473626  1
  O  O195  1  0.00344364  0.12287521  0.91408540  1
  O  O196  1  -0.00772533  0.37465248  0.15927107  1
  O  O197  1  0.00911018  0.36933771  0.41180410  1
  O  O198  1  -0.00148091  0.37012437  0.66208041  1
  O  O199  1  -0.01056472  0.37822989  0.91207563  1
  O  O200  1  -0.00061414  0.62612482  0.16710865  1
  O  O201  1  0.00768909  0.62268977  0.41364567  1
  O  O202  1  0.00105887  0.62765674  0.66083387  1
  O  O203  1  -0.00954118  0.63097957  0.91178752  1
  O  O204  1  0.00137273  0.87528286  0.16263043  1
  O  O205  1  -0.00292698  0.87869143  0.41135664  1
  O  O206  1  0.00649284  0.87663737  0.66154649  1
  O  O207  1  -0.00741579  0.87212431  0.91096197  1
  O  O208  1  0.25772040  0.12857648  0.15961581  1
  O  O209  1  0.25209581  0.12696812  0.41489894  1
  O  O210  1  0.25303201  0.12396335  0.66584083  1
  O  O211  1  0.24819323  0.12431608  0.91349572  1
  O  O212  1  0.25807245  0.37442248  0.16009805  1
  O  O213  1  0.24477952  0.37083947  0.41511604  1
  O  O214  1  0.25402922  0.37316647  0.66712249  1
  O  O215  1  0.25176602  0.37440738  0.91421146  1
  O  O216  1  0.25724785  0.62310657  0.16071536  1
  O  O217  1  0.24190143  0.62068679  0.41169941  1
  O  O218  1  0.25751291  0.62338394  0.65990665  1
  O  O219  1  0.25748146  0.62650864  0.91160441  1
  O  O220  1  0.24638278  0.87629327  0.16139186  1
  O  O221  1  0.24829127  0.87706158  0.41722561  1
  O  O222  1  0.24477760  0.87723190  0.66438277  1
  O  O223  1  0.25098121  0.87764650  0.91625409  1
  O  O224  1  0.49917750  0.12574621  0.16813378  1
  O  O225  1  0.49258323  0.12398879  0.41486021  1
  O  O226  1  0.49175608  0.12588181  0.66690614  1
  O  O227  1  0.49584795  0.12469323  0.90723115  1
  O  O228  1  0.50350156  0.37231497  0.16548521  1
  O  O229  1  0.50468112  0.37370137  0.41308647  1
  O  O230  1  0.50203857  0.37378835  0.66795785  1
  O  O231  1  0.50027263  0.37451403  0.91402520  1
  O  O232  1  0.49650175  0.62624841  0.16448313  1
  O  O233  1  0.50099449  0.62574602  0.41584015  1
  O  O234  1  0.49943509  0.62295887  0.66752711  1
  O  O235  1  0.49548065  0.62710541  0.91228009  1
  O  O236  1  0.50674687  0.87797258  0.16488212  1
  O  O237  1  0.50380439  0.87580006  0.40733352  1
  O  O238  1  0.50509964  0.87379252  0.66547208  1
  O  O239  1  0.50518523  0.87618386  0.91431302  1
  O  O240  1  0.74606138  0.12349663  0.16611746  1
  O  O241  1  0.74944448  0.12206689  0.41239799  1
  O  O242  1  0.75400739  0.12128613  0.65911676  1
  O  O243  1  0.75136127  0.12119494  0.91520665  1
  O  O244  1  0.74649327  0.37277461  0.16332847  1
  O  O245  1  0.74057569  0.37235220  0.41447705  1
  O  O246  1  0.74378009  0.37349746  0.65952990  1
  O  O247  1  0.75990352  0.37781540  0.91447734  1
  O  O248  1  0.75024269  0.62607954  0.16975001  1
  O  O249  1  0.74725654  0.62725383  0.41554657  1
  O  O250  1  0.74316636  0.62491501  0.66016990  1
  O  O251  1  0.75480384  0.63029618  0.91457635  1
  O  O252  1  0.75066748  0.88001589  0.16185093  1
  O  O253  1  0.75060378  0.87716465  0.41295629  1
  O  O254  1  0.74137463  0.87454009  0.66126629  1
  O  O255  1  0.74763221  0.87508252  0.91399266  1
  O  O256  1  0.11866118  0.12960702  0.03554252  1
  O  O257  1  0.12728524  0.12699952  0.29755477  1
  O  O258  1  0.12634610  0.12369677  0.54764977  1
  O  O259  1  0.12514944  0.12323113  0.80133705  1
  O  O260  1  0.12189010  0.37204568  0.03138997  1
  O  O261  1  0.12832471  0.37294969  0.29922335  1
  O  O262  1  0.13007744  0.36895917  0.53572814  1
  O  O263  1  0.12736245  0.37198240  0.78786226  1
  O  O264  1  0.11917976  0.62415938  0.03419733  1
  O  O265  1  0.12414198  0.62535090  0.29756188  1
  O  O266  1  0.12296069  0.62380350  0.53293099  1
  O  O267  1  0.12855718  0.63389368  0.78657181  1
  O  O268  1  0.12313902  0.87557113  0.04900926  1
  O  O269  1  0.13301187  0.87885481  0.28457010  1
  O  O270  1  0.12534251  0.87830114  0.54854658  1
  O  O271  1  0.13052385  0.87053737  0.78635002  1
  O  O272  1  0.37826147  0.12710762  0.04782407  1
  O  O273  1  0.37252866  0.12746567  0.29853578  1
  O  O274  1  0.37483128  0.12615039  0.55119134  1
  O  O275  1  0.37329823  0.12292206  0.79701491  1
  O  O276  1  0.38159739  0.37432174  0.04804905  1
  O  O277  1  0.37479327  0.37715712  0.28505564  1
  O  O278  1  0.37665516  0.37422151  0.55372693  1
  O  O279  1  0.37889298  0.37125842  0.78305398  1
  O  O280  1  0.37755379  0.62479229  0.04866326  1
  O  O281  1  0.38026839  0.62033019  0.28438611  1
  O  O282  1  0.37746363  0.62268670  0.54830134  1
  O  O283  1  0.37576820  0.62579141  0.79511169  1
  O  O284  1  0.38260427  0.88104008  0.03952186  1
  O  O285  1  0.36427656  0.87630866  0.28179716  1
  O  O286  1  0.36940111  0.87302948  0.54110998  1
  O  O287  1  0.37532242  0.88303961  0.78481290  1
  O  O288  1  0.62305970  0.12512760  0.05202542  1
  O  O289  1  0.61987853  0.11845377  0.28753018  1
  O  O290  1  0.61204436  0.12361069  0.53878565  1
  O  O291  1  0.63513321  0.12383367  0.78074484  1
  O  O292  1  0.62646122  0.37180775  0.04943858  1
  O  O293  1  0.62407788  0.37276925  0.29614470  1
  O  O294  1  0.62072764  0.37343529  0.55047553  1
  O  O295  1  0.62703685  0.37566082  0.78382354  1
  O  O296  1  0.63248152  0.62489474  0.04096117  1
  O  O297  1  0.62176007  0.63315390  0.28307834  1
  O  O298  1  0.61987880  0.62569222  0.54792061  1
  O  O299  1  0.62504445  0.62795461  0.78507035  1
  O  O300  1  0.62216416  0.87845186  0.05005939  1
  O  O301  1  0.62705446  0.87591000  0.29628340  1
  O  O302  1  0.62212003  0.87578638  0.54660728  1
  O  O303  1  0.62756452  0.87344208  0.79846491  1
  O  O304  1  0.87553020  0.11698049  0.04071065  1
  O  O305  1  0.87272824  0.12710321  0.28113563  1
  O  O306  1  0.87926372  0.11953928  0.54932324  1
  O  O307  1  0.87362736  0.11550219  0.78522882  1
  O  O308  1  0.87328454  0.37579328  0.04794109  1
  O  O309  1  0.86742935  0.37267231  0.28986562  1
  O  O310  1  0.87651395  0.36913829  0.53037510  1
  O  O311  1  0.87340505  0.37388680  0.79436634  1
  O  O312  1  0.86947216  0.62969687  0.03892949  1
  O  O313  1  0.87132280  0.62476066  0.28942967  1
  O  O314  1  0.88025534  0.62946614  0.52856630  1
  O  O315  1  0.87160947  0.62770223  0.79745094  1
  O  O316  1  0.87200372  0.87633629  0.04953258  1
  O  O317  1  0.87467273  0.87624279  0.30010204  1
  O  O318  1  0.87557760  0.88202521  0.53464169  1
  O  O319  1  0.87462260  0.87243067  0.79789121  1
