# generated using pymatgen
data_VFe(PbO3)2
_symmetry_space_group_name_H-M   'P 1'
_cell_length_a   15.38693905
_cell_length_b   15.39470860
_cell_length_c   18.53079363
_cell_angle_alpha   89.99255781
_cell_angle_beta   89.97737437
_cell_angle_gamma   89.98951103
_symmetry_Int_Tables_number   1
_chemical_formula_structural   VFe(PbO3)2
_chemical_formula_sum   'V32 Fe32 Pb64 O192'
_cell_volume   4389.52655837
_cell_formula_units_Z   32
loop_
 _symmetry_equiv_pos_site_id
 _symmetry_equiv_pos_as_xyz
  1  'x, y, z'
loop_
 _atom_site_type_symbol
 _atom_site_label
 _atom_site_symmetry_multiplicity
 _atom_site_fract_x
 _atom_site_fract_y
 _atom_site_fract_z
 _atom_site_occupancy
  V  V0  1  0.37664303  0.87100281  0.14902846  1
  V  V1  1  0.12938893  0.87893321  0.88748825  1
  V  V2  1  0.12052145  0.37215272  0.63940462  1
  V  V3  1  0.62051201  0.37140170  0.64017032  1
  V  V4  1  0.87213504  0.37369788  0.64591139  1
  V  V5  1  0.12500782  0.87233930  0.14638320  1
  V  V6  1  0.87700587  0.12244175  0.14192863  1
  V  V7  1  0.62913816  0.86768838  0.39156384  1
  V  V8  1  0.36947401  0.37409862  0.63641498  1
  V  V9  1  0.37293615  0.87605019  0.88582213  1
  V  V10  1  0.62574457  0.87884925  0.63581842  1
  V  V11  1  0.12345336  0.62520804  0.39271153  1
  V  V12  1  0.87279352  0.87331950  0.39550566  1
  V  V13  1  0.12611960  0.12581424  0.14632951  1
  V  V14  1  0.62907692  0.12172330  0.89287617  1
  V  V15  1  0.37304067  0.62324652  0.88508016  1
  V  V16  1  0.87479435  0.62451154  0.39269913  1
  V  V17  1  0.63033320  0.11882443  0.38926922  1
  V  V18  1  0.87680922  0.63035865  0.13503697  1
  V  V19  1  0.62344644  0.62514392  0.13937435  1
  V  V20  1  0.11962869  0.12441141  0.38321617  1
  V  V21  1  0.88175873  0.12646958  0.89042356  1
  V  V22  1  0.12420038  0.12763075  0.63556814  1
  V  V23  1  0.62513338  0.37512229  0.38594379  1
  V  V24  1  0.12877766  0.12175738  0.88962952  1
  V  V25  1  0.37517273  0.12461822  0.89235965  1
  V  V26  1  0.37329603  0.62410062  0.14420974  1
  V  V27  1  0.87107362  0.13068070  0.63949212  1
  V  V28  1  0.62504569  0.87351015  0.14102001  1
  V  V29  1  0.87284126  0.37589527  0.38827508  1
  V  V30  1  0.87322166  0.38020865  0.13590621  1
  V  V31  1  0.37584566  0.37317904  0.14453580  1
  Fe  Fe32  1  0.12630781  0.62815460  0.13541448  1
  Fe  Fe33  1  0.62425572  0.12898372  0.63219231  1
  Fe  Fe34  1  0.12483273  0.37746161  0.14685865  1
  Fe  Fe35  1  0.87640653  0.62337691  0.64724316  1
  Fe  Fe36  1  0.11939248  0.37626336  0.37782789  1
  Fe  Fe37  1  0.37668880  0.13000566  0.62954233  1
  Fe  Fe38  1  0.61931391  0.87846750  0.88127098  1
  Fe  Fe39  1  0.37817087  0.62212184  0.39406202  1
  Fe  Fe40  1  0.37334214  0.37403586  0.88503006  1
  Fe  Fe41  1  0.37752176  0.87465579  0.39285709  1
  Fe  Fe42  1  0.62571843  0.62291880  0.63874720  1
  Fe  Fe43  1  0.12835730  0.37156286  0.88603031  1
  Fe  Fe44  1  0.87632211  0.87883478  0.64175241  1
  Fe  Fe45  1  0.37408394  0.12019754  0.15119206  1
  Fe  Fe46  1  0.87333796  0.12496789  0.38268330  1
  Fe  Fe47  1  0.62106231  0.37351388  0.88843607  1
  Fe  Fe48  1  0.37593668  0.87767124  0.62305311  1
  Fe  Fe49  1  0.62145068  0.62768147  0.87676439  1
  Fe  Fe50  1  0.37414077  0.12770487  0.37970030  1
  Fe  Fe51  1  0.87535930  0.37289705  0.88417311  1
  Fe  Fe52  1  0.12878296  0.62653335  0.88193889  1
  Fe  Fe53  1  0.87489574  0.87971008  0.88018048  1
  Fe  Fe54  1  0.12650620  0.62207013  0.63331690  1
  Fe  Fe55  1  0.62371070  0.37566583  0.13417951  1
  Fe  Fe56  1  0.62366153  0.12461055  0.13571500  1
  Fe  Fe57  1  0.12073667  0.87304810  0.40024227  1
  Fe  Fe58  1  0.63121058  0.62192279  0.39269130  1
  Fe  Fe59  1  0.12469115  0.87720616  0.62263845  1
  Fe  Fe60  1  0.37335479  0.37554964  0.38041608  1
  Fe  Fe61  1  0.87645282  0.62616189  0.87511728  1
  Fe  Fe62  1  0.87429148  0.87320723  0.13374176  1
  Fe  Fe63  1  0.37603457  0.62306740  0.62694197  1
  Pb  Pb64  1  -0.00444833  -0.00549793  0.00260629  1
  Pb  Pb65  1  0.00312648  -0.00723904  0.25640242  1
  Pb  Pb66  1  -0.00584214  -0.00842072  0.50472796  1
  Pb  Pb67  1  -0.00039365  -0.00350144  0.74651483  1
  Pb  Pb68  1  0.00812746  0.26139539  0.00425315  1
  Pb  Pb69  1  -0.00373998  0.24949627  0.25079448  1
  Pb  Pb70  1  -0.00115406  0.24928110  0.49416606  1
  Pb  Pb71  1  0.00347514  0.25779730  0.75605454  1
  Pb  Pb72  1  0.00398587  0.50386675  -0.01045387  1
  Pb  Pb73  1  0.00332795  0.49912363  0.24705023  1
  Pb  Pb74  1  -0.00208575  0.50674049  0.50591955  1
  Pb  Pb75  1  0.00504166  0.50921966  0.75617961  1
  Pb  Pb76  1  -0.00332037  0.74825004  -0.01077836  1
  Pb  Pb77  1  0.01018454  0.75631031  0.25823471  1
  Pb  Pb78  1  -0.00236401  0.73775222  0.51351695  1
  Pb  Pb79  1  0.00331071  0.74746731  0.74025129  1
  Pb  Pb80  1  0.25767223  0.00619024  0.00809164  1
  Pb  Pb81  1  0.24991186  -0.01423597  0.26254021  1
  Pb  Pb82  1  0.25239140  -0.00337746  0.49259917  1
  Pb  Pb83  1  0.25488036  -0.00099315  0.73513506  1
  Pb  Pb84  1  0.24877631  0.25490337  0.00581488  1
  Pb  Pb85  1  0.25823788  0.25165237  0.25624750  1
  Pb  Pb86  1  0.25291725  0.24948404  0.48818457  1
  Pb  Pb87  1  0.25205158  0.25943675  0.75264448  1
  Pb  Pb88  1  0.23657970  0.49655372  0.00114025  1
  Pb  Pb89  1  0.25081553  0.49736558  0.25398122  1
  Pb  Pb90  1  0.24872592  0.49929193  0.49379317  1
  Pb  Pb91  1  0.24521251  0.50379273  0.74931606  1
  Pb  Pb92  1  0.24580072  0.74589645  0.00056686  1
  Pb  Pb93  1  0.26082108  0.74914736  0.26435445  1
  Pb  Pb94  1  0.25533828  0.75107214  0.49848162  1
  Pb  Pb95  1  0.24913627  0.74955961  0.73110619  1
  Pb  Pb96  1  0.49596612  0.00990594  0.00807615  1
  Pb  Pb97  1  0.49595579  -0.00176699  0.25430551  1
  Pb  Pb98  1  0.48977517  0.00511587  0.49846387  1
  Pb  Pb99  1  0.50079141  0.00250342  0.74033821  1
  Pb  Pb100  1  0.50204583  0.24688398  0.00588040  1
  Pb  Pb101  1  0.49975153  0.24727294  0.24911688  1
  Pb  Pb102  1  0.49851927  0.24172067  0.49670498  1
  Pb  Pb103  1  0.49879917  0.25675518  0.75260631  1
  Pb  Pb104  1  0.50411606  0.49343905  -0.00510711  1
  Pb  Pb105  1  0.49346255  0.50476065  0.25582556  1
  Pb  Pb106  1  0.49969920  0.50543550  0.49840050  1
  Pb  Pb107  1  0.50364604  0.50130879  0.74805761  1
  Pb  Pb108  1  0.49964146  0.75276103  -0.00745368  1
  Pb  Pb109  1  0.49416674  0.74332276  0.26189735  1
  Pb  Pb110  1  0.49523062  0.74343512  0.50116836  1
  Pb  Pb111  1  0.50266561  0.74941615  0.73898667  1
  Pb  Pb112  1  0.75204520  -0.00737440  -0.00033766  1
  Pb  Pb113  1  0.75646394  0.00266986  0.24873503  1
  Pb  Pb114  1  0.75352860  -0.00406655  0.50638386  1
  Pb  Pb115  1  0.74600945  -0.01088103  0.75404258  1
  Pb  Pb116  1  0.73998544  0.25374350  0.00200170  1
  Pb  Pb117  1  0.75206496  0.24587669  0.24538512  1
  Pb  Pb118  1  0.74375486  0.24857354  0.50032713  1
  Pb  Pb119  1  0.74782880  0.26092053  0.75876491  1
  Pb  Pb120  1  0.74837307  0.50207745  -0.01453067  1
  Pb  Pb121  1  0.74212017  0.50574205  0.24924963  1
  Pb  Pb122  1  0.75157425  0.50632539  0.50874302  1
  Pb  Pb123  1  0.74889395  0.50684899  0.75559384  1
  Pb  Pb124  1  0.75083127  0.75178010  -0.01657692  1
  Pb  Pb125  1  0.74376746  0.74273537  0.25107452  1
  Pb  Pb126  1  0.75578658  0.73850985  0.51433479  1
  Pb  Pb127  1  0.75176665  0.74681982  0.74663316  1
  O  O128  1  0.12463069  -0.00677627  0.17203965  1
  O  O129  1  0.12000126  0.01011167  0.41075737  1
  O  O130  1  0.12565171  0.01088715  0.65452608  1
  O  O131  1  0.12849023  -0.00054369  0.92029967  1
  O  O132  1  0.12256403  0.24231131  0.16526734  1
  O  O133  1  0.11865398  0.24538733  0.40706451  1
  O  O134  1  0.12652081  0.25308826  0.66564331  1
  O  O135  1  0.12753206  0.24048010  0.91958426  1
  O  O136  1  0.12377418  0.50531833  0.16679322  1
  O  O137  1  0.11661940  0.50534172  0.41040681  1
  O  O138  1  0.12651453  0.48754709  0.66124699  1
  O  O139  1  0.12906252  0.49966498  0.91112254  1
  O  O140  1  0.12435873  0.75351674  0.17031443  1
  O  O141  1  0.11834499  0.74125587  0.41834173  1
  O  O142  1  0.12505654  0.75135314  0.65117422  1
  O  O143  1  0.12923282  0.76139204  0.90908952  1
  O  O144  1  0.37352941  -0.00953172  0.17463575  1
  O  O145  1  0.38048616  0.00439465  0.40574094  1
  O  O146  1  0.37591799  0.00347452  0.65593049  1
  O  O147  1  0.37171581  0.00185149  0.91880882  1
  O  O148  1  0.37283048  0.25494015  0.16229882  1
  O  O149  1  0.37585388  0.25133590  0.40868368  1
  O  O150  1  0.37607489  0.25743454  0.66266025  1
  O  O151  1  0.37348569  0.23949136  0.91593851  1
  O  O152  1  0.37600179  0.50464316  0.16594917  1
  O  O153  1  0.37589336  0.49573210  0.41536016  1
  O  O154  1  0.37724326  0.48889048  0.65951058  1
  O  O155  1  0.37226290  0.50790248  0.90803384  1
  O  O156  1  0.37664352  0.74610550  0.17343596  1
  O  O157  1  0.37808126  0.74867677  0.41645041  1
  O  O158  1  0.37716491  0.75161667  0.65082377  1
  O  O159  1  0.37218959  0.75228387  0.91271802  1
  O  O160  1  0.62353011  -0.01058328  0.16437383  1
  O  O161  1  0.63038223  0.00358188  0.40950786  1
  O  O162  1  0.62618992  0.00044264  0.65877501  1
  O  O163  1  0.61962325  0.00611681  0.91641088  1
  O  O164  1  0.62534234  0.25144914  0.16395776  1
  O  O165  1  0.63377640  0.25585660  0.40980892  1
  O  O166  1  0.62709454  0.25603938  0.66681237  1
  O  O167  1  0.61901869  0.23960603  0.91754157  1
  O  O168  1  0.62540358  0.50367294  0.16517586  1
  O  O169  1  0.63318202  0.48994815  0.41486959  1
  O  O170  1  0.62847053  0.48705506  0.66396160  1
  O  O171  1  0.62000205  0.50284482  0.90934124  1
  O  O172  1  0.62493479  0.74938083  0.16917355  1
  O  O173  1  0.63246360  0.75450708  0.41446323  1
  O  O174  1  0.62623290  0.75812623  0.65680935  1
  O  O175  1  0.61931123  0.75243139  0.90973416  1
  O  O176  1  0.87597760  -0.00149232  0.16624594  1
  O  O177  1  0.86973517  -0.00453073  0.41311125  1
  O  O178  1  0.87961179  0.01626491  0.66401392  1
  O  O179  1  0.87468286  0.00817365  0.91815099  1
  O  O180  1  0.87634500  0.25093719  0.16259420  1
  O  O181  1  0.87318509  0.25641359  0.41109200  1
  O  O182  1  0.88110365  0.24791752  0.67018765  1
  O  O183  1  0.87359718  0.23876216  0.91871529  1
  O  O184  1  0.87347134  0.50017467  0.15806701  1
  O  O185  1  0.87430280  0.49752817  0.41473974  1
  O  O186  1  0.87667727  0.48722176  0.66567426  1
  O  O187  1  0.87599546  0.49981574  0.90767047  1
  O  O188  1  0.87150495  0.74462042  0.15962722  1
  O  O189  1  0.87008969  0.75256537  0.41942460  1
  O  O190  1  0.87619855  0.75286281  0.66177855  1
  O  O191  1  0.87777317  0.75450770  0.90374056  1
  O  O192  1  0.00447017  0.11976825  0.16961475  1
  O  O193  1  -0.00039518  0.12686559  0.40990823  1
  O  O194  1  0.00684867  0.13201282  0.66570345  1
  O  O195  1  -0.00035749  0.12145738  0.91201959  1
  O  O196  1  -0.01014980  0.37519867  0.16470347  1
  O  O197  1  -0.00825176  0.37567348  0.41173862  1
  O  O198  1  0.00268221  0.36933961  0.66380263  1
  O  O199  1  0.00156817  0.36852511  0.91495187  1
  O  O200  1  -0.00887282  0.62513331  0.15944368  1
  O  O201  1  -0.00446001  0.62572063  0.42028333  1
  O  O202  1  0.00344260  0.61842813  0.66523474  1
  O  O203  1  0.00299581  0.62833666  0.90752924  1
  O  O204  1  0.00398160  0.87255254  0.16669954  1
  O  O205  1  -0.01225167  0.87480113  0.41698807  1
  O  O206  1  0.00417278  0.88263439  0.66156469  1
  O  O207  1  0.00974154  0.88217612  0.90895792  1
  O  O208  1  0.24038382  0.11910358  0.17129884  1
  O  O209  1  0.24139722  0.12745342  0.40349884  1
  O  O210  1  0.24329247  0.13187727  0.65782936  1
  O  O211  1  0.25282512  0.12112986  0.92008023  1
  O  O212  1  0.25619579  0.37873152  0.16741759  1
  O  O213  1  0.24384653  0.37528635  0.40629471  1
  O  O214  1  0.25062479  0.37153290  0.65743181  1
  O  O215  1  0.25223027  0.37004608  0.92111325  1
  O  O216  1  0.25673432  0.62763387  0.16649551  1
  O  O217  1  0.24148126  0.62373543  0.40912570  1
  O  O218  1  0.25277739  0.61856023  0.65831237  1
  O  O219  1  0.25629300  0.63059290  0.91427021  1
  O  O220  1  0.24686984  0.87086314  0.17293782  1
  O  O221  1  0.24824876  0.87627462  0.41121690  1
  O  O222  1  0.24907310  0.88007492  0.65199961  1
  O  O223  1  0.24848862  0.87932268  0.91847103  1
  O  O224  1  0.50203855  0.12117192  0.17134011  1
  O  O225  1  0.51180439  0.13155601  0.40566767  1
  O  O226  1  0.50104928  0.13023827  0.66353974  1
  O  O227  1  0.49401896  0.12077270  0.91544044  1
  O  O228  1  0.49388628  0.37884339  0.16469155  1
  O  O229  1  0.51027418  0.37409839  0.40478392  1
  O  O230  1  0.50183115  0.37211958  0.65850698  1
  O  O231  1  0.49482881  0.37192094  0.91821390  1
  O  O232  1  0.49761429  0.62565553  0.16762693  1
  O  O233  1  0.50731640  0.62213327  0.41483792  1
  O  O234  1  0.49944881  0.61985243  0.65979400  1
  O  O235  1  0.48933708  0.62917639  0.91080466  1
  O  O236  1  0.50382056  0.86968389  0.17044495  1
  O  O237  1  0.51471610  0.87714752  0.41296880  1
  O  O238  1  0.50598452  0.87924337  0.65572752  1
  O  O239  1  0.49157476  0.87881335  0.91440688  1
  O  O240  1  0.75232726  0.12178459  0.16271062  1
  O  O241  1  0.74754278  0.12836110  0.41612263  1
  O  O242  1  0.75685965  0.13311576  0.65709138  1
  O  O243  1  0.74680185  0.12311270  0.91207755  1
  O  O244  1  0.75757724  0.37471609  0.15996639  1
  O  O245  1  0.75501424  0.37602187  0.41608031  1
  O  O246  1  0.75352615  0.36763370  0.66333554  1
  O  O247  1  0.74885208  0.36884487  0.91423180  1
  O  O248  1  0.75298963  0.62384140  0.16290591  1
  O  O249  1  0.75633898  0.62354587  0.42302504  1
  O  O250  1  0.74939224  0.62080819  0.66664002  1
  O  O251  1  0.74898374  0.62778061  0.90328931  1
  O  O252  1  0.74342512  0.87105088  0.16129247  1
  O  O253  1  0.74785426  0.87787633  0.42215154  1
  O  O254  1  0.74514229  0.88109431  0.66296288  1
  O  O255  1  0.74755620  0.88191631  0.90979934  1
  O  O256  1  0.12562072  0.12008739  0.05531839  1
  O  O257  1  0.11728044  0.12257948  0.29181534  1
  O  O258  1  0.11886888  0.13317196  0.54473466  1
  O  O259  1  0.13107037  0.12189045  0.79929183  1
  O  O260  1  0.12695166  0.37027852  0.04578636  1
  O  O261  1  0.11617349  0.37789316  0.27707620  1
  O  O262  1  0.12001213  0.36895645  0.54834588  1
  O  O263  1  0.13217840  0.36764906  0.78572925  1
  O  O264  1  0.13124860  0.63140946  0.03574952  1
  O  O265  1  0.11589968  0.62971850  0.30097708  1
  O  O266  1  0.11470851  0.61691602  0.53283372  1
  O  O267  1  0.13165275  0.61996949  0.78152492  1
  O  O268  1  0.12797073  0.87481487  0.05590033  1
  O  O269  1  0.11203079  0.87175666  0.29750701  1
  O  O270  1  0.11909553  0.88463613  0.52128851  1
  O  O271  1  0.13426877  0.88396092  0.79735395  1
  O  O272  1  0.37401361  0.11319223  0.05004540  1
  O  O273  1  0.37437039  0.13242528  0.27756438  1
  O  O274  1  0.38131205  0.13212199  0.52908576  1
  O  O275  1  0.37301247  0.12316154  0.80181051  1
  O  O276  1  0.37378619  0.37806872  0.05345505  1
  O  O277  1  0.37362453  0.37906658  0.28000311  1
  O  O278  1  0.37208877  0.37230957  0.54534130  1
  O  O279  1  0.37307565  0.36668471  0.78518029  1
  O  O280  1  0.37528904  0.62779315  0.05394884  1
  O  O281  1  0.37985786  0.62588957  0.29158061  1
  O  O282  1  0.37698509  0.62022059  0.52552262  1
  O  O283  1  0.37187421  0.62616266  0.79420393  1
  O  O284  1  0.37438315  0.87077043  0.05793518  1
  O  O285  1  0.37582584  0.86516503  0.28999498  1
  O  O286  1  0.37975993  0.88240444  0.52176734  1
  O  O287  1  0.37060339  0.87850416  0.79604187  1
  O  O288  1  0.61645375  0.12359060  0.03598935  1
  O  O289  1  0.63515670  0.12176463  0.29793628  1
  O  O290  1  0.62421857  0.13623470  0.53242753  1
  O  O291  1  0.62397498  0.12386527  0.80210925  1
  O  O292  1  0.62059812  0.37249658  0.03431286  1
  O  O293  1  0.63145288  0.37835075  0.29472512  1
  O  O294  1  0.62554446  0.37030869  0.54904650  1
  O  O295  1  0.62206382  0.36586187  0.78787176  1
  O  O296  1  0.62270696  0.62852243  0.04909663  1
  O  O297  1  0.63953722  0.62325095  0.29169772  1
  O  O298  1  0.63537135  0.61923612  0.53690111  1
  O  O299  1  0.61864505  0.62334233  0.77608098  1
  O  O300  1  0.61995389  0.87114676  0.05030477  1
  O  O301  1  0.63408191  0.86925025  0.30048126  1
  O  O302  1  0.62976625  0.88036600  0.54491392  1
  O  O303  1  0.62267428  0.88414266  0.78202755  1
  O  O304  1  0.88187327  0.12195961  0.05096683  1
  O  O305  1  0.86839943  0.12602394  0.28326850  1
  O  O306  1  0.87883497  0.13322834  0.54812179  1
  O  O307  1  0.87746042  0.12636744  0.79986004  1
  O  O308  1  0.87637499  0.37575895  0.04522849  1
  O  O309  1  0.87142761  0.37767191  0.29727018  1
  O  O310  1  0.87553056  0.36981947  0.55501875  1
  O  O311  1  0.87465573  0.36344538  0.78412493  1
  O  O312  1  0.87526065  0.62978248  0.04437416  1
  O  O313  1  0.87528926  0.62736121  0.30083943  1
  O  O314  1  0.87686796  0.62186434  0.54346435  1
  O  O315  1  0.87792439  0.62078711  0.77369559  1
  O  O316  1  0.87803745  0.88219645  0.03470802  1
  O  O317  1  0.86962594  0.86992898  0.30418735  1
  O  O318  1  0.87193182  0.88941055  0.54090098  1
  O  O319  1  0.87393476  0.89149131  0.77983977  1
