# generated using pymatgen
data_VFe(PbO3)2
_symmetry_space_group_name_H-M   'P 1'
_cell_length_a   15.38092389
_cell_length_b   15.37607816
_cell_length_c   18.51445213
_cell_angle_alpha   90.01409042
_cell_angle_beta   89.99577816
_cell_angle_gamma   89.99696276
_symmetry_Int_Tables_number   1
_chemical_formula_structural   VFe(PbO3)2
_chemical_formula_sum   'V32 Fe32 Pb64 O192'
_cell_volume   4378.63607931
_cell_formula_units_Z   32
loop_
 _symmetry_equiv_pos_site_id
 _symmetry_equiv_pos_as_xyz
  1  'x, y, z'
loop_
 _atom_site_type_symbol
 _atom_site_label
 _atom_site_symmetry_multiplicity
 _atom_site_fract_x
 _atom_site_fract_y
 _atom_site_fract_z
 _atom_site_occupancy
  V  V0  1  0.12478489  0.12494822  0.89179698  1
  V  V1  1  0.12440690  0.87421948  0.88845526  1
  V  V2  1  0.87387664  0.88014794  0.38346661  1
  V  V3  1  0.12910931  0.62594964  0.14565462  1
  V  V4  1  0.87417015  0.12250132  0.89304160  1
  V  V5  1  0.87438040  0.87289610  0.63699475  1
  V  V6  1  0.37382486  0.37219587  0.88852193  1
  V  V7  1  0.87431530  0.37916176  0.64069890  1
  V  V8  1  0.37301718  0.62668416  0.88527132  1
  V  V9  1  0.37429945  0.87636143  0.88588415  1
  V  V10  1  0.62445945  0.62605870  0.14011595  1
  V  V11  1  0.12153133  0.62352919  0.63419283  1
  V  V12  1  0.87754171  0.12230484  0.13721133  1
  V  V13  1  0.87491584  0.87698301  0.89547584  1
  V  V14  1  0.62235974  0.12706303  0.38769188  1
  V  V15  1  0.37842183  0.12515958  0.63869911  1
  V  V16  1  0.12427537  0.12774091  0.39109595  1
  V  V17  1  0.12522351  0.37715775  0.39237890  1
  V  V18  1  0.37109133  0.12571826  0.13835571  1
  V  V19  1  0.12401360  0.87565223  0.14599175  1
  V  V20  1  0.12777900  0.37461944  0.13773676  1
  V  V21  1  0.87094357  0.12603746  0.64002735  1
  V  V22  1  0.62360860  0.12276338  0.89330378  1
  V  V23  1  0.37263570  0.87495839  0.14492270  1
  V  V24  1  0.12359584  0.37673359  0.88690468  1
  V  V25  1  0.37309899  0.12954252  0.39266144  1
  V  V26  1  0.63019236  0.62066515  0.63991618  1
  V  V27  1  0.62632566  0.87578014  0.63943549  1
  V  V28  1  0.62405187  0.37724722  0.38700900  1
  V  V29  1  0.37508280  0.37257026  0.39526747  1
  V  V30  1  0.37362481  0.62845314  0.14203784  1
  V  V31  1  0.37537281  0.62410360  0.39297788  1
  Fe  Fe32  1  0.12296144  0.37369569  0.63475029  1
  Fe  Fe33  1  0.62928653  0.12479739  0.63604901  1
  Fe  Fe34  1  0.12134016  0.87563208  0.62716535  1
  Fe  Fe35  1  0.37625902  0.87351276  0.62773944  1
  Fe  Fe36  1  0.87410736  0.62049933  0.37679657  1
  Fe  Fe37  1  0.12451100  0.87524563  0.39286878  1
  Fe  Fe38  1  0.62313576  0.87629283  0.14234466  1
  Fe  Fe39  1  0.37964189  0.62583203  0.63211939  1
  Fe  Fe40  1  0.37666521  0.87802537  0.39449822  1
  Fe  Fe41  1  0.62511836  0.37686540  0.89467903  1
  Fe  Fe42  1  0.37507404  0.12164212  0.88252330  1
  Fe  Fe43  1  0.12785690  0.12389753  0.13540524  1
  Fe  Fe44  1  0.87556178  0.37431613  0.12968606  1
  Fe  Fe45  1  0.87923658  0.62661366  0.88418943  1
  Fe  Fe46  1  0.87805873  0.62691814  0.14438166  1
  Fe  Fe47  1  0.62844599  0.37237985  0.63810853  1
  Fe  Fe48  1  0.62580654  0.87416259  0.37948959  1
  Fe  Fe49  1  0.87352620  0.36950571  0.38025566  1
  Fe  Fe50  1  0.87639275  0.87377257  0.13430293  1
  Fe  Fe51  1  0.62429147  0.87413561  0.88735044  1
  Fe  Fe52  1  0.62316413  0.62303243  0.37882051  1
  Fe  Fe53  1  0.12141981  0.12609172  0.63391686  1
  Fe  Fe54  1  0.12561692  0.62589779  0.88537149  1
  Fe  Fe55  1  0.37719865  0.37763954  0.63458277  1
  Fe  Fe56  1  0.12691072  0.62240370  0.38330376  1
  Fe  Fe57  1  0.37197615  0.37870575  0.13275972  1
  Fe  Fe58  1  0.62057029  0.37428501  0.12715755  1
  Fe  Fe59  1  0.62423492  0.62856923  0.88536782  1
  Fe  Fe60  1  0.87354527  0.12847396  0.38216565  1
  Fe  Fe61  1  0.62171979  0.12372850  0.13377451  1
  Fe  Fe62  1  0.87187466  0.62535641  0.63873165  1
  Fe  Fe63  1  0.87636996  0.37294200  0.89712144  1
  Pb  Pb64  1  0.00124497  -0.00079114  0.00422495  1
  Pb  Pb65  1  -0.00245136  0.00465574  0.25209658  1
  Pb  Pb66  1  0.00548038  0.00150928  0.49982442  1
  Pb  Pb67  1  0.00042571  -0.00203470  0.74544605  1
  Pb  Pb68  1  -0.00049418  0.25238867  0.00330842  1
  Pb  Pb69  1  -0.01021639  0.25034148  0.25089487  1
  Pb  Pb70  1  0.00425383  0.25136774  0.50160824  1
  Pb  Pb71  1  -0.00449233  0.25358802  0.75005790  1
  Pb  Pb72  1  -0.01214373  0.51137062  0.00430845  1
  Pb  Pb73  1  -0.00607140  0.49872406  0.24927215  1
  Pb  Pb74  1  -0.00874499  0.50757903  0.49619105  1
  Pb  Pb75  1  -0.00214443  0.50902678  0.75498549  1
  Pb  Pb76  1  -0.00726496  0.74695778  0.00745903  1
  Pb  Pb77  1  0.00138741  0.74491152  0.25398173  1
  Pb  Pb78  1  -0.00111174  0.74701004  0.49127619  1
  Pb  Pb79  1  0.00098267  0.73921182  0.75106720  1
  Pb  Pb80  1  0.24624310  0.00464077  0.00079920  1
  Pb  Pb81  1  0.25047810  -0.01080607  0.26165285  1
  Pb  Pb82  1  0.24838517  -0.00635880  0.50370007  1
  Pb  Pb83  1  0.25063386  0.00045242  0.74083269  1
  Pb  Pb84  1  0.24969140  0.24790228  -0.00116277  1
  Pb  Pb85  1  0.24802916  0.25073702  0.24903048  1
  Pb  Pb86  1  0.24234483  0.25191142  0.50887745  1
  Pb  Pb87  1  0.25064718  0.24841481  0.74432129  1
  Pb  Pb88  1  0.25415951  0.49439238  -0.00104540  1
  Pb  Pb89  1  0.24697281  0.50548656  0.25425961  1
  Pb  Pb90  1  0.25817786  0.49753819  0.50613193  1
  Pb  Pb91  1  0.25076658  0.50132015  0.74207920  1
  Pb  Pb92  1  0.25106663  0.75035958  -0.00206313  1
  Pb  Pb93  1  0.24576044  0.75770024  0.26370424  1
  Pb  Pb94  1  0.24897042  0.75399152  0.49842347  1
  Pb  Pb95  1  0.24970458  0.75161450  0.73621015  1
  Pb  Pb96  1  0.50715807  -0.00177977  0.00560559  1
  Pb  Pb97  1  0.49712131  -0.00723047  0.25425350  1
  Pb  Pb98  1  0.50044680  -0.00218313  0.49897586  1
  Pb  Pb99  1  0.49482510  0.00292421  0.74933769  1
  Pb  Pb100  1  0.50336501  0.24864626  0.00079764  1
  Pb  Pb101  1  0.50260872  0.25403934  0.24275906  1
  Pb  Pb102  1  0.50908195  0.25563423  0.50676673  1
  Pb  Pb103  1  0.50657091  0.25385284  0.74807932  1
  Pb  Pb104  1  0.49920524  0.49554156  -0.00264630  1
  Pb  Pb105  1  0.50268519  0.50128704  0.24778157  1
  Pb  Pb106  1  0.49541196  0.49852728  0.50471945  1
  Pb  Pb107  1  0.50688059  0.50013443  0.74789254  1
  Pb  Pb108  1  0.50860317  0.75495170  0.00169090  1
  Pb  Pb109  1  0.50483390  0.75061167  0.25692170  1
  Pb  Pb110  1  0.50041210  0.75119193  0.49543134  1
  Pb  Pb111  1  0.50812847  0.75015769  0.74890740  1
  Pb  Pb112  1  0.73981548  -0.00334038  0.00783564  1
  Pb  Pb113  1  0.74561231  -0.00157926  0.24459464  1
  Pb  Pb114  1  0.74586369  0.00625519  0.49532002  1
  Pb  Pb115  1  0.74610812  -0.00699728  0.75317675  1
  Pb  Pb116  1  0.74764567  0.25595341  0.00328907  1
  Pb  Pb117  1  0.75478682  0.25294572  0.24122031  1
  Pb  Pb118  1  0.74274185  0.25190945  0.49993560  1
  Pb  Pb119  1  0.74898082  0.25902796  0.75995398  1
  Pb  Pb120  1  0.75245870  0.50539605  -0.00556952  1
  Pb  Pb121  1  0.75662623  0.49567827  0.24194114  1
  Pb  Pb122  1  0.75606546  0.50426909  0.49476954  1
  Pb  Pb123  1  0.75382487  0.48692459  0.76505732  1
  Pb  Pb124  1  0.75650514  0.74835574  0.00061977  1
  Pb  Pb125  1  0.74969993  0.74968346  0.24624366  1
  Pb  Pb126  1  0.75175309  0.74295725  0.48902833  1
  Pb  Pb127  1  0.74237726  0.74663313  0.75648349  1
  O  O128  1  0.12902729  -0.00599094  0.16575814  1
  O  O129  1  0.12741973  0.01024522  0.41242527  1
  O  O130  1  0.12072768  0.00112789  0.66157678  1
  O  O131  1  0.12663973  -0.00417466  0.91613151  1
  O  O132  1  0.13077261  0.25510134  0.16055012  1
  O  O133  1  0.12982096  0.24855722  0.41705339  1
  O  O134  1  0.12126727  0.24820876  0.66927476  1
  O  O135  1  0.12954152  0.25160188  0.91465149  1
  O  O136  1  0.13065444  0.49696124  0.16518107  1
  O  O137  1  0.12932573  0.49271782  0.41078325  1
  O  O138  1  0.12063788  0.50427916  0.65978884  1
  O  O139  1  0.12915572  0.49184238  0.90879616  1
  O  O140  1  0.13005985  0.75411384  0.17068931  1
  O  O141  1  0.12501883  0.74732809  0.41374287  1
  O  O142  1  0.12022657  0.74515403  0.65533509  1
  O  O143  1  0.12742308  0.75881909  0.91270004  1
  O  O144  1  0.37037382  -0.00396292  0.16479816  1
  O  O145  1  0.37704951  0.01325451  0.41693337  1
  O  O146  1  0.37720027  0.00184578  0.66120986  1
  O  O147  1  0.37094643  -0.00800529  0.91189658  1
  O  O148  1  0.37068177  0.24396146  0.15828790  1
  O  O149  1  0.37702231  0.24676904  0.42103124  1
  O  O150  1  0.37818791  0.24407727  0.66065782  1
  O  O151  1  0.37192015  0.25307262  0.90898930  1
  O  O152  1  0.37221897  0.50957464  0.16305323  1
  O  O153  1  0.37574373  0.49779435  0.41712916  1
  O  O154  1  0.37736937  0.50371180  0.66786600  1
  O  O155  1  0.37056946  0.49797778  0.91076773  1
  O  O156  1  0.37197657  0.75043033  0.16967760  1
  O  O157  1  0.37584830  0.74290177  0.41092199  1
  O  O158  1  0.37660779  0.75019196  0.66044422  1
  O  O159  1  0.36815006  0.75625577  0.91219111  1
  O  O160  1  0.62048514  0.00307047  0.16766504  1
  O  O161  1  0.62388004  0.00788374  0.40797697  1
  O  O162  1  0.63011492  -0.00531023  0.66387864  1
  O  O163  1  0.62455388  0.00035374  0.91770901  1
  O  O164  1  0.61936876  0.24791704  0.16034854  1
  O  O165  1  0.62116187  0.25015494  0.41421397  1
  O  O166  1  0.62830607  0.24705863  0.66982052  1
  O  O167  1  0.62310152  0.24107176  0.91373278  1
  O  O168  1  0.61714519  0.50624456  0.15775854  1
  O  O169  1  0.62165745  0.49242792  0.40715448  1
  O  O170  1  0.62935356  0.50470479  0.66066610  1
  O  O171  1  0.62163398  0.50450315  0.91535967  1
  O  O172  1  0.61772067  0.74481118  0.16415957  1
  O  O173  1  0.62528119  0.74881347  0.40949077  1
  O  O174  1  0.62940496  0.75520339  0.66345617  1
  O  O175  1  0.62317776  0.75216441  0.92050343  1
  O  O176  1  0.88032046  0.00377967  0.16250276  1
  O  O177  1  0.87361351  0.00040889  0.41181412  1
  O  O178  1  0.87273415  -0.00211241  0.66551213  1
  O  O179  1  0.87870237  -0.00213949  0.92198027  1
  O  O180  1  0.87943601  0.24482138  0.15769711  1
  O  O181  1  0.87467139  0.24967542  0.41597535  1
  O  O182  1  0.87245877  0.24603209  0.66229432  1
  O  O183  1  0.87669077  0.24082779  0.91936337  1
  O  O184  1  0.87778417  0.49831380  0.16026916  1
  O  O185  1  0.87438230  0.49343841  0.40999205  1
  O  O186  1  0.87384766  0.49400756  0.66294800  1
  O  O187  1  0.87932431  0.50127838  0.91520356  1
  O  O188  1  0.87809942  0.75191290  0.16908916  1
  O  O189  1  0.87432943  0.75829490  0.40258175  1
  O  O190  1  0.87375532  0.75765610  0.65906039  1
  O  O191  1  0.88163787  0.75831558  0.91434208  1
  O  O192  1  -0.00001974  0.12402663  0.16244098  1
  O  O193  1  0.00724812  0.12840983  0.40918959  1
  O  O194  1  -0.01128406  0.12352452  0.66601044  1
  O  O195  1  0.00190181  0.12168414  0.91873746  1
  O  O196  1  0.01117200  0.37556785  0.15895215  1
  O  O197  1  0.00868102  0.36970546  0.40897213  1
  O  O198  1  -0.00897788  0.37044289  0.66466313  1
  O  O199  1  0.01016708  0.36896778  0.91173290  1
  O  O200  1  0.00927478  0.62615218  0.16649621  1
  O  O201  1  -0.00115978  0.62194136  0.40890516  1
  O  O202  1  0.00167021  0.62438540  0.66226182  1
  O  O203  1  0.00453227  0.62777178  0.91905599  1
  O  O204  1  0.00800447  0.87456572  0.16586217  1
  O  O205  1  -0.00841665  0.88027667  0.41099938  1
  O  O206  1  -0.00801254  0.87788342  0.65907673  1
  O  O207  1  0.00594328  0.87902585  0.91470701  1
  O  O208  1  0.25534347  0.12198310  0.16831752  1
  O  O209  1  0.25339448  0.12945267  0.41525932  1
  O  O210  1  0.25594909  0.12420050  0.65884306  1
  O  O211  1  0.24821521  0.12240571  0.91507448  1
  O  O212  1  0.24711568  0.37648329  0.16794066  1
  O  O213  1  0.24954717  0.37098074  0.41892043  1
  O  O214  1  0.25032277  0.37434662  0.66333367  1
  O  O215  1  0.24924837  0.37347776  0.91390217  1
  O  O216  1  0.25485949  0.62825587  0.17140314  1
  O  O217  1  0.25635867  0.62052382  0.41575512  1
  O  O218  1  0.24172333  0.62487874  0.65491113  1
  O  O219  1  0.25235238  0.62705068  0.91630953  1
  O  O220  1  0.25075875  0.87342666  0.17178271  1
  O  O221  1  0.25110017  0.87833404  0.41842284  1
  O  O222  1  0.24811927  0.87515190  0.65418629  1
  O  O223  1  0.24728278  0.87664779  0.91303376  1
  O  O224  1  0.48623000  0.12079632  0.16332286  1
  O  O225  1  0.50104920  0.12885297  0.41453666  1
  O  O226  1  0.49838894  0.12143809  0.66313068  1
  O  O227  1  0.50319511  0.12074359  0.91207720  1
  O  O228  1  0.49541050  0.37643587  0.16267026  1
  O  O229  1  0.50243726  0.37147549  0.41590241  1
  O  O230  1  0.50229986  0.37582458  0.66759707  1
  O  O231  1  0.49087471  0.37420714  0.90925439  1
  O  O232  1  0.49272478  0.62802854  0.16508636  1
  O  O233  1  0.49537390  0.62062037  0.41308890  1
  O  O234  1  0.51108707  0.62873235  0.66212341  1
  O  O235  1  0.48923531  0.62874729  0.91441930  1
  O  O236  1  0.48985736  0.87435265  0.16649537  1
  O  O237  1  0.50335968  0.87788039  0.41451017  1
  O  O238  1  0.50890713  0.87596214  0.65695769  1
  O  O239  1  0.49042332  0.87418512  0.90856971  1
  O  O240  1  0.75733479  0.12400487  0.15607602  1
  O  O241  1  0.74162695  0.12841264  0.40816366  1
  O  O242  1  0.75738501  0.12084481  0.66836189  1
  O  O243  1  0.74760122  0.12010329  0.91806353  1
  O  O244  1  0.74761478  0.37356139  0.15234437  1
  O  O245  1  0.74065233  0.37038487  0.40585854  1
  O  O246  1  0.75732950  0.37287930  0.67005904  1
  O  O247  1  0.74969127  0.37264598  0.92100874  1
  O  O248  1  0.74155533  0.62615286  0.15598342  1
  O  O249  1  0.74975978  0.62165180  0.40832728  1
  O  O250  1  0.74509338  0.63019515  0.66520832  1
  O  O251  1  0.75318225  0.63027726  0.91185214  1
  O  O252  1  0.75057933  0.87647935  0.16219004  1
  O  O253  1  0.75508266  0.87932614  0.40819967  1
  O  O254  1  0.75250800  0.87586817  0.66742733  1
  O  O255  1  0.75738220  0.87639492  0.91379181  1
  O  O256  1  0.13259772  0.12011860  0.03622539  1
  O  O257  1  0.12956719  0.13169833  0.29976905  1
  O  O258  1  0.11895593  0.13192329  0.53423285  1
  O  O259  1  0.12289461  0.12365478  0.80077647  1
  O  O260  1  0.13237527  0.37683265  0.04666995  1
  O  O261  1  0.13074428  0.37042944  0.30131626  1
  O  O262  1  0.12220818  0.36515653  0.53528192  1
  O  O263  1  0.12488421  0.37259823  0.79578309  1
  O  O264  1  0.13391225  0.62820620  0.05437269  1
  O  O265  1  0.13230819  0.62249682  0.28342595  1
  O  O266  1  0.11752256  0.62183872  0.54297125  1
  O  O267  1  0.11614975  0.62731222  0.78599181  1
  O  O268  1  0.12873259  0.87190186  0.05493545  1
  O  O269  1  0.13345713  0.87704413  0.29164353  1
  O  O270  1  0.11838888  0.88155258  0.52640793  1
  O  O271  1  0.12328867  0.87600515  0.79757819  1
  O  O272  1  0.36897192  0.12121087  0.04690219  1
  O  O273  1  0.37330704  0.13079974  0.30196662  1
  O  O274  1  0.37984677  0.12354502  0.54779406  1
  O  O275  1  0.37668010  0.11648449  0.78374276  1
  O  O276  1  0.36837736  0.38000554  0.03323116  1
  O  O277  1  0.37365956  0.37303262  0.30415492  1
  O  O278  1  0.37960743  0.38375734  0.53409965  1
  O  O279  1  0.37014897  0.37534379  0.79767884  1
  O  O280  1  0.37081115  0.63279869  0.05134779  1
  O  O281  1  0.37398508  0.61973483  0.30169115  1
  O  O282  1  0.38009147  0.61670258  0.53262608  1
  O  O283  1  0.37212998  0.62773561  0.79417984  1
  O  O284  1  0.36948666  0.87235672  0.05430237  1
  O  O285  1  0.37095261  0.88274962  0.29295604  1
  O  O286  1  0.37963022  0.87774024  0.52711590  1
  O  O287  1  0.37196063  0.87574968  0.79474358  1
  O  O288  1  0.61723408  0.11691355  0.03363001  1
  O  O289  1  0.61928018  0.13172839  0.29685657  1
  O  O290  1  0.63268986  0.12902788  0.53649600  1
  O  O291  1  0.62693146  0.11906039  0.80208448  1
  O  O292  1  0.61169467  0.36905878  0.02606365  1
  O  O293  1  0.61844037  0.37245060  0.29574659  1
  O  O294  1  0.62962453  0.36661045  0.53812164  1
  O  O295  1  0.63580603  0.37566970  0.79244364  1
  O  O296  1  0.61593032  0.63055780  0.04904966  1
  O  O297  1  0.61767298  0.62328389  0.27919363  1
  O  O298  1  0.63090626  0.62540256  0.54853355  1
  O  O299  1  0.62260439  0.63681615  0.78505433  1
  O  O300  1  0.61596474  0.88118468  0.04035968  1
  O  O301  1  0.61940511  0.87471609  0.27902506  1
  O  O302  1  0.63341825  0.87559429  0.54858992  1
  O  O303  1  0.62940998  0.87133221  0.78750431  1
  O  O304  1  0.88153249  0.12059901  0.04602022  1
  O  O305  1  0.88016401  0.13047782  0.28231502  1
  O  O306  1  0.87026288  0.12306616  0.54890280  1
  O  O307  1  0.87475868  0.12041065  0.80219436  1
  O  O308  1  0.88516400  0.36905310  0.02883976  1
  O  O309  1  0.87551217  0.36717002  0.27915421  1
  O  O310  1  0.87154729  0.37729200  0.54952617  1
  O  O311  1  0.86765513  0.37304961  0.79526464  1
  O  O312  1  0.88455144  0.63097788  0.04212135  1
  O  O313  1  0.87471604  0.61788921  0.27548417  1
  O  O314  1  0.87161147  0.61673994  0.53829970  1
  O  O315  1  0.88741468  0.62564383  0.78263835  1
  O  O316  1  0.88226325  0.87004861  0.03436785  1
  O  O317  1  0.87644749  0.88510133  0.29238160  1
  O  O318  1  0.87038540  0.87717508  0.54637773  1
  O  O319  1  0.87891268  0.88038790  0.80461299  1
