# generated using pymatgen
data_VFe(PbO3)2
_symmetry_space_group_name_H-M   'P 1'
_cell_length_a   15.38923423
_cell_length_b   15.38167387
_cell_length_c   18.50961394
_cell_angle_alpha   90.00957299
_cell_angle_beta   90.01999654
_cell_angle_gamma   89.99836980
_symmetry_Int_Tables_number   1
_chemical_formula_structural   VFe(PbO3)2
_chemical_formula_sum   'V32 Fe32 Pb64 O192'
_cell_volume   4381.45077664
_cell_formula_units_Z   32
loop_
 _symmetry_equiv_pos_site_id
 _symmetry_equiv_pos_as_xyz
  1  'x, y, z'
loop_
 _atom_site_type_symbol
 _atom_site_label
 _atom_site_symmetry_multiplicity
 _atom_site_fract_x
 _atom_site_fract_y
 _atom_site_fract_z
 _atom_site_occupancy
  V  V0  1  0.87445775  0.12674688  0.63754478  1
  V  V1  1  0.62286768  0.12355159  0.14074264  1
  V  V2  1  0.37753987  0.62528215  0.63661818  1
  V  V3  1  0.37308927  0.12427843  0.13979393  1
  V  V4  1  0.37607540  0.87280055  0.88671211  1
  V  V5  1  0.62308702  0.37515512  0.63918746  1
  V  V6  1  0.62208665  0.12268116  0.88483550  1
  V  V7  1  0.13066769  0.62589365  0.88899556  1
  V  V8  1  0.12261005  0.12584811  0.39732773  1
  V  V9  1  0.87863882  0.62468918  0.88882778  1
  V  V10  1  0.62194846  0.37702791  0.38807892  1
  V  V11  1  0.87378481  0.87536204  0.14057524  1
  V  V12  1  0.62626714  0.62724452  0.38947611  1
  V  V13  1  0.12803410  0.87610567  0.39326390  1
  V  V14  1  0.12581759  0.37313710  0.39210539  1
  V  V15  1  0.12452139  0.12271144  0.13779467  1
  V  V16  1  0.62608113  0.37756839  0.88843605  1
  V  V17  1  0.87280649  0.37472544  0.14041710  1
  V  V18  1  0.62711219  0.87543711  0.14250304  1
  V  V19  1  0.37700865  0.37712924  0.64111249  1
  V  V20  1  0.62465759  0.62707277  0.88823121  1
  V  V21  1  0.87446249  0.37319422  0.39139942  1
  V  V22  1  0.87280872  0.12443163  0.14056646  1
  V  V23  1  0.62610230  0.62124115  0.63724021  1
  V  V24  1  0.37303334  0.12562362  0.39602894  1
  V  V25  1  0.62660200  0.62806178  0.14208551  1
  V  V26  1  0.62697656  0.88157761  0.39632365  1
  V  V27  1  0.37304914  0.37350377  0.38633015  1
  V  V28  1  0.87909036  0.87643742  0.39243785  1
  V  V29  1  0.87340797  0.87203647  0.63593950  1
  V  V30  1  0.62627448  0.37631751  0.14206211  1
  V  V31  1  0.12758072  0.12320117  0.88253974  1
  Fe  Fe32  1  0.12514890  0.87726701  0.13620340  1
  Fe  Fe33  1  0.37685336  0.12732410  0.63931830  1
  Fe  Fe34  1  0.12286427  0.37578891  0.88487274  1
  Fe  Fe35  1  0.12459417  0.62388052  0.39235476  1
  Fe  Fe36  1  0.87774710  0.12428028  0.39003627  1
  Fe  Fe37  1  0.12692832  0.87523102  0.63523639  1
  Fe  Fe38  1  0.87322954  0.37508723  0.88168031  1
  Fe  Fe39  1  0.12117802  0.62595887  0.13352954  1
  Fe  Fe40  1  0.87389137  0.62591616  0.39632542  1
  Fe  Fe41  1  0.37767706  0.87705407  0.14107009  1
  Fe  Fe42  1  0.37576595  0.62214225  0.38416155  1
  Fe  Fe43  1  0.12495161  0.12550555  0.63414767  1
  Fe  Fe44  1  0.37724406  0.87374493  0.62413251  1
  Fe  Fe45  1  0.12230998  0.37247789  0.13335457  1
  Fe  Fe46  1  0.87285259  0.37650083  0.63782800  1
  Fe  Fe47  1  0.62372332  0.87183481  0.88111570  1
  Fe  Fe48  1  0.12381142  0.87251864  0.88099701  1
  Fe  Fe49  1  0.87633371  0.12492504  0.88099202  1
  Fe  Fe50  1  0.87169414  0.62541140  0.13642091  1
  Fe  Fe51  1  0.87451650  0.62508302  0.62775692  1
  Fe  Fe52  1  0.37626594  0.62577387  0.13675057  1
  Fe  Fe53  1  0.62470793  0.87451968  0.63044743  1
  Fe  Fe54  1  0.37472075  0.12395607  0.87926064  1
  Fe  Fe55  1  0.37474324  0.37622601  0.88696916  1
  Fe  Fe56  1  0.12614812  0.62349924  0.62769654  1
  Fe  Fe57  1  0.62628316  0.12698071  0.62856127  1
  Fe  Fe58  1  0.87248241  0.87436910  0.88170333  1
  Fe  Fe59  1  0.37675126  0.87531130  0.39710280  1
  Fe  Fe60  1  0.37688001  0.37251429  0.13477459  1
  Fe  Fe61  1  0.12650383  0.37688114  0.63606421  1
  Fe  Fe62  1  0.62592350  0.13034275  0.39830799  1
  Fe  Fe63  1  0.37631514  0.62605040  0.88829091  1
  Pb  Pb64  1  0.00082291  -0.00564579  -0.00969714  1
  Pb  Pb65  1  -0.00645793  0.00470604  0.25183957  1
  Pb  Pb66  1  0.00868231  -0.00190366  0.50771860  1
  Pb  Pb67  1  -0.00210403  -0.00323066  0.74681648  1
  Pb  Pb68  1  0.00249560  0.25388522  -0.00734669  1
  Pb  Pb69  1  -0.00758303  0.24482729  0.25110823  1
  Pb  Pb70  1  0.00252417  0.26106787  0.50828290  1
  Pb  Pb71  1  0.00445558  0.26242152  0.74870431  1
  Pb  Pb72  1  0.00663939  0.49916330  0.00040145  1
  Pb  Pb73  1  0.00708401  0.51023783  0.25228298  1
  Pb  Pb74  1  0.00010588  0.50037287  0.50351741  1
  Pb  Pb75  1  0.00397511  0.50009772  0.73896942  1
  Pb  Pb76  1  0.00472931  0.74873754  0.00093790  1
  Pb  Pb77  1  0.00754588  0.73836047  0.25383516  1
  Pb  Pb78  1  0.00294245  0.74062895  0.50251141  1
  Pb  Pb79  1  0.00631553  0.75102732  0.74356545  1
  Pb  Pb80  1  0.24799318  -0.01022091  -0.00350859  1
  Pb  Pb81  1  0.25396070  -0.01049528  0.25444484  1
  Pb  Pb82  1  0.24163862  0.00177246  0.51108209  1
  Pb  Pb83  1  0.25390077  0.00093468  0.73781861  1
  Pb  Pb84  1  0.25098188  0.25570787  -0.00589413  1
  Pb  Pb85  1  0.24701708  0.25406251  0.24575955  1
  Pb  Pb86  1  0.24568289  0.24758400  0.50818015  1
  Pb  Pb87  1  0.24388027  0.25419611  0.74863300  1
  Pb  Pb88  1  0.25331207  0.49314091  0.00133972  1
  Pb  Pb89  1  0.24782807  0.50549130  0.24087530  1
  Pb  Pb90  1  0.24254813  0.50095577  0.49935524  1
  Pb  Pb91  1  0.25720477  0.50118571  0.75192018  1
  Pb  Pb92  1  0.24066459  0.75042711  0.00586427  1
  Pb  Pb93  1  0.24904014  0.74396098  0.24513928  1
  Pb  Pb94  1  0.25136842  0.74635597  0.49519886  1
  Pb  Pb95  1  0.24661701  0.75439866  0.74257254  1
  Pb  Pb96  1  0.49353516  -0.00630740  -0.00234204  1
  Pb  Pb97  1  0.49867005  -0.00374024  0.25896457  1
  Pb  Pb98  1  0.48964536  0.00704852  0.50996601  1
  Pb  Pb99  1  0.50176626  0.00059935  0.73613508  1
  Pb  Pb100  1  0.49463488  0.25401170  -0.00342514  1
  Pb  Pb101  1  0.50749301  0.24302299  0.25344113  1
  Pb  Pb102  1  0.49599113  0.24145038  0.50736856  1
  Pb  Pb103  1  0.49510743  0.24574646  0.75160307  1
  Pb  Pb104  1  0.48900729  0.50257157  0.00412812  1
  Pb  Pb105  1  0.49288534  0.50342452  0.24850691  1
  Pb  Pb106  1  0.49983077  0.49772671  0.49864769  1
  Pb  Pb107  1  0.49080702  0.50282356  0.75813151  1
  Pb  Pb108  1  0.48620015  0.75225325  0.00687938  1
  Pb  Pb109  1  0.48454965  0.75310085  0.25855760  1
  Pb  Pb110  1  0.49911218  0.75736255  0.50138218  1
  Pb  Pb111  1  0.50255290  0.75485535  0.74532299  1
  Pb  Pb112  1  0.75016625  -0.00351923  -0.00781538  1
  Pb  Pb113  1  0.74662027  0.00767107  0.25669454  1
  Pb  Pb114  1  0.74573763  0.00459489  0.50326448  1
  Pb  Pb115  1  0.75349532  -0.00007236  0.74642956  1
  Pb  Pb116  1  0.75058514  0.24904852  -0.00531307  1
  Pb  Pb117  1  0.74612721  0.24117644  0.25699297  1
  Pb  Pb118  1  0.75245112  0.25103289  0.50176900  1
  Pb  Pb119  1  0.76125497  0.24691020  0.75194296  1
  Pb  Pb120  1  0.75394975  0.50611603  0.00079768  1
  Pb  Pb121  1  0.75702190  0.50470523  0.25516979  1
  Pb  Pb122  1  0.76161296  0.49643898  0.50505397  1
  Pb  Pb123  1  0.75706761  0.49945027  0.74758945  1
  Pb  Pb124  1  0.75214479  0.74736129  -0.00121997  1
  Pb  Pb125  1  0.75632786  0.74606024  0.25604065  1
  Pb  Pb126  1  0.74665427  0.75318270  0.50396769  1
  Pb  Pb127  1  0.75056731  0.76190246  0.75051929  1
  O  O128  1  0.12366800  0.00529304  0.16855020  1
  O  O129  1  0.12499204  -0.00141672  0.41901367  1
  O  O130  1  0.12219474  0.00073017  0.66396918  1
  O  O131  1  0.12677208  0.00254598  0.90795177  1
  O  O132  1  0.12235024  0.24295739  0.16657532  1
  O  O133  1  0.12481570  0.25236680  0.41939024  1
  O  O134  1  0.12600988  0.25022460  0.66332620  1
  O  O135  1  0.12532297  0.24152021  0.90944523  1
  O  O136  1  0.11970262  0.49701505  0.16328932  1
  O  O137  1  0.12392966  0.49054958  0.41139482  1
  O  O138  1  0.12883407  0.50197526  0.66186342  1
  O  O139  1  0.11994754  0.50904791  0.91091347  1
  O  O140  1  0.12054926  0.75380063  0.16689257  1
  O  O141  1  0.12241338  0.75894612  0.41219195  1
  O  O142  1  0.12643868  0.74779835  0.65995071  1
  O  O143  1  0.12297773  0.74453006  0.91544963  1
  O  O144  1  0.37844269  0.00859234  0.17062941  1
  O  O145  1  0.37635037  0.00958379  0.41606293  1
  O  O146  1  0.38031695  -0.00167917  0.65383679  1
  O  O147  1  0.37688089  -0.00551250  0.91078587  1
  O  O148  1  0.37748697  0.24081205  0.16424161  1
  O  O149  1  0.37360375  0.25309815  0.41969343  1
  O  O150  1  0.38103999  0.26114156  0.66073306  1
  O  O151  1  0.37688708  0.24803031  0.91253987  1
  O  O152  1  0.37980286  0.49849696  0.16208188  1
  O  O153  1  0.37485053  0.49223199  0.41387128  1
  O  O154  1  0.37984557  0.50008658  0.66674213  1
  O  O155  1  0.37729637  0.50149318  0.91884317  1
  O  O156  1  0.38012731  0.75120784  0.16679204  1
  O  O157  1  0.37963624  0.74691655  0.41279726  1
  O  O158  1  0.37908612  0.74164496  0.65223958  1
  O  O159  1  0.37812853  0.75529631  0.91394642  1
  O  O160  1  0.62692175  0.00150433  0.17046522  1
  O  O161  1  0.62810133  -0.00226012  0.41264029  1
  O  O162  1  0.62512675  0.00075625  0.65153419  1
  O  O163  1  0.62280569  0.00522432  0.90516050  1
  O  O164  1  0.62691090  0.24817355  0.16941262  1
  O  O165  1  0.62680195  0.26331651  0.41677529  1
  O  O166  1  0.62295396  0.26020849  0.65787342  1
  O  O167  1  0.62476809  0.25242839  0.91189227  1
  O  O168  1  0.62985261  0.50187071  0.16613543  1
  O  O169  1  0.62818416  0.49388311  0.41375213  1
  O  O170  1  0.62176062  0.50259008  0.66775069  1
  O  O171  1  0.62803688  0.49833284  0.91180049  1
  O  O172  1  0.63070051  0.74704773  0.16518867  1
  O  O173  1  0.62633976  0.74398439  0.41161821  1
  O  O174  1  0.62290026  0.73836148  0.65901805  1
  O  O175  1  0.62709339  0.74222852  0.91208266  1
  O  O176  1  0.86966579  -0.00005920  0.16979043  1
  O  O177  1  0.87170472  -0.00743615  0.41769126  1
  O  O178  1  0.87075673  -0.00074797  0.65970626  1
  O  O179  1  0.87198491  0.00185189  0.91398799  1
  O  O180  1  0.87141931  0.24841253  0.16757808  1
  O  O181  1  0.87779211  0.25626584  0.41631320  1
  O  O182  1  0.87049693  0.24507692  0.65869679  1
  O  O183  1  0.87162165  0.24863728  0.91342423  1
  O  O184  1  0.86937365  0.49149951  0.16157938  1
  O  O185  1  0.87618183  0.49116764  0.41462973  1
  O  O186  1  0.87115300  0.50272763  0.66219548  1
  O  O187  1  0.87082168  0.50614313  0.91224177  1
  O  O188  1  0.86854886  0.75896101  0.16174296  1
  O  O189  1  0.87329486  0.75944799  0.41742251  1
  O  O190  1  0.87159811  0.75436246  0.65503435  1
  O  O191  1  0.86859867  0.74218520  0.91272220  1
  O  O192  1  -0.00244363  0.12343534  0.16578906  1
  O  O193  1  0.00292778  0.12434138  0.41896311  1
  O  O194  1  -0.00907383  0.12268624  0.65886828  1
  O  O195  1  0.00733787  0.12229707  0.90776449  1
  O  O196  1  -0.01160659  0.36884155  0.16309979  1
  O  O197  1  0.00148454  0.37251312  0.41462361  1
  O  O198  1  -0.00140256  0.37485749  0.66120350  1
  O  O199  1  -0.00263895  0.37574130  0.91290589  1
  O  O200  1  -0.00591287  0.62544204  0.16627184  1
  O  O201  1  -0.00086708  0.62545747  0.41692085  1
  O  O202  1  -0.00066009  0.62588776  0.65444683  1
  O  O203  1  -0.00468025  0.62718901  0.90896609  1
  O  O204  1  -0.01136229  0.88159147  0.16081368  1
  O  O205  1  -0.00210664  0.87853642  0.41495684  1
  O  O206  1  -0.00898125  0.87628459  0.65883844  1
  O  O207  1  -0.00170622  0.87287551  0.91112995  1
  O  O208  1  0.25374291  0.12433979  0.16227735  1
  O  O209  1  0.25249764  0.12867240  0.41994638  1
  O  O210  1  0.25127047  0.12724429  0.66107599  1
  O  O211  1  0.24547149  0.12227879  0.90852729  1
  O  O212  1  0.24967196  0.37022256  0.16278363  1
  O  O213  1  0.24652628  0.37179046  0.41296986  1
  O  O214  1  0.26027095  0.37864041  0.66022406  1
  O  O215  1  0.24743981  0.37725795  0.91434683  1
  O  O216  1  0.24862395  0.62574836  0.15868441  1
  O  O217  1  0.25097394  0.62352136  0.41289782  1
  O  O218  1  0.26077772  0.62111154  0.65702357  1
  O  O219  1  0.24504819  0.62643431  0.91027974  1
  O  O220  1  0.25083608  0.87868095  0.16847848  1
  O  O221  1  0.24433404  0.87810349  0.41162583  1
  O  O222  1  0.25502838  0.87267010  0.65695307  1
  O  O223  1  0.25615753  0.87288712  0.90996772  1
  O  O224  1  0.49904996  0.12480917  0.16754703  1
  O  O225  1  0.49379228  0.13137767  0.41590533  1
  O  O226  1  0.50468798  0.13081554  0.66288258  1
  O  O227  1  0.50639840  0.12695701  0.91208204  1
  O  O228  1  0.50714602  0.37142896  0.16613794  1
  O  O229  1  0.50283881  0.37695270  0.40787435  1
  O  O230  1  0.50256199  0.38111813  0.66652741  1
  O  O231  1  0.50969361  0.37597612  0.91439541  1
  O  O232  1  0.51199473  0.62508896  0.16540057  1
  O  O233  1  0.51010588  0.61708495  0.41290113  1
  O  O234  1  0.49930169  0.62092392  0.66411688  1
  O  O235  1  0.50970303  0.62223043  0.91267826  1
  O  O236  1  0.50844221  0.87821972  0.17226079  1
  O  O237  1  0.51053887  0.87398656  0.41458734  1
  O  O238  1  0.50030507  0.86818543  0.65747169  1
  O  O239  1  0.49683346  0.87480027  0.91252766  1
  O  O240  1  0.74829763  0.12489665  0.16887693  1
  O  O241  1  0.75383241  0.12838263  0.41882995  1
  O  O242  1  0.75335332  0.12543192  0.65951443  1
  O  O243  1  0.73891253  0.12691760  0.91201628  1
  O  O244  1  0.75204467  0.37045222  0.17073907  1
  O  O245  1  0.75309836  0.37468317  0.41049909  1
  O  O246  1  0.73975676  0.38032439  0.66155357  1
  O  O247  1  0.74416363  0.37479092  0.91561181  1
  O  O248  1  0.74653434  0.62461683  0.17145658  1
  O  O249  1  0.74123671  0.62084901  0.41758607  1
  O  O250  1  0.74249631  0.62155475  0.65596214  1
  O  O251  1  0.74625917  0.62214819  0.91488085  1
  O  O252  1  0.75024521  0.87897252  0.17235355  1
  O  O253  1  0.74942060  0.87274869  0.41714783  1
  O  O254  1  0.75335839  0.87335223  0.65930948  1
  O  O255  1  0.74686186  0.87417321  0.91517199  1
  O  O256  1  0.12485433  0.12233803  0.04711522  1
  O  O257  1  0.12681206  0.12461291  0.30633908  1
  O  O258  1  0.13005287  0.12126079  0.53264398  1
  O  O259  1  0.12774870  0.12459580  0.79151254  1
  O  O260  1  0.11855834  0.37406747  0.03320415  1
  O  O261  1  0.12451841  0.36748645  0.30119073  1
  O  O262  1  0.12530195  0.37305656  0.53478739  1
  O  O263  1  0.12384615  0.36889075  0.78417288  1
  O  O264  1  0.11766834  0.63185669  0.03276745  1
  O  O265  1  0.11591444  0.62429251  0.29028074  1
  O  O266  1  0.12891068  0.62342395  0.52585139  1
  O  O267  1  0.12646584  0.63007715  0.79779040  1
  O  O268  1  0.13107720  0.87310994  0.03561151  1
  O  O269  1  0.12317350  0.88159743  0.30226595  1
  O  O270  1  0.12391063  0.88436179  0.53406802  1
  O  O271  1  0.12319341  0.86404647  0.78117436  1
  O  O272  1  0.37603538  0.11993886  0.04911627  1
  O  O273  1  0.37128648  0.12876634  0.30500696  1
  O  O274  1  0.38335337  0.13097959  0.53688852  1
  O  O275  1  0.38281003  0.12676855  0.77971852  1
  O  O276  1  0.37832676  0.37268428  0.03437906  1
  O  O277  1  0.37214112  0.36998568  0.29524068  1
  O  O278  1  0.38076608  0.38212590  0.54992365  1
  O  O279  1  0.37767872  0.38454562  0.78672709  1
  O  O280  1  0.38585612  0.62916977  0.03547712  1
  O  O281  1  0.38323844  0.62265809  0.28371676  1
  O  O282  1  0.38225111  0.61562551  0.54548303  1
  O  O283  1  0.37524646  0.61946503  0.78841128  1
  O  O284  1  0.38347010  0.87885226  0.04080589  1
  O  O285  1  0.38303727  0.88379631  0.29504518  1
  O  O286  1  0.38335482  0.87461627  0.52182895  1
  O  O287  1  0.37850148  0.87119861  0.79583227  1
  O  O288  1  0.62237836  0.12322486  0.05154969  1
  O  O289  1  0.62591017  0.13419441  0.29661821  1
  O  O290  1  0.62304049  0.13230076  0.52638858  1
  O  O291  1  0.62205234  0.12815666  0.79363865  1
  O  O292  1  0.62859109  0.37443293  0.05142411  1
  O  O293  1  0.62537111  0.37505217  0.29697150  1
  O  O294  1  0.61999793  0.38080268  0.54783744  1
  O  O295  1  0.62722491  0.37569448  0.79780093  1
  O  O296  1  0.62951340  0.62631259  0.05107612  1
  O  O297  1  0.62913235  0.62470981  0.29834976  1
  O  O298  1  0.61984632  0.61680328  0.54601109  1
  O  O299  1  0.62676999  0.62655499  0.79729521  1
  O  O300  1  0.62532477  0.87621271  0.05158153  1
  O  O301  1  0.62906308  0.87570361  0.30496009  1
  O  O302  1  0.62931890  0.86553147  0.52923124  1
  O  O303  1  0.62597455  0.86296454  0.78145979  1
  O  O304  1  0.87288755  0.12328930  0.05066565  1
  O  O305  1  0.87904918  0.12400779  0.28937680  1
  O  O306  1  0.87233578  0.12531906  0.54604961  1
  O  O307  1  0.86602674  0.12341685  0.78155091  1
  O  O308  1  0.86912985  0.37087333  0.04949238  1
  O  O309  1  0.87776584  0.37235175  0.30032073  1
  O  O310  1  0.87265909  0.37632172  0.53671717  1
  O  O311  1  0.86679383  0.37162614  0.78126802  1
  O  O312  1  0.86560566  0.62407978  0.03702439  1
  O  O313  1  0.86595196  0.62577427  0.29473983  1
  O  O314  1  0.87137995  0.62035809  0.52616760  1
  O  O315  1  0.87385016  0.62551483  0.79791877  1
  O  O316  1  0.86750776  0.88005999  0.04970629  1
  O  O317  1  0.87753992  0.87674070  0.30134577  1
  O  O318  1  0.87214379  0.87597411  0.54479803  1
  O  O319  1  0.86631249  0.87543199  0.78161924  1
