# generated using pymatgen
data_VFe(PbO3)2
_symmetry_space_group_name_H-M   'P 1'
_cell_length_a   15.39669338
_cell_length_b   15.37867119
_cell_length_c   18.52426379
_cell_angle_alpha   89.98453322
_cell_angle_beta   89.94734963
_cell_angle_gamma   89.99634353
_symmetry_Int_Tables_number   1
_chemical_formula_structural   VFe(PbO3)2
_chemical_formula_sum   'V32 Fe32 Pb64 O192'
_cell_volume   4386.18584655
_cell_formula_units_Z   32
loop_
 _symmetry_equiv_pos_site_id
 _symmetry_equiv_pos_as_xyz
  1  'x, y, z'
loop_
 _atom_site_type_symbol
 _atom_site_label
 _atom_site_symmetry_multiplicity
 _atom_site_fract_x
 _atom_site_fract_y
 _atom_site_fract_z
 _atom_site_occupancy
  V  V0  1  0.62336375  0.12618616  0.89916725  1
  V  V1  1  0.87573539  0.12871457  0.88996106  1
  V  V2  1  0.12628520  0.87997086  0.88573048  1
  V  V3  1  0.62389495  0.37481385  0.89449811  1
  V  V4  1  0.62562067  0.87604803  0.64144348  1
  V  V5  1  0.12550709  0.11815291  0.39032935  1
  V  V6  1  0.37608296  0.61749104  0.89463405  1
  V  V7  1  0.12701880  0.37097962  0.88894530  1
  V  V8  1  0.87721892  0.12679398  0.14285260  1
  V  V9  1  0.87499974  0.87666548  0.13852851  1
  V  V10  1  0.12093924  0.87598433  0.13788298  1
  V  V11  1  0.37538694  0.12429562  0.63578784  1
  V  V12  1  0.62587009  0.62498406  0.64092594  1
  V  V13  1  0.86413039  0.12466730  0.63601348  1
  V  V14  1  0.87674625  0.37980909  0.14016510  1
  V  V15  1  0.37292006  0.37648867  0.38729985  1
  V  V16  1  0.62454660  0.62605130  0.13557410  1
  V  V17  1  0.12057272  0.12409993  0.13843286  1
  V  V18  1  0.37560274  0.87495086  0.89271671  1
  V  V19  1  0.12507463  0.86898055  0.39334181  1
  V  V20  1  0.11541949  0.12553163  0.63960282  1
  V  V21  1  0.37521931  0.12564780  0.89847198  1
  V  V22  1  0.12548737  0.37280459  0.39351587  1
  V  V23  1  0.62147767  0.12484231  0.63367762  1
  V  V24  1  0.37346170  0.62597564  0.39038186  1
  V  V25  1  0.37747496  0.36978432  0.89675656  1
  V  V26  1  0.87576121  0.62886304  0.13482706  1
  V  V27  1  0.62560684  0.37510647  0.63723959  1
  V  V28  1  0.12372637  0.62077628  0.39725383  1
  V  V29  1  0.87775892  0.62548691  0.39279381  1
  V  V30  1  0.62474799  0.86955317  0.38477971  1
  V  V31  1  0.87446459  0.62618440  0.64444530  1
  Fe  Fe32  1  0.37938265  0.62585877  0.63439398  1
  Fe  Fe33  1  0.62763797  0.12370424  0.14260753  1
  Fe  Fe34  1  0.87418888  0.62286859  0.88040501  1
  Fe  Fe35  1  0.12120892  0.37486565  0.13159889  1
  Fe  Fe36  1  0.62229824  0.62468843  0.88447888  1
  Fe  Fe37  1  0.12910466  0.12465450  0.88409290  1
  Fe  Fe38  1  0.37172808  0.12277897  0.13857385  1
  Fe  Fe39  1  0.36942594  0.12418248  0.37926119  1
  Fe  Fe40  1  0.87381421  0.37068842  0.88164113  1
  Fe  Fe41  1  0.36960523  0.62577494  0.12690444  1
  Fe  Fe42  1  0.37177926  0.37727178  0.13179804  1
  Fe  Fe43  1  0.37480063  0.87181440  0.13721496  1
  Fe  Fe44  1  0.62397800  0.12411753  0.37630791  1
  Fe  Fe45  1  0.37271597  0.87177755  0.38241248  1
  Fe  Fe46  1  0.62478438  0.38084235  0.37650570  1
  Fe  Fe47  1  0.62942365  0.87325320  0.12795169  1
  Fe  Fe48  1  0.87683412  0.87231594  0.38686217  1
  Fe  Fe49  1  0.87760687  0.12367282  0.38524506  1
  Fe  Fe50  1  0.62325407  0.87706348  0.89710354  1
  Fe  Fe51  1  0.12717517  0.62607838  0.63362856  1
  Fe  Fe52  1  0.87800677  0.37693385  0.38481664  1
  Fe  Fe53  1  0.87545164  0.37558715  0.64224380  1
  Fe  Fe54  1  0.62612086  0.37622444  0.14519026  1
  Fe  Fe55  1  0.12697131  0.37393944  0.63554352  1
  Fe  Fe56  1  0.12833185  0.62574466  0.88750415  1
  Fe  Fe57  1  0.87474312  0.87752463  0.87883638  1
  Fe  Fe58  1  0.62604545  0.62657587  0.38585905  1
  Fe  Fe59  1  0.37750429  0.87633955  0.63464190  1
  Fe  Fe60  1  0.87391634  0.87577777  0.64817131  1
  Fe  Fe61  1  0.11789954  0.62669976  0.12693916  1
  Fe  Fe62  1  0.12639643  0.87712552  0.63531948  1
  Fe  Fe63  1  0.37712774  0.37424401  0.63424847  1
  Pb  Pb64  1  0.00007638  0.00067672  -0.00401206  1
  Pb  Pb65  1  -0.00913647  -0.00190828  0.25679696  1
  Pb  Pb66  1  -0.00703808  -0.01521432  0.50832280  1
  Pb  Pb67  1  -0.00418092  -0.00349496  0.75077809  1
  Pb  Pb68  1  0.00579045  0.25576515  -0.00111028  1
  Pb  Pb69  1  -0.01036783  0.24995519  0.25667331  1
  Pb  Pb70  1  -0.00519061  0.25763420  0.50304309  1
  Pb  Pb71  1  -0.00241011  0.25621836  0.75082624  1
  Pb  Pb72  1  0.00608035  0.50253422  -0.00725854  1
  Pb  Pb73  1  -0.00178127  0.49589828  0.24808427  1
  Pb  Pb74  1  -0.00033100  0.49166386  0.50896207  1
  Pb  Pb75  1  0.00505628  0.50587634  0.74928784  1
  Pb  Pb76  1  0.00046571  0.74405403  -0.01030911  1
  Pb  Pb77  1  -0.00452825  0.75444105  0.25129855  1
  Pb  Pb78  1  0.00766838  0.75025532  0.50942857  1
  Pb  Pb79  1  0.00657264  0.74537785  0.75026329  1
  Pb  Pb80  1  0.25833033  -0.00052726  0.00711118  1
  Pb  Pb81  1  0.25897570  -0.00329338  0.25091426  1
  Pb  Pb82  1  0.25144808  -0.00929671  0.49960859  1
  Pb  Pb83  1  0.24962726  0.00362288  0.74800661  1
  Pb  Pb84  1  0.25504144  0.25108493  0.00607104  1
  Pb  Pb85  1  0.25303150  0.24896973  0.24435027  1
  Pb  Pb86  1  0.24972961  0.25849387  0.50275492  1
  Pb  Pb87  1  0.24925835  0.24751238  0.74911385  1
  Pb  Pb88  1  0.24794684  0.49269206  0.00267422  1
  Pb  Pb89  1  0.24377496  0.50315829  0.23578310  1
  Pb  Pb90  1  0.25133443  0.49893348  0.50763172  1
  Pb  Pb91  1  0.24889367  0.50325954  0.74202114  1
  Pb  Pb92  1  0.25685823  0.75013844  0.00203027  1
  Pb  Pb93  1  0.25092188  0.74716474  0.24429693  1
  Pb  Pb94  1  0.25018825  0.74157247  0.50701437  1
  Pb  Pb95  1  0.25065557  0.74779323  0.74195166  1
  Pb  Pb96  1  0.49162550  0.00290773  0.01247464  1
  Pb  Pb97  1  0.50228999  -0.00065900  0.24056593  1
  Pb  Pb98  1  0.49218554  -0.00387009  0.48824624  1
  Pb  Pb99  1  0.50621006  -0.00480219  0.75462696  1
  Pb  Pb100  1  0.50905584  0.24821469  0.01777648  1
  Pb  Pb101  1  0.49855609  0.24445771  0.24213857  1
  Pb  Pb102  1  0.50194018  0.24783593  0.48512912  1
  Pb  Pb103  1  0.50267702  0.24797643  0.74825224  1
  Pb  Pb104  1  0.50053540  0.48842336  0.00933975  1
  Pb  Pb105  1  0.50007666  0.49934861  0.24378225  1
  Pb  Pb106  1  0.49233677  0.50138534  0.49834299  1
  Pb  Pb107  1  0.50029280  0.50285160  0.74887110  1
  Pb  Pb108  1  0.49613295  0.75084587  0.00124787  1
  Pb  Pb109  1  0.49399773  0.75580820  0.24481757  1
  Pb  Pb110  1  0.49072334  0.75059926  0.50135280  1
  Pb  Pb111  1  0.50562360  0.75058268  0.75185528  1
  Pb  Pb112  1  0.74348227  -0.00018521  0.00361135  1
  Pb  Pb113  1  0.74885273  0.00291090  0.25010475  1
  Pb  Pb114  1  0.75345857  -0.00114195  0.49213293  1
  Pb  Pb115  1  0.74153660  -0.01154671  0.76122917  1
  Pb  Pb116  1  0.74040552  0.24995909  0.01046221  1
  Pb  Pb117  1  0.74348803  0.25055384  0.25441355  1
  Pb  Pb118  1  0.75039650  0.25181915  0.48568080  1
  Pb  Pb119  1  0.75258556  0.25182404  0.75055629  1
  Pb  Pb120  1  0.75341631  0.50165773  -0.00617170  1
  Pb  Pb121  1  0.74405483  0.50239401  0.25556069  1
  Pb  Pb122  1  0.74916707  0.49366768  0.49562930  1
  Pb  Pb123  1  0.75362287  0.50586417  0.75558582  1
  Pb  Pb124  1  0.74924666  0.75492479  -0.01192079  1
  Pb  Pb125  1  0.74625880  0.74645025  0.25018818  1
  Pb  Pb126  1  0.75740851  0.75482670  0.50264156  1
  Pb  Pb127  1  0.74889005  0.74223940  0.75922742  1
  O  O128  1  0.11783575  -0.00453989  0.16570799  1
  O  O129  1  0.12754586  -0.00037932  0.40989221  1
  O  O130  1  0.12932995  0.01041952  0.66506321  1
  O  O131  1  0.12769152  -0.00293299  0.91572820  1
  O  O132  1  0.12023464  0.24001733  0.15882415  1
  O  O133  1  0.12794913  0.25568458  0.41314858  1
  O  O134  1  0.13001344  0.24102244  0.66519450  1
  O  O135  1  0.12963777  0.25147061  0.91583610  1
  O  O136  1  0.11620509  0.50119720  0.15968016  1
  O  O137  1  0.12623118  0.49717243  0.41865040  1
  O  O138  1  0.12391810  0.50060136  0.66151056  1
  O  O139  1  0.12811130  0.49113890  0.90813413  1
  O  O140  1  0.11536863  0.75711755  0.16024638  1
  O  O141  1  0.12439621  0.75130847  0.41730602  1
  O  O142  1  0.12334498  0.75108418  0.66391997  1
  O  O143  1  0.12747202  0.76324581  0.90859603  1
  O  O144  1  0.36988130  -0.00394077  0.16391994  1
  O  O145  1  0.36994875  -0.00209966  0.40842976  1
  O  O146  1  0.38162389  0.00853814  0.66337243  1
  O  O147  1  0.37589715  0.00009524  0.91987267  1
  O  O148  1  0.36882661  0.24997147  0.15859658  1
  O  O149  1  0.36923445  0.25831432  0.40718823  1
  O  O150  1  0.38198600  0.24251818  0.66337026  1
  O  O151  1  0.37633530  0.24752571  0.92299324  1
  O  O152  1  0.37387022  0.50453401  0.16072153  1
  O  O153  1  0.37047936  0.50114170  0.41415148  1
  O  O154  1  0.38116322  0.49909885  0.66653309  1
  O  O155  1  0.37522814  0.50019686  0.91334864  1
  O  O156  1  0.37232450  0.74607194  0.16497969  1
  O  O157  1  0.37165573  0.74405079  0.41284722  1
  O  O158  1  0.38238685  0.75183808  0.66591641  1
  O  O159  1  0.37338076  0.75656808  0.91112588  1
  O  O160  1  0.63050223  -0.00380273  0.16153653  1
  O  O161  1  0.62453909  -0.01178550  0.40524271  1
  O  O162  1  0.62418960  0.00150095  0.66497930  1
  O  O163  1  0.62327500  0.01046073  0.91909673  1
  O  O164  1  0.62991952  0.25051887  0.16745009  1
  O  O165  1  0.62218705  0.25384231  0.40351163  1
  O  O166  1  0.62319450  0.24998265  0.66249456  1
  O  O167  1  0.62135753  0.25087749  0.92373463  1
  O  O168  1  0.63349681  0.50930135  0.16283766  1
  O  O169  1  0.62413721  0.50286846  0.41520559  1
  O  O170  1  0.62607290  0.49474422  0.66109830  1
  O  O171  1  0.62008226  0.49259612  0.91362897  1
  O  O172  1  0.63602323  0.74266535  0.15916985  1
  O  O173  1  0.62579865  0.75315408  0.41780445  1
  O  O174  1  0.62549393  0.75518026  0.66367527  1
  O  O175  1  0.62281726  0.74932242  0.91223823  1
  O  O176  1  0.87925104  0.00219447  0.16493297  1
  O  O177  1  0.87827633  -0.00221014  0.41550474  1
  O  O178  1  0.87377661  0.01346858  0.66602273  1
  O  O179  1  0.87253278  0.01251661  0.91489815  1
  O  O180  1  0.88143604  0.24588674  0.16254021  1
  O  O181  1  0.88004603  0.24988210  0.41349292  1
  O  O182  1  0.87368625  0.23981038  0.66593951  1
  O  O183  1  0.87236353  0.24495364  0.91837517  1
  O  O184  1  0.87937272  0.49921128  0.15787363  1
  O  O185  1  0.88008804  0.50714328  0.41659410  1
  O  O186  1  0.87092315  0.50523222  0.66536744  1
  O  O187  1  0.87455851  0.49383175  0.90994263  1
  O  O188  1  0.87664809  0.74700090  0.15952744  1
  O  O189  1  0.87939951  0.74515808  0.41971140  1
  O  O190  1  0.87029948  0.74472028  0.66690179  1
  O  O191  1  0.87500503  0.75250376  0.90354013  1
  O  O192  1  0.00159213  0.12063906  0.16831114  1
  O  O193  1  0.01260384  0.12753311  0.41631997  1
  O  O194  1  -0.00009045  0.12647240  0.65564355  1
  O  O195  1  -0.00467004  0.12755565  0.90885998  1
  O  O196  1  -0.00497661  0.37167840  0.16621229  1
  O  O197  1  0.00703883  0.37773897  0.41617803  1
  O  O198  1  0.00169165  0.37038851  0.66836713  1
  O  O199  1  0.00666050  0.36841695  0.90630885  1
  O  O200  1  -0.00947840  0.62573943  0.16345013  1
  O  O201  1  -0.00162493  0.62549319  0.42162069  1
  O  O202  1  -0.00657698  0.62540466  0.66099088  1
  O  O203  1  0.00098075  0.62473598  0.90914598  1
  O  O204  1  -0.00170069  0.87492099  0.16861861  1
  O  O205  1  0.00679652  0.87418080  0.41792429  1
  O  O206  1  0.00140465  0.88171570  0.66820196  1
  O  O207  1  0.00579899  0.88265664  0.90454377  1
  O  O208  1  0.23607080  0.11833778  0.16084246  1
  O  O209  1  0.24180822  0.12796877  0.41793789  1
  O  O210  1  0.25968372  0.12577382  0.65793895  1
  O  O211  1  0.25511768  0.12455669  0.91780694  1
  O  O212  1  0.24470789  0.37589677  0.16099529  1
  O  O213  1  0.24917442  0.37887379  0.41649601  1
  O  O214  1  0.25260973  0.37070176  0.66607638  1
  O  O215  1  0.25000837  0.37241824  0.91613086  1
  O  O216  1  0.24242918  0.62824969  0.15435005  1
  O  O217  1  0.25147893  0.62453357  0.41795635  1
  O  O218  1  0.25351455  0.62576903  0.66057993  1
  O  O219  1  0.25704073  0.62754482  0.91255551  1
  O  O220  1  0.23691751  0.87274736  0.16003391  1
  O  O221  1  0.24280090  0.87228857  0.41411988  1
  O  O222  1  0.25248460  0.88041829  0.66347658  1
  O  O223  1  0.25203132  0.87991789  0.91349387  1
  O  O224  1  0.49885619  0.12315812  0.15989770  1
  O  O225  1  0.49681007  0.12559599  0.40507680  1
  O  O226  1  0.50208851  0.12511864  0.66531610  1
  O  O227  1  0.50227335  0.12711840  0.92358915  1
  O  O228  1  0.49756762  0.37871186  0.16430660  1
  O  O229  1  0.49065377  0.38031959  0.40423175  1
  O  O230  1  0.50850703  0.37268069  0.66573357  1
  O  O231  1  0.50226224  0.37215329  0.92300376  1
  O  O232  1  0.50922933  0.62620942  0.15318862  1
  O  O233  1  0.49195471  0.62457376  0.40935837  1
  O  O234  1  0.50691374  0.62485242  0.66739788  1
  O  O235  1  0.49297765  0.62719136  0.91575059  1
  O  O236  1  0.50420858  0.86897359  0.15799944  1
  O  O237  1  0.50446917  0.86932185  0.40673331  1
  O  O238  1  0.50769643  0.87890034  0.66843211  1
  O  O239  1  0.49139012  0.87921126  0.91695893  1
  O  O240  1  0.76163841  0.12464505  0.16341756  1
  O  O241  1  0.74843511  0.12369441  0.40961582  1
  O  O242  1  0.74769267  0.12797279  0.65832183  1
  O  O243  1  0.74612687  0.12998480  0.91777638  1
  O  O244  1  0.76258044  0.37296320  0.16316833  1
  O  O245  1  0.75130455  0.37924082  0.40796866  1
  O  O246  1  0.74191920  0.37045623  0.66334384  1
  O  O247  1  0.74154610  0.37047919  0.91234467  1
  O  O248  1  0.75957025  0.62326006  0.16208248  1
  O  O249  1  0.75970912  0.62672269  0.41610245  1
  O  O250  1  0.74754308  0.62530786  0.66839218  1
  O  O251  1  0.74803868  0.62042626  0.91258112  1
  O  O252  1  0.75737074  0.87387724  0.16073652  1
  O  O253  1  0.74594645  0.87038964  0.41183720  1
  O  O254  1  0.74116147  0.87970918  0.66776394  1
  O  O255  1  0.75289640  0.88280611  0.91263510  1
  O  O256  1  0.11638611  0.11971322  0.04712134  1
  O  O257  1  0.12603340  0.12321015  0.29946535  1
  O  O258  1  0.12430499  0.12520222  0.54920771  1
  O  O259  1  0.13345762  0.12548228  0.78522311  1
  O  O260  1  0.12189344  0.37347370  0.03166216  1
  O  O261  1  0.12542477  0.37559516  0.30267222  1
  O  O262  1  0.12643610  0.37105381  0.53524435  1
  O  O263  1  0.13227876  0.36562840  0.79787511  1
  O  O264  1  0.11333681  0.62690888  0.02628689  1
  O  O265  1  0.12145006  0.62495191  0.30624230  1
  O  O266  1  0.12757960  0.63267236  0.53229842  1
  O  O267  1  0.12273566  0.62675092  0.78721442  1
  O  O268  1  0.11647177  0.87951666  0.04697625  1
  O  O269  1  0.12135411  0.86785142  0.30241120  1
  O  O270  1  0.12119743  0.88004932  0.53487434  1
  O  O271  1  0.13144833  0.88505011  0.79481434  1
  O  O272  1  0.37095660  0.11510238  0.03674176  1
  O  O273  1  0.36031810  0.12570596  0.27941047  1
  O  O274  1  0.37883430  0.12448954  0.54464563  1
  O  O275  1  0.38009352  0.12561754  0.80760123  1
  O  O276  1  0.37128461  0.38243280  0.03043473  1
  O  O277  1  0.36565933  0.38104305  0.29700581  1
  O  O278  1  0.37416629  0.37782997  0.53446209  1
  O  O279  1  0.38184069  0.36778346  0.80599579  1
  O  O280  1  0.37439451  0.63538481  0.02694373  1
  O  O281  1  0.36904528  0.62473987  0.29963141  1
  O  O282  1  0.38056511  0.62530703  0.53376288  1
  O  O283  1  0.37947300  0.62230844  0.80338427  1
  O  O284  1  0.36874576  0.87324596  0.03618539  1
  O  O285  1  0.37005953  0.86549876  0.28217941  1
  O  O286  1  0.38253040  0.87681317  0.53418609  1
  O  O287  1  0.37757992  0.88053959  0.80182574  1
  O  O288  1  0.63107037  0.13385278  0.04040940  1
  O  O289  1  0.63153538  0.12122561  0.27578295  1
  O  O290  1  0.61911410  0.12382804  0.54287376  1
  O  O291  1  0.62157083  0.13034697  0.80795957  1
  O  O292  1  0.62225294  0.37300108  0.04309697  1
  O  O293  1  0.63043931  0.38687744  0.27534094  1
  O  O294  1  0.62376732  0.37438271  0.54644511  1
  O  O295  1  0.61843460  0.36841464  0.80383118  1
  O  O296  1  0.63070553  0.62369994  0.04466697  1
  O  O297  1  0.63675950  0.62688149  0.28644609  1
  O  O298  1  0.62621072  0.62667534  0.54991807  1
  O  O299  1  0.62628100  0.62407704  0.78406738  1
  O  O300  1  0.63158560  0.87687187  0.02716405  1
  O  O301  1  0.62877561  0.86245650  0.29369640  1
  O  O302  1  0.62386428  0.87674376  0.55071274  1
  O  O303  1  0.62223909  0.88758406  0.79502389  1
  O  O304  1  0.88115155  0.12451790  0.05191043  1
  O  O305  1  0.88374683  0.12323603  0.28508392  1
  O  O306  1  0.86742554  0.12418979  0.54466435  1
  O  O307  1  0.86882412  0.12973834  0.79907044  1
  O  O308  1  0.87958963  0.37424368  0.04908652  1
  O  O309  1  0.88588327  0.37621593  0.28516003  1
  O  O310  1  0.88317689  0.37594118  0.54164566  1
  O  O311  1  0.86979634  0.36144629  0.78153736  1
  O  O312  1  0.87633441  0.62709198  0.04375645  1
  O  O313  1  0.88005949  0.62720756  0.30165199  1
  O  O314  1  0.86904306  0.62665851  0.55346639  1
  O  O315  1  0.86721255  0.62166547  0.77989793  1
  O  O316  1  0.88208691  0.87903224  0.04753511  1
  O  O317  1  0.88373484  0.87144307  0.28720285  1
  O  O318  1  0.87366548  0.87965715  0.54658913  1
  O  O319  1  0.87072529  0.88895774  0.77765430  1
