# generated using pymatgen
data_VFe(PbO3)2
_symmetry_space_group_name_H-M   'P 1'
_cell_length_a   15.38189823
_cell_length_b   15.39421003
_cell_length_c   18.52687622
_cell_angle_alpha   90.00511685
_cell_angle_beta   89.99086913
_cell_angle_gamma   90.02211008
_symmetry_Int_Tables_number   1
_chemical_formula_structural   VFe(PbO3)2
_chemical_formula_sum   'V32 Fe32 Pb64 O192'
_cell_volume   4387.01886079
_cell_formula_units_Z   32
loop_
 _symmetry_equiv_pos_site_id
 _symmetry_equiv_pos_as_xyz
  1  'x, y, z'
loop_
 _atom_site_type_symbol
 _atom_site_label
 _atom_site_symmetry_multiplicity
 _atom_site_fract_x
 _atom_site_fract_y
 _atom_site_fract_z
 _atom_site_occupancy
  V  V0  1  0.62527746  0.62426535  0.39111269  1
  V  V1  1  0.12900255  0.12365176  0.38905625  1
  V  V2  1  0.37475742  0.12455637  0.64123507  1
  V  V3  1  0.37871849  0.62740869  0.38844800  1
  V  V4  1  0.12322457  0.37618264  0.88818628  1
  V  V5  1  0.87475664  0.12431105  0.38747507  1
  V  V6  1  0.12594899  0.37271446  0.63773467  1
  V  V7  1  0.12601112  0.87488109  0.64030496  1
  V  V8  1  0.62542272  0.87360453  0.89530274  1
  V  V9  1  0.37720638  0.62518477  0.89535867  1
  V  V10  1  0.62364196  0.37272276  0.90357578  1
  V  V11  1  0.37535378  0.87513838  0.89568850  1
  V  V12  1  0.87239845  0.62434840  0.39220736  1
  V  V13  1  0.87355673  0.12226357  0.89108751  1
  V  V14  1  0.12574628  0.12441663  0.64439320  1
  V  V15  1  0.87444161  0.37513962  0.88926239  1
  V  V16  1  0.62296465  0.62877581  0.63827456  1
  V  V17  1  0.62619538  0.37862857  0.38889351  1
  V  V18  1  0.62915386  0.62387948  0.13505665  1
  V  V19  1  0.87667147  0.87410300  0.13312624  1
  V  V20  1  0.61965384  0.12455411  0.90557322  1
  V  V21  1  0.87666773  0.87386752  0.39123542  1
  V  V22  1  0.12525878  0.37376770  0.14013253  1
  V  V23  1  0.37278390  0.37598126  0.89585603  1
  V  V24  1  0.87579807  0.37582248  0.13840662  1
  V  V25  1  0.37326357  0.37657649  0.38754310  1
  V  V26  1  0.12751008  0.62610711  0.89149564  1
  V  V27  1  0.62395521  0.37408906  0.64251915  1
  V  V28  1  0.62512314  0.12678920  0.63870231  1
  V  V29  1  0.62344341  0.62460408  0.89013421  1
  V  V30  1  0.87544709  0.12510267  0.64328260  1
  V  V31  1  0.11949379  0.12471844  0.13474902  1
  Fe  Fe32  1  0.87404142  0.37551466  0.38679549  1
  Fe  Fe33  1  0.87344627  0.87261470  0.88022163  1
  Fe  Fe34  1  0.12302217  0.87546955  0.38435981  1
  Fe  Fe35  1  0.87510121  0.62237816  0.63900001  1
  Fe  Fe36  1  0.37444899  0.62338494  0.63475812  1
  Fe  Fe37  1  0.87348597  0.87746488  0.64553958  1
  Fe  Fe38  1  0.12458169  0.12906463  0.88498191  1
  Fe  Fe39  1  0.62671628  0.87243493  0.38195091  1
  Fe  Fe40  1  0.12609621  0.62437998  0.63074291  1
  Fe  Fe41  1  0.62861398  0.87312234  0.13406560  1
  Fe  Fe42  1  0.12461936  0.62478129  0.39034263  1
  Fe  Fe43  1  0.62266585  0.88031206  0.63499038  1
  Fe  Fe44  1  0.37320726  0.62407097  0.13183366  1
  Fe  Fe45  1  0.62776034  0.12546473  0.38066566  1
  Fe  Fe46  1  0.37390814  0.37798444  0.13181056  1
  Fe  Fe47  1  0.87454325  0.37000237  0.63702737  1
  Fe  Fe48  1  0.37435887  0.87741826  0.37645349  1
  Fe  Fe49  1  0.12203464  0.87539255  0.12527914  1
  Fe  Fe50  1  0.62915034  0.12612748  0.12824714  1
  Fe  Fe51  1  0.12309673  0.37532056  0.38497712  1
  Fe  Fe52  1  0.87455283  0.62256770  0.88648057  1
  Fe  Fe53  1  0.37412430  0.87323056  0.13660042  1
  Fe  Fe54  1  0.37214826  0.12780751  0.13109984  1
  Fe  Fe55  1  0.87941137  0.12364394  0.13356127  1
  Fe  Fe56  1  0.12586874  0.87557455  0.89495061  1
  Fe  Fe57  1  0.37554055  0.87737071  0.63531660  1
  Fe  Fe58  1  0.62692293  0.37800924  0.12525114  1
  Fe  Fe59  1  0.12172284  0.62417510  0.13075426  1
  Fe  Fe60  1  0.37490929  0.12433998  0.89873072  1
  Fe  Fe61  1  0.87586718  0.62626952  0.13127077  1
  Fe  Fe62  1  0.37427503  0.37018057  0.63791158  1
  Fe  Fe63  1  0.37789260  0.12738665  0.37573912  1
  Pb  Pb64  1  0.00291740  -0.00666752  -0.00548787  1
  Pb  Pb65  1  0.00401464  -0.00827785  0.24704191  1
  Pb  Pb66  1  -0.00704970  -0.00454768  0.50370170  1
  Pb  Pb67  1  0.01147551  -0.01127459  0.76105844  1
  Pb  Pb68  1  -0.00600881  0.24748316  0.00070814  1
  Pb  Pb69  1  -0.00159072  0.26222827  0.25420389  1
  Pb  Pb70  1  -0.00265275  0.25467601  0.49844260  1
  Pb  Pb71  1  0.00543306  0.24597559  0.75203493  1
  Pb  Pb72  1  0.00085050  0.50927127  0.00231489  1
  Pb  Pb73  1  0.00486387  0.50208399  0.25234698  1
  Pb  Pb74  1  0.00190264  0.50192821  0.49942119  1
  Pb  Pb75  1  -0.00704945  0.50647165  0.74759854  1
  Pb  Pb76  1  0.00018214  0.74809021  -0.00512198  1
  Pb  Pb77  1  0.01168213  0.74495321  0.24474052  1
  Pb  Pb78  1  -0.00015767  0.74389663  0.50360099  1
  Pb  Pb79  1  -0.00645238  0.74789084  0.74937314  1
  Pb  Pb80  1  0.24705272  0.00166829  -0.00044182  1
  Pb  Pb81  1  0.25827472  -0.00765621  0.24278812  1
  Pb  Pb82  1  0.26202876  -0.00785113  0.49336269  1
  Pb  Pb83  1  0.24376218  -0.00046265  0.75865889  1
  Pb  Pb84  1  0.25479461  0.24901233  0.00169998  1
  Pb  Pb85  1  0.25448310  0.24672981  0.24628001  1
  Pb  Pb86  1  0.25541939  0.25440639  0.49884232  1
  Pb  Pb87  1  0.25232911  0.23916396  0.75707348  1
  Pb  Pb88  1  0.24968919  0.50651875  0.00521234  1
  Pb  Pb89  1  0.24080071  0.50827565  0.24773231  1
  Pb  Pb90  1  0.24918293  0.50672677  0.50114217  1
  Pb  Pb91  1  0.25060163  0.50014439  0.74507239  1
  Pb  Pb92  1  0.25859996  0.75050662  0.00845655  1
  Pb  Pb93  1  0.24462350  0.75428361  0.23907226  1
  Pb  Pb94  1  0.24882154  0.75049031  0.49349797  1
  Pb  Pb95  1  0.24814095  0.75150557  0.74652108  1
  Pb  Pb96  1  0.49820064  -0.01189625  0.01373706  1
  Pb  Pb97  1  0.49796287  0.00361363  0.23738374  1
  Pb  Pb98  1  0.50241620  -0.00139787  0.48584216  1
  Pb  Pb99  1  0.49403106  0.00607171  0.75255096  1
  Pb  Pb100  1  0.49098441  0.25050958  0.01200698  1
  Pb  Pb101  1  0.50154317  0.24344927  0.23564759  1
  Pb  Pb102  1  0.49767927  0.25131895  0.49359781  1
  Pb  Pb103  1  0.49406587  0.24187911  0.75862502  1
  Pb  Pb104  1  0.49607700  0.49656682  0.00535893  1
  Pb  Pb105  1  0.49899594  0.49804594  0.23981111  1
  Pb  Pb106  1  0.49164342  0.50119213  0.50370348  1
  Pb  Pb107  1  0.49738503  0.49595677  0.75012175  1
  Pb  Pb108  1  0.49769980  0.75392517  0.00861973  1
  Pb  Pb109  1  0.49810258  0.76056832  0.24471463  1
  Pb  Pb110  1  0.49741248  0.76486408  0.49887984  1
  Pb  Pb111  1  0.49526800  0.75545734  0.74630797  1
  Pb  Pb112  1  0.74431542  -0.00035776  0.00534795  1
  Pb  Pb113  1  0.73831395  0.00386437  0.24487889  1
  Pb  Pb114  1  0.74530423  -0.00835921  0.49980884  1
  Pb  Pb115  1  0.74948841  -0.00432334  0.75229335  1
  Pb  Pb116  1  0.75229900  0.24140415  0.00828872  1
  Pb  Pb117  1  0.74429308  0.24508719  0.24281204  1
  Pb  Pb118  1  0.75406759  0.25514670  0.49835419  1
  Pb  Pb119  1  0.74685353  0.24701824  0.75520761  1
  Pb  Pb120  1  0.75045139  0.49987641  0.00058194  1
  Pb  Pb121  1  0.75798437  0.49487030  0.24759823  1
  Pb  Pb122  1  0.76037266  0.50234008  0.50653251  1
  Pb  Pb123  1  0.75401335  0.50182126  0.75220564  1
  Pb  Pb124  1  0.75515471  0.74869755  -0.00378915  1
  Pb  Pb125  1  0.74764057  0.75537071  0.24762879  1
  Pb  Pb126  1  0.75377689  0.75681732  0.50640927  1
  Pb  Pb127  1  0.75722122  0.75304775  0.74990101  1
  O  O128  1  0.11880314  0.00800322  0.15253300  1
  O  O129  1  0.12031807  0.00861973  0.41696705  1
  O  O130  1  0.12559434  0.00000887  0.66933989  1
  O  O131  1  0.12437611  0.00503251  0.91557435  1
  O  O132  1  0.11988617  0.25337296  0.16318771  1
  O  O133  1  0.12044210  0.24105379  0.41635547  1
  O  O134  1  0.12507893  0.24898512  0.66969876  1
  O  O135  1  0.12352060  0.25809762  0.91350492  1
  O  O136  1  0.12035082  0.49256858  0.16215769  1
  O  O137  1  0.12454373  0.49872338  0.41752215  1
  O  O138  1  0.12695459  0.48930057  0.65580780  1
  O  O139  1  0.12675274  0.49690525  0.91617865  1
  O  O140  1  0.12041735  0.75106365  0.15423850  1
  O  O141  1  0.12315918  0.75098774  0.41627603  1
  O  O142  1  0.12611191  0.75718113  0.65954036  1
  O  O143  1  0.12733473  0.74164015  0.90917410  1
  O  O144  1  0.37241626  0.00293018  0.15444086  1
  O  O145  1  0.37546322  0.00351031  0.40670012  1
  O  O146  1  0.37531345  0.00542739  0.66757928  1
  O  O147  1  0.37922330  -0.00781362  0.91701953  1
  O  O148  1  0.37035409  0.25333009  0.16034528  1
  O  O149  1  0.37695379  0.25661478  0.41007848  1
  O  O150  1  0.37583647  0.24530814  0.67247518  1
  O  O151  1  0.37766364  0.25816817  0.91610000  1
  O  O152  1  0.37481993  0.50105869  0.16400309  1
  O  O153  1  0.37750560  0.49477545  0.41359672  1
  O  O154  1  0.37629304  0.49570233  0.66826235  1
  O  O155  1  0.37625413  0.49870990  0.91693701  1
  O  O156  1  0.37484887  0.74619683  0.16301100  1
  O  O157  1  0.37659568  0.74346538  0.40482369  1
  O  O158  1  0.37501622  0.75007424  0.66599826  1
  O  O159  1  0.37652331  0.75096913  0.91795451  1
  O  O160  1  0.62976018  0.00021410  0.15618034  1
  O  O161  1  0.62964814  -0.00052671  0.40857100  1
  O  O162  1  0.62460697  0.00887221  0.66616276  1
  O  O163  1  0.62673748  0.00182396  0.91925176  1
  O  O164  1  0.63106905  0.25392153  0.15201936  1
  O  O165  1  0.62735230  0.26089225  0.41124380  1
  O  O166  1  0.62413134  0.24925160  0.67075344  1
  O  O167  1  0.62684579  0.24738869  0.92169942  1
  O  O168  1  0.63032584  0.50534591  0.16042285  1
  O  O169  1  0.62487668  0.49806683  0.41977450  1
  O  O170  1  0.62308318  0.49306445  0.66421863  1
  O  O171  1  0.62268237  0.50708143  0.91567392  1
  O  O172  1  0.62999591  0.74243865  0.16123126  1
  O  O173  1  0.62588722  0.74248142  0.41548672  1
  O  O174  1  0.62253120  0.74332208  0.65881048  1
  O  O175  1  0.62405812  0.74522778  0.91530313  1
  O  O176  1  0.87699407  -0.00728195  0.15796484  1
  O  O177  1  0.87478891  -0.00204913  0.41390436  1
  O  O178  1  0.87265483  0.01055947  0.66933831  1
  O  O179  1  0.87412818  0.00603175  0.90526158  1
  O  O180  1  0.87821749  0.25853608  0.16083126  1
  O  O181  1  0.87360716  0.24358889  0.41113451  1
  O  O182  1  0.87284441  0.24421195  0.67083141  1
  O  O183  1  0.87404192  0.25582308  0.91555620  1
  O  O184  1  0.87681040  0.49495006  0.16283380  1
  O  O185  1  0.87231107  0.50619499  0.41348220  1
  O  O186  1  0.87214320  0.49397614  0.66667396  1
  O  O187  1  0.87423377  0.49355408  0.91196936  1
  O  O188  1  0.87732754  0.75634262  0.15982980  1
  O  O189  1  0.87454506  0.75222669  0.41512717  1
  O  O190  1  0.87373942  0.74842848  0.66591505  1
  O  O191  1  0.87370777  0.74749077  0.90898018  1
  O  O192  1  0.00479883  0.12984442  0.16637180  1
  O  O193  1  -0.00765551  0.12290722  0.41610561  1
  O  O194  1  -0.00475110  0.12708345  0.66491388  1
  O  O195  1  -0.00738891  0.13199267  0.91025009  1
  O  O196  1  -0.00079472  0.37554871  0.16474844  1
  O  O197  1  -0.00145802  0.37310805  0.41780074  1
  O  O198  1  0.00692964  0.36813387  0.66072874  1
  O  O199  1  -0.00443532  0.37620907  0.91178906  1
  O  O200  1  -0.00218971  0.62204606  0.16355841  1
  O  O201  1  -0.00984080  0.62691585  0.41527966  1
  O  O202  1  0.00392009  0.62280154  0.66454332  1
  O  O203  1  0.00710874  0.61924189  0.90926428  1
  O  O204  1  -0.00499222  0.87646376  0.15917294  1
  O  O205  1  -0.00638963  0.87649574  0.41926513  1
  O  O206  1  0.00776383  0.87894083  0.66633203  1
  O  O207  1  -0.00339142  0.87474680  0.91049902  1
  O  O208  1  0.23619100  0.13087150  0.15749941  1
  O  O209  1  0.24518388  0.12773005  0.40757239  1
  O  O210  1  0.25021482  0.12608086  0.66870768  1
  O  O211  1  0.24857243  0.12856832  0.91532367  1
  O  O212  1  0.24168689  0.37571391  0.15990711  1
  O  O213  1  0.25556420  0.37257394  0.41013557  1
  O  O214  1  0.24355775  0.36814061  0.66685722  1
  O  O215  1  0.25284345  0.37688093  0.91276666  1
  O  O216  1  0.24639337  0.62205035  0.16073016  1
  O  O217  1  0.26027162  0.61992559  0.41087818  1
  O  O218  1  0.24780405  0.62301605  0.66639156  1
  O  O219  1  0.24839261  0.62108963  0.91553716  1
  O  O220  1  0.24540566  0.87625268  0.15472244  1
  O  O221  1  0.24941377  0.87646391  0.41065608  1
  O  O222  1  0.24466454  0.87907077  0.66584621  1
  O  O223  1  0.25830073  0.87306725  0.91520615  1
  O  O224  1  0.50154325  0.12878993  0.14910965  1
  O  O225  1  0.50253253  0.13041708  0.40824224  1
  O  O226  1  0.50079732  0.12731956  0.66899435  1
  O  O227  1  0.50487087  0.12596625  0.92138677  1
  O  O228  1  0.50288700  0.37780363  0.15625615  1
  O  O229  1  0.50166757  0.37682463  0.41241869  1
  O  O230  1  0.50634094  0.37043470  0.66971515  1
  O  O231  1  0.49692132  0.37743124  0.91952903  1
  O  O232  1  0.51034128  0.62380395  0.15697966  1
  O  O233  1  0.49751633  0.61919614  0.41522381  1
  O  O234  1  0.50661324  0.61930785  0.66641212  1
  O  O235  1  0.50241068  0.62551389  0.91742018  1
  O  O236  1  0.50266195  0.87360301  0.15921837  1
  O  O237  1  0.49966496  0.87202485  0.40731857  1
  O  O238  1  0.50027533  0.87716671  0.66899490  1
  O  O239  1  0.49968727  0.87241532  0.92086622  1
  O  O240  1  0.75622537  0.12704413  0.16124518  1
  O  O241  1  0.75834170  0.12389438  0.41338975  1
  O  O242  1  0.75036850  0.12820062  0.66876904  1
  O  O243  1  0.75631534  0.12892923  0.91743601  1
  O  O244  1  0.75647069  0.37885784  0.15691907  1
  O  O245  1  0.74461469  0.37889488  0.41486051  1
  O  O246  1  0.74121513  0.37029836  0.66880825  1
  O  O247  1  0.75596037  0.37577846  0.91659356  1
  O  O248  1  0.74871847  0.62415347  0.16270306  1
  O  O249  1  0.75278583  0.62599599  0.41772084  1
  O  O250  1  0.73875712  0.61918462  0.66506643  1
  O  O251  1  0.74240504  0.62331882  0.91101633  1
  O  O252  1  0.75852384  0.87227539  0.15996188  1
  O  O253  1  0.75778294  0.87291539  0.41489101  1
  O  O254  1  0.74445529  0.87716174  0.66971600  1
  O  O255  1  0.74731540  0.87506065  0.91346851  1
  O  O256  1  0.11554672  0.13169486  0.04352935  1
  O  O257  1  0.12257162  0.12355891  0.29854675  1
  O  O258  1  0.12606454  0.12556887  0.55396604  1
  O  O259  1  0.12486231  0.12555738  0.78416248  1
  O  O260  1  0.12116474  0.37356347  0.04908519  1
  O  O261  1  0.11743291  0.37475472  0.28556076  1
  O  O262  1  0.13022029  0.36406771  0.54657182  1
  O  O263  1  0.12335049  0.37704422  0.79719335  1
  O  O264  1  0.12162774  0.61692471  0.03005332  1
  O  O265  1  0.12053370  0.62047368  0.28941263  1
  O  O266  1  0.12682417  0.62440041  0.53035554  1
  O  O267  1  0.13031490  0.62007241  0.80047277  1
  O  O268  1  0.12042412  0.87743732  0.02355863  1
  O  O269  1  0.11600022  0.87973368  0.28493355  1
  O  O270  1  0.12533504  0.88050727  0.54953771  1
  O  O271  1  0.12972514  0.88317256  0.79315744  1
  O  O272  1  0.37054988  0.13505829  0.02799510  1
  O  O273  1  0.37194170  0.13100014  0.27606337  1
  O  O274  1  0.37496227  0.12897486  0.55023840  1
  O  O275  1  0.38184966  0.12723539  0.79739888  1
  O  O276  1  0.37447942  0.37531585  0.03138928  1
  O  O277  1  0.37553559  0.37891528  0.29720071  1
  O  O278  1  0.37503555  0.36705934  0.53871587  1
  O  O279  1  0.37667547  0.37657247  0.80447486  1
  O  O280  1  0.36962822  0.62581957  0.03053406  1
  O  O281  1  0.38194900  0.61979261  0.29820328  1
  O  O282  1  0.37701186  0.61803916  0.53534331  1
  O  O283  1  0.37597034  0.62483013  0.80433787  1
  O  O284  1  0.38044858  0.86672612  0.03423794  1
  O  O285  1  0.37218424  0.87862867  0.27575140  1
  O  O286  1  0.37580479  0.87775892  0.53565750  1
  O  O287  1  0.37928032  0.87263029  0.80435409  1
  O  O288  1  0.63873791  0.12182202  0.02548641  1
  O  O289  1  0.63419625  0.12922844  0.28086292  1
  O  O290  1  0.62552096  0.12908837  0.54790168  1
  O  O291  1  0.62616152  0.12532266  0.81372494  1
  O  O292  1  0.62812651  0.38678488  0.02404461  1
  O  O293  1  0.62735165  0.38253593  0.29841067  1
  O  O294  1  0.62389411  0.37151476  0.55184796  1
  O  O295  1  0.62453834  0.37455421  0.81206798  1
  O  O296  1  0.63276423  0.62410976  0.04395669  1
  O  O297  1  0.62738639  0.62085401  0.30079534  1
  O  O298  1  0.62258260  0.62364459  0.54745116  1
  O  O299  1  0.62080153  0.62532442  0.79939905  1
  O  O300  1  0.62542875  0.87439383  0.03285355  1
  O  O301  1  0.63447722  0.86735052  0.28187640  1
  O  O302  1  0.62678186  0.87423005  0.53484336  1
  O  O303  1  0.62054192  0.87563993  0.80431193  1
  O  O304  1  0.87929887  0.13290889  0.03372417  1
  O  O305  1  0.87668028  0.12208919  0.29696859  1
  O  O306  1  0.87205108  0.12544495  0.55243108  1
  O  O307  1  0.86900287  0.13183637  0.80023016  1
  O  O308  1  0.88059510  0.37723903  0.04709418  1
  O  O309  1  0.87499326  0.37707967  0.28745723  1
  O  O310  1  0.86637134  0.36923863  0.53726103  1
  O  O311  1  0.87226465  0.37238969  0.79797390  1
  O  O312  1  0.87729695  0.62271756  0.03070328  1
  O  O313  1  0.87125114  0.62637354  0.30155179  1
  O  O314  1  0.87111503  0.62257403  0.53883945  1
  O  O315  1  0.87548908  0.61680243  0.78508093  1
  O  O316  1  0.87627044  0.87180567  0.04151712  1
  O  O317  1  0.87996853  0.87393199  0.30094975  1
  O  O318  1  0.87197964  0.88116086  0.54479024  1
  O  O319  1  0.87271234  0.87423219  0.77873077  1
