# generated using pymatgen
data_VFe(PbO3)2
_symmetry_space_group_name_H-M   'P 1'
_cell_length_a   15.37062374
_cell_length_b   15.37241375
_cell_length_c   18.58171860
_cell_angle_alpha   90.00683851
_cell_angle_beta   90.01814679
_cell_angle_gamma   89.99123439
_symmetry_Int_Tables_number   1
_chemical_formula_structural   VFe(PbO3)2
_chemical_formula_sum   'V32 Fe32 Pb64 O192'
_cell_volume   4390.55483293
_cell_formula_units_Z   32
loop_
 _symmetry_equiv_pos_site_id
 _symmetry_equiv_pos_as_xyz
  1  'x, y, z'
loop_
 _atom_site_type_symbol
 _atom_site_label
 _atom_site_symmetry_multiplicity
 _atom_site_fract_x
 _atom_site_fract_y
 _atom_site_fract_z
 _atom_site_occupancy
  V  V0  1  0.87915112  0.87631382  0.63818739  1
  V  V1  1  0.87620599  0.37905523  0.64397299  1
  V  V2  1  0.37508864  0.87580882  0.88935869  1
  V  V3  1  0.37549782  0.87648855  0.63406877  1
  V  V4  1  0.87252112  0.12693789  0.64747295  1
  V  V5  1  0.37569904  0.87633834  0.38676340  1
  V  V6  1  0.12204216  0.37628408  0.88828370  1
  V  V7  1  0.62495469  0.87504893  0.14127950  1
  V  V8  1  0.12801386  0.87258843  0.89286583  1
  V  V9  1  0.87648807  0.12393099  0.13636833  1
  V  V10  1  0.87394372  0.37128969  0.13599527  1
  V  V11  1  0.62546326  0.62585584  0.38915621  1
  V  V12  1  0.87703876  0.87455237  0.89258801  1
  V  V13  1  0.62511694  0.12588541  0.13973411  1
  V  V14  1  0.62685880  0.87410547  0.64125236  1
  V  V15  1  0.62577399  0.37501395  0.38775056  1
  V  V16  1  0.37961831  0.62567919  0.64058654  1
  V  V17  1  0.87675370  0.12504130  0.38875033  1
  V  V18  1  0.37471918  0.12337689  0.14279274  1
  V  V19  1  0.87363593  0.87569957  0.38702050  1
  V  V20  1  0.62360445  0.37412430  0.13657232  1
  V  V21  1  0.37267989  0.37596523  0.63705820  1
  V  V22  1  0.87314135  0.37390770  0.39003090  1
  V  V23  1  0.62421239  0.37670156  0.64551491  1
  V  V24  1  0.37320815  0.38070336  0.89015688  1
  V  V25  1  0.37702546  0.87565331  0.14094375  1
  V  V26  1  0.62391143  0.62739769  0.89164946  1
  V  V27  1  0.12871780  0.37000373  0.13953040  1
  V  V28  1  0.12495799  0.12675457  0.39188124  1
  V  V29  1  0.37228527  0.37537341  0.38742894  1
  V  V30  1  0.87801037  0.62498034  0.89311862  1
  V  V31  1  0.37237957  0.12451825  0.88842516  1
  Fe  Fe32  1  0.62445134  0.87168005  0.88438054  1
  Fe  Fe33  1  0.12378117  0.62521677  0.63315202  1
  Fe  Fe34  1  0.37816759  0.36986337  0.13318503  1
  Fe  Fe35  1  0.62781908  0.62516538  0.63574680  1
  Fe  Fe36  1  0.12446707  0.62348893  0.13502037  1
  Fe  Fe37  1  0.12481527  0.62350524  0.37981839  1
  Fe  Fe38  1  0.62699629  0.87603073  0.38327658  1
  Fe  Fe39  1  0.62316680  0.37663671  0.88268003  1
  Fe  Fe40  1  0.12395113  0.12579292  0.13217355  1
  Fe  Fe41  1  0.87439298  0.37745275  0.88110457  1
  Fe  Fe42  1  0.37740360  0.62220198  0.13985158  1
  Fe  Fe43  1  0.12401245  0.87681671  0.38654589  1
  Fe  Fe44  1  0.37464300  0.12664558  0.39539551  1
  Fe  Fe45  1  0.87305036  0.62319930  0.38320352  1
  Fe  Fe46  1  0.62395308  0.12567641  0.64377504  1
  Fe  Fe47  1  0.12793664  0.12485085  0.89148451  1
  Fe  Fe48  1  0.87759857  0.12410480  0.87976214  1
  Fe  Fe49  1  0.62773165  0.12599641  0.38665337  1
  Fe  Fe50  1  0.87138591  0.62835675  0.63393117  1
  Fe  Fe51  1  0.62350824  0.12213114  0.87923600  1
  Fe  Fe52  1  0.87264231  0.87805390  0.13248072  1
  Fe  Fe53  1  0.12617723  0.12567051  0.63557809  1
  Fe  Fe54  1  0.12505204  0.37615087  0.63281630  1
  Fe  Fe55  1  0.12711449  0.87516480  0.62940136  1
  Fe  Fe56  1  0.37699654  0.12591727  0.62776231  1
  Fe  Fe57  1  0.37640602  0.62414000  0.38064447  1
  Fe  Fe58  1  0.62358197  0.62314466  0.13375670  1
  Fe  Fe59  1  0.12225419  0.37370303  0.38614791  1
  Fe  Fe60  1  0.12538963  0.62476337  0.89417298  1
  Fe  Fe61  1  0.12497657  0.87892891  0.13952918  1
  Fe  Fe62  1  0.87291793  0.62340400  0.13772796  1
  Fe  Fe63  1  0.37311938  0.62951321  0.88627352  1
  Pb  Pb64  1  0.00683260  -0.00112091  0.00306131  1
  Pb  Pb65  1  0.00583841  -0.00875495  0.24995530  1
  Pb  Pb66  1  0.00476215  -0.00120686  0.50227273  1
  Pb  Pb67  1  0.00245101  0.00601043  0.75135231  1
  Pb  Pb68  1  -0.00149824  0.24412949  -0.00777971  1
  Pb  Pb69  1  0.00380621  0.25688975  0.25079538  1
  Pb  Pb70  1  0.00628934  0.25132480  0.50503770  1
  Pb  Pb71  1  -0.00321204  0.24758831  0.75160129  1
  Pb  Pb72  1  -0.00117115  0.51206004  0.00683589  1
  Pb  Pb73  1  0.00712454  0.50141981  0.24990511  1
  Pb  Pb74  1  0.00672291  0.50559363  0.49690345  1
  Pb  Pb75  1  0.00913447  0.50774463  0.74858702  1
  Pb  Pb76  1  -0.00012059  0.75928868  0.01020039  1
  Pb  Pb77  1  0.00163667  0.74645567  0.24092055  1
  Pb  Pb78  1  0.00351938  0.74251183  0.49162083  1
  Pb  Pb79  1  0.01088824  0.74409430  0.74671296  1
  Pb  Pb80  1  0.24067568  -0.00196010  0.00681930  1
  Pb  Pb81  1  0.24586669  -0.00165325  0.25352648  1
  Pb  Pb82  1  0.24287979  -0.00178145  0.50145473  1
  Pb  Pb83  1  0.24262929  0.00788358  0.74682028  1
  Pb  Pb84  1  0.25487643  0.25548900  0.00211351  1
  Pb  Pb85  1  0.25691610  0.24527552  0.25411968  1
  Pb  Pb86  1  0.24414026  0.24809971  0.50409736  1
  Pb  Pb87  1  0.24082040  0.24422938  0.74784073  1
  Pb  Pb88  1  0.25124248  0.50855132  0.00533665  1
  Pb  Pb89  1  0.24842588  0.50402044  0.24756377  1
  Pb  Pb90  1  0.24042312  0.50487374  0.49541622  1
  Pb  Pb91  1  0.24942927  0.51070782  0.75064287  1
  Pb  Pb92  1  0.24750598  0.74287311  0.00553226  1
  Pb  Pb93  1  0.23995412  0.73935192  0.24879399  1
  Pb  Pb94  1  0.24222544  0.74550317  0.49211985  1
  Pb  Pb95  1  0.25211537  0.74344023  0.74778405  1
  Pb  Pb96  1  0.50249206  -0.00221354  -0.00343902  1
  Pb  Pb97  1  0.50543283  0.00224857  0.25762407  1
  Pb  Pb98  1  0.50389566  0.00895778  0.49836314  1
  Pb  Pb99  1  0.50421059  0.00148558  0.74895954  1
  Pb  Pb100  1  0.49871709  0.25413908  -0.00441052  1
  Pb  Pb101  1  0.49816978  0.23903611  0.25644360  1
  Pb  Pb102  1  0.50224661  0.24340870  0.50146082  1
  Pb  Pb103  1  0.50281502  0.24758052  0.74936477  1
  Pb  Pb104  1  0.49709945  0.50935271  0.00364724  1
  Pb  Pb105  1  0.49263586  0.50093202  0.24680427  1
  Pb  Pb106  1  0.50405328  0.49996461  0.49761208  1
  Pb  Pb107  1  0.50215591  0.49889199  0.75255137  1
  Pb  Pb108  1  0.49971107  0.73957714  0.00555719  1
  Pb  Pb109  1  0.49756035  0.74695454  0.25039132  1
  Pb  Pb110  1  0.49871825  0.75261064  0.49547655  1
  Pb  Pb111  1  0.50135512  0.75338692  0.75153204  1
  Pb  Pb112  1  0.75098208  0.00000090  -0.00791487  1
  Pb  Pb113  1  0.74060304  0.00069431  0.25260765  1
  Pb  Pb114  1  0.74426487  0.00481409  0.50004697  1
  Pb  Pb115  1  0.74740225  0.00368007  0.75450916  1
  Pb  Pb116  1  0.74853148  0.24971084  -0.01504478  1
  Pb  Pb117  1  0.74576064  0.24531169  0.24855995  1
  Pb  Pb118  1  0.74654480  0.24655295  0.50213440  1
  Pb  Pb119  1  0.74991465  0.25753422  0.75783929  1
  Pb  Pb120  1  0.74933527  0.50548047  -0.00054678  1
  Pb  Pb121  1  0.75452631  0.50414636  0.24835326  1
  Pb  Pb122  1  0.75163140  0.50865086  0.50388761  1
  Pb  Pb123  1  0.75119445  0.49625997  0.75364339  1
  Pb  Pb124  1  0.75874875  0.74766147  0.00524246  1
  Pb  Pb125  1  0.75801950  0.74466594  0.24814669  1
  Pb  Pb126  1  0.75195905  0.74191799  0.50106083  1
  Pb  Pb127  1  0.74757925  0.75261736  0.75016729  1
  O  O128  1  0.12700997  0.00594312  0.16866800  1
  O  O129  1  0.12374996  0.00682142  0.41436896  1
  O  O130  1  0.12705519  -0.00180778  0.66360493  1
  O  O131  1  0.12432527  -0.00822422  0.91512570  1
  O  O132  1  0.12224864  0.25093902  0.16439371  1
  O  O133  1  0.12248965  0.24641808  0.41569046  1
  O  O134  1  0.12457489  0.25233745  0.66560986  1
  O  O135  1  0.13059426  0.25829773  0.91320233  1
  O  O136  1  0.12194945  0.48823211  0.16169950  1
  O  O137  1  0.12270273  0.49789995  0.41205252  1
  O  O138  1  0.12477524  0.50003427  0.66509244  1
  O  O139  1  0.12957224  0.49090399  0.91676418  1
  O  O140  1  0.12681753  0.75182534  0.15877490  1
  O  O141  1  0.12411393  0.75092108  0.40705387  1
  O  O142  1  0.12587658  0.75150977  0.66164081  1
  O  O143  1  0.12520755  0.75601007  0.91868410  1
  O  O144  1  0.37923518  0.00461556  0.16775345  1
  O  O145  1  0.37641802  -0.00638143  0.41202213  1
  O  O146  1  0.37924675  -0.00815596  0.65227525  1
  O  O147  1  0.37133217  -0.00368181  0.91485930  1
  O  O148  1  0.37722326  0.24363231  0.16796735  1
  O  O149  1  0.37811947  0.26132780  0.41695919  1
  O  O150  1  0.37965245  0.26058221  0.65738188  1
  O  O151  1  0.37365775  0.24407043  0.91074408  1
  O  O152  1  0.37843052  0.49320923  0.16205048  1
  O  O153  1  0.38087350  0.49318629  0.41115962  1
  O  O154  1  0.37903220  0.50181116  0.66521248  1
  O  O155  1  0.37520949  0.49653614  0.90812514  1
  O  O156  1  0.37971902  0.75976418  0.16134877  1
  O  O157  1  0.37800624  0.75444159  0.41162298  1
  O  O158  1  0.37884232  0.74783019  0.66210157  1
  O  O159  1  0.37099244  0.75957719  0.91524296  1
  O  O160  1  0.62196393  0.00158527  0.16758832  1
  O  O161  1  0.62695436  -0.00037436  0.41637181  1
  O  O162  1  0.62241864  -0.00802248  0.66415239  1
  O  O163  1  0.62324996  -0.00335182  0.91437398  1
  O  O164  1  0.62597886  0.24919675  0.16587745  1
  O  O165  1  0.62824748  0.25461537  0.41565407  1
  O  O166  1  0.62355685  0.25718403  0.66708806  1
  O  O167  1  0.62097311  0.24805998  0.90708250  1
  O  O168  1  0.62474338  0.48966535  0.15880274  1
  O  O169  1  0.62746663  0.50133633  0.41539165  1
  O  O170  1  0.62650880  0.49635397  0.66717089  1
  O  O171  1  0.62256352  0.50837354  0.91210499  1
  O  O172  1  0.62032194  0.75902340  0.15865835  1
  O  O173  1  0.62630917  0.74486484  0.40918847  1
  O  O174  1  0.62434323  0.75501802  0.66549315  1
  O  O175  1  0.62598999  0.74557802  0.91722076  1
  O  O176  1  0.86890135  0.00937222  0.15833585  1
  O  O177  1  0.87557994  0.00194329  0.41585482  1
  O  O178  1  0.87222233  -0.00435509  0.66649305  1
  O  O179  1  0.87822750  -0.00824544  0.91051788  1
  O  O180  1  0.87059602  0.24807227  0.16522731  1
  O  O181  1  0.87343180  0.25037778  0.41846364  1
  O  O182  1  0.87251690  0.24796077  0.66672211  1
  O  O183  1  0.87605057  0.25131024  0.90886024  1
  O  O184  1  0.87137164  0.48798724  0.16226882  1
  O  O185  1  0.87053372  0.49150844  0.40977280  1
  O  O186  1  0.86974790  0.49492359  0.66007617  1
  O  O187  1  0.87476917  0.50651129  0.91296952  1
  O  O188  1  0.87055043  0.75229771  0.16219504  1
  O  O189  1  0.87322697  0.75764705  0.40693725  1
  O  O190  1  0.87190536  0.76070422  0.66327995  1
  O  O191  1  0.87616022  0.74760767  0.91904091  1
  O  O192  1  -0.00857528  0.12806341  0.15772885  1
  O  O193  1  0.00147860  0.12669049  0.41696017  1
  O  O194  1  -0.00587835  0.12293723  0.66536371  1
  O  O195  1  0.00201277  0.12427721  0.91225773  1
  O  O196  1  -0.00320743  0.36902829  0.16234760  1
  O  O197  1  -0.01008723  0.37172546  0.41413274  1
  O  O198  1  -0.00748635  0.37267937  0.66201279  1
  O  O199  1  0.00630478  0.37569636  0.90803254  1
  O  O200  1  -0.00102335  0.62070232  0.15999177  1
  O  O201  1  -0.00302261  0.62376129  0.40781740  1
  O  O202  1  -0.00438946  0.62613639  0.66406627  1
  O  O203  1  -0.00458527  0.62486182  0.91652797  1
  O  O204  1  -0.00341942  0.87989299  0.16409617  1
  O  O205  1  -0.00838020  0.87972579  0.41258650  1
  O  O206  1  -0.00539250  0.87809026  0.65926250  1
  O  O207  1  0.00072129  0.87064633  0.91626868  1
  O  O208  1  0.25654244  0.12627183  0.16309967  1
  O  O209  1  0.24292715  0.12774855  0.41380760  1
  O  O210  1  0.25540599  0.12622364  0.66323710  1
  O  O211  1  0.25743799  0.12155381  0.91804380  1
  O  O212  1  0.24507528  0.36849985  0.15921814  1
  O  O213  1  0.25603427  0.37521234  0.40685825  1
  O  O214  1  0.25842729  0.37995720  0.65923028  1
  O  O215  1  0.25452906  0.37301599  0.91596689  1
  O  O216  1  0.25106493  0.62224221  0.16114079  1
  O  O217  1  0.25298568  0.62317998  0.40958384  1
  O  O218  1  0.25792795  0.62485570  0.66206032  1
  O  O219  1  0.25094310  0.62590459  0.92063905  1
  O  O220  1  0.26110042  0.88273952  0.16306030  1
  O  O221  1  0.25681466  0.87598658  0.41033193  1
  O  O222  1  0.26043836  0.87006805  0.65646224  1
  O  O223  1  0.24819909  0.87532751  0.91595481  1
  O  O224  1  0.49923786  0.12606803  0.16775737  1
  O  O225  1  0.50234398  0.12776315  0.41485586  1
  O  O226  1  0.49650518  0.12603411  0.66583998  1
  O  O227  1  0.48995981  0.11985214  0.91178089  1
  O  O228  1  0.50807313  0.36716689  0.16211210  1
  O  O229  1  0.50375503  0.37665138  0.41504175  1
  O  O230  1  0.50010421  0.37996141  0.66583920  1
  O  O231  1  0.49217347  0.37206161  0.91149509  1
  O  O232  1  0.50335272  0.62527847  0.16905544  1
  O  O233  1  0.50595327  0.62311001  0.41176566  1
  O  O234  1  0.49843922  0.62472716  0.66469305  1
  O  O235  1  0.50218507  0.62842746  0.91257509  1
  O  O236  1  0.49858487  0.88199469  0.16834434  1
  O  O237  1  0.49704076  0.87372914  0.41285443  1
  O  O238  1  0.49873004  0.87070524  0.66375993  1
  O  O239  1  0.49197110  0.87590039  0.91115682  1
  O  O240  1  0.74995070  0.12733039  0.16433134  1
  O  O241  1  0.75539301  0.12625327  0.41740397  1
  O  O242  1  0.75418682  0.12249934  0.66846156  1
  O  O243  1  0.75103367  0.12031217  0.90687945  1
  O  O244  1  0.74591096  0.36876632  0.16120670  1
  O  O245  1  0.75191636  0.37276911  0.41720118  1
  O  O246  1  0.74861491  0.37281087  0.66747118  1
  O  O247  1  0.74840618  0.37862688  0.91144781  1
  O  O248  1  0.74520230  0.62269934  0.16566651  1
  O  O249  1  0.74547312  0.62393712  0.41387308  1
  O  O250  1  0.75007614  0.62776152  0.67034109  1
  O  O251  1  0.75072322  0.62640992  0.91420242  1
  O  O252  1  0.74165327  0.88142297  0.15912899  1
  O  O253  1  0.75684933  0.87849004  0.41379006  1
  O  O254  1  0.74720297  0.87639266  0.66321448  1
  O  O255  1  0.75671004  0.87096006  0.91143923  1
  O  O256  1  0.12536947  0.11830935  0.03238336  1
  O  O257  1  0.12301902  0.12748116  0.30094988  1
  O  O258  1  0.12604291  0.12805864  0.53576515  1
  O  O259  1  0.13608140  0.12251426  0.79062113  1
  O  O260  1  0.12496610  0.37008440  0.04888913  1
  O  O261  1  0.11538738  0.37114574  0.28649790  1
  O  O262  1  0.12296033  0.37211010  0.53284122  1
  O  O263  1  0.12732866  0.37767422  0.79731058  1
  O  O264  1  0.12622210  0.61615797  0.03293135  1
  O  O265  1  0.12940027  0.61913824  0.27844235  1
  O  O266  1  0.12486595  0.62159714  0.53304212  1
  O  O267  1  0.12295730  0.62390856  0.79303346  1
  O  O268  1  0.12261938  0.88474542  0.03860032  1
  O  O269  1  0.12491055  0.88693871  0.28614468  1
  O  O270  1  0.12668286  0.88283218  0.52922470  1
  O  O271  1  0.12701317  0.87219405  0.80221884  1
  O  O272  1  0.37793083  0.12316676  0.05229905  1
  O  O273  1  0.37332249  0.13571086  0.29483191  1
  O  O274  1  0.37756671  0.13065619  0.52708140  1
  O  O275  1  0.36984858  0.12236511  0.79779899  1
  O  O276  1  0.37591569  0.36383715  0.03367052  1
  O  O277  1  0.37672956  0.37125309  0.29599950  1
  O  O278  1  0.37636055  0.38113515  0.54678927  1
  O  O279  1  0.37075603  0.37436690  0.79965829  1
  O  O280  1  0.38497602  0.62504396  0.03779958  1
  O  O281  1  0.37895582  0.62428959  0.28079716  1
  O  O282  1  0.37921177  0.62426339  0.55016968  1
  O  O283  1  0.36695362  0.62970216  0.78693217  1
  O  O284  1  0.38011673  0.87965446  0.05033386  1
  O  O285  1  0.37692556  0.87548723  0.29590214  1
  O  O286  1  0.37995329  0.86936800  0.54368030  1
  O  O287  1  0.37129418  0.87659039  0.79876754  1
  O  O288  1  0.62361427  0.12387247  0.04921583  1
  O  O289  1  0.62860926  0.12411945  0.28628554  1
  O  O290  1  0.62708958  0.12535382  0.54347982  1
  O  O291  1  0.61976936  0.11714910  0.77860074  1
  O  O292  1  0.62227159  0.37093757  0.04568414  1
  O  O293  1  0.62586458  0.37543404  0.29727209  1
  O  O294  1  0.62529169  0.37719897  0.55489929  1
  O  O295  1  0.62366109  0.38026236  0.78311416  1
  O  O296  1  0.61618565  0.62145249  0.03405220  1
  O  O297  1  0.62691484  0.62143969  0.29855116  1
  O  O298  1  0.63302289  0.62380151  0.53653995  1
  O  O299  1  0.62512558  0.63008133  0.80074121  1
  O  O300  1  0.61889088  0.88089309  0.05058528  1
  O  O301  1  0.62704792  0.88361153  0.28433897  1
  O  O302  1  0.62545642  0.87312602  0.55049623  1
  O  O303  1  0.62092223  0.87040932  0.78539852  1
  O  O304  1  0.87324423  0.12809485  0.04556011  1
  O  O305  1  0.87700923  0.12491312  0.29835691  1
  O  O306  1  0.87335019  0.12507626  0.55676275  1
  O  O307  1  0.88141900  0.11952542  0.77982584  1
  O  O308  1  0.87486135  0.37140880  0.04554326  1
  O  O309  1  0.87243838  0.36860993  0.29936005  1
  O  O310  1  0.87105297  0.37170054  0.55376960  1
  O  O311  1  0.87049085  0.37593367  0.78144864  1
  O  O312  1  0.86978917  0.61943861  0.03672449  1
  O  O313  1  0.86279806  0.62262879  0.28317487  1
  O  O314  1  0.86447694  0.62798782  0.53350385  1
  O  O315  1  0.87678499  0.62953257  0.80271373  1
  O  O316  1  0.87556446  0.87046920  0.03292012  1
  O  O317  1  0.87272470  0.88116233  0.29612139  1
  O  O318  1  0.87559856  0.87749430  0.54778420  1
  O  O319  1  0.88096563  0.86967781  0.80232305  1
