# generated using pymatgen
data_VFe(PbO3)2
_symmetry_space_group_name_H-M   'P 1'
_cell_length_a   15.40487554
_cell_length_b   15.39133197
_cell_length_c   18.43591364
_cell_angle_alpha   90.00354358
_cell_angle_beta   89.94708814
_cell_angle_gamma   89.99681418
_symmetry_Int_Tables_number   1
_chemical_formula_structural   VFe(PbO3)2
_chemical_formula_sum   'V32 Fe32 Pb64 O192'
_cell_volume   4371.18188046
_cell_formula_units_Z   32
loop_
 _symmetry_equiv_pos_site_id
 _symmetry_equiv_pos_as_xyz
  1  'x, y, z'
loop_
 _atom_site_type_symbol
 _atom_site_label
 _atom_site_symmetry_multiplicity
 _atom_site_fract_x
 _atom_site_fract_y
 _atom_site_fract_z
 _atom_site_occupancy
  V  V0  1  0.87425205  0.62650152  0.13314470  1
  V  V1  1  0.12573917  0.12584099  0.64364869  1
  V  V2  1  0.87417223  0.37890195  0.38946829  1
  V  V3  1  0.62246531  0.87335829  0.64803699  1
  V  V4  1  0.87478221  0.12336115  0.13934035  1
  V  V5  1  0.37033020  0.62802608  0.38655722  1
  V  V6  1  0.87474466  0.62764285  0.64547744  1
  V  V7  1  0.62302727  0.62861541  0.39028473  1
  V  V8  1  0.12532598  0.62159718  0.64743698  1
  V  V9  1  0.87418954  0.37385218  0.13785503  1
  V  V10  1  0.12245555  0.62584504  0.88886093  1
  V  V11  1  0.87445639  0.12451542  0.64076918  1
  V  V12  1  0.12431976  0.87364659  0.39170714  1
  V  V13  1  0.62114644  0.12548368  0.13771808  1
  V  V14  1  0.87221573  0.13064781  0.88753188  1
  V  V15  1  0.12284844  0.62918255  0.38625245  1
  V  V16  1  0.12253989  0.12550418  0.88678088  1
  V  V17  1  0.62530745  0.12488605  0.64331129  1
  V  V18  1  0.12285114  0.37411849  0.89232417  1
  V  V19  1  0.62758604  0.37309335  0.89145339  1
  V  V20  1  0.12374961  0.12353097  0.39021836  1
  V  V21  1  0.37428163  0.37513723  0.64211746  1
  V  V22  1  0.37602485  0.62415958  0.64899709  1
  V  V23  1  0.87179645  0.87163398  0.39306012  1
  V  V24  1  0.87472447  0.61867889  0.88663613  1
  V  V25  1  0.87396590  0.37585317  0.64453878  1
  V  V26  1  0.62284805  0.12816430  0.88651569  1
  V  V27  1  0.87189836  0.87515962  0.64541896  1
  V  V28  1  0.37699384  0.12510328  0.64603367  1
  V  V29  1  0.12116418  0.87663941  0.13239921  1
  V  V30  1  0.12733384  0.37497578  0.64229177  1
  V  V31  1  0.62139324  0.37424747  0.64301955  1
  Fe  Fe32  1  0.37421163  0.87376330  0.38608768  1
  Fe  Fe33  1  0.37560990  0.37440863  0.12716992  1
  Fe  Fe34  1  0.62830127  0.87729691  0.12335532  1
  Fe  Fe35  1  0.37524724  0.87365524  0.65080907  1
  Fe  Fe36  1  0.62536833  0.62540379  0.12159740  1
  Fe  Fe37  1  0.62910286  0.37359123  0.14261477  1
  Fe  Fe38  1  0.87611047  0.37384043  0.88638563  1
  Fe  Fe39  1  0.62703485  0.12215424  0.38098268  1
  Fe  Fe40  1  0.37295780  0.62195952  0.89551197  1
  Fe  Fe41  1  0.37371004  0.62775505  0.12132634  1
  Fe  Fe42  1  0.87915915  0.87431268  0.89552116  1
  Fe  Fe43  1  0.12388890  0.87200747  0.65385087  1
  Fe  Fe44  1  0.37164955  0.12236958  0.13189574  1
  Fe  Fe45  1  0.62566293  0.62278697  0.65284293  1
  Fe  Fe46  1  0.87516852  0.62948762  0.38658240  1
  Fe  Fe47  1  0.37315910  0.37256988  0.89860652  1
  Fe  Fe48  1  0.87634069  0.87626497  0.12367457  1
  Fe  Fe49  1  0.37636187  0.37692121  0.38007637  1
  Fe  Fe50  1  0.12408567  0.37776869  0.38028987  1
  Fe  Fe51  1  0.62681329  0.62160073  0.89070732  1
  Fe  Fe52  1  0.37367101  0.87683873  0.87965723  1
  Fe  Fe53  1  0.12211138  0.37398644  0.13696386  1
  Fe  Fe54  1  0.12351826  0.62743132  0.12859170  1
  Fe  Fe55  1  0.62478464  0.87280761  0.38443872  1
  Fe  Fe56  1  0.12413682  0.87636184  0.87664317  1
  Fe  Fe57  1  0.37372486  0.12736046  0.88490910  1
  Fe  Fe58  1  0.62531714  0.37766061  0.37781805  1
  Fe  Fe59  1  0.37511498  0.87680157  0.12777877  1
  Fe  Fe60  1  0.62570793  0.87948917  0.89391392  1
  Fe  Fe61  1  0.12260946  0.12276409  0.13118616  1
  Fe  Fe62  1  0.37503066  0.12261902  0.38075940  1
  Fe  Fe63  1  0.87898021  0.12075331  0.38809199  1
  Pb  Pb64  1  0.00326487  0.00102904  -0.00370807  1
  Pb  Pb65  1  -0.00591092  0.00192831  0.24717631  1
  Pb  Pb66  1  0.00732774  -0.00752913  0.50678466  1
  Pb  Pb67  1  -0.00548916  -0.00818966  0.75765992  1
  Pb  Pb68  1  0.01020602  0.24983857  0.00530403  1
  Pb  Pb69  1  0.00273018  0.24958521  0.24915764  1
  Pb  Pb70  1  0.00025505  0.25227904  0.49835845  1
  Pb  Pb71  1  -0.00232175  0.25174428  0.75194199  1
  Pb  Pb72  1  0.00836900  0.49779032  0.00487854  1
  Pb  Pb73  1  0.00395196  0.49975703  0.24664068  1
  Pb  Pb74  1  0.00057229  0.50284120  0.49768192  1
  Pb  Pb75  1  -0.00270487  0.49520328  0.75453801  1
  Pb  Pb76  1  0.00147986  0.75012716  -0.00411593  1
  Pb  Pb77  1  -0.00869922  0.74584921  0.24489116  1
  Pb  Pb78  1  0.00633091  0.75404646  0.50722697  1
  Pb  Pb79  1  -0.00694475  0.75755170  0.75921043  1
  Pb  Pb80  1  0.25848607  0.00070459  -0.00482362  1
  Pb  Pb81  1  0.25878850  0.00213756  0.24603678  1
  Pb  Pb82  1  0.25689296  -0.00738281  0.50484497  1
  Pb  Pb83  1  0.25519582  -0.00533326  0.75444385  1
  Pb  Pb84  1  0.25080944  0.24462903  0.00396947  1
  Pb  Pb85  1  0.25312857  0.25100703  0.23809104  1
  Pb  Pb86  1  0.25375558  0.25300639  0.49121737  1
  Pb  Pb87  1  0.25731641  0.24904521  0.75734470  1
  Pb  Pb88  1  0.24608728  0.50005692  0.00361043  1
  Pb  Pb89  1  0.25186748  0.49598944  0.23394794  1
  Pb  Pb90  1  0.24919646  0.50076359  0.49272489  1
  Pb  Pb91  1  0.25983535  0.49777238  0.76183985  1
  Pb  Pb92  1  0.25940468  0.75576660  -0.00671480  1
  Pb  Pb93  1  0.25387440  0.75223441  0.23729979  1
  Pb  Pb94  1  0.24756679  0.76625424  0.51530645  1
  Pb  Pb95  1  0.25594268  0.74940370  0.75800229  1
  Pb  Pb96  1  0.48761044  -0.00818310  -0.00258813  1
  Pb  Pb97  1  0.49166836  -0.00571975  0.24688796  1
  Pb  Pb98  1  0.49807667  0.00012697  0.49342802  1
  Pb  Pb99  1  0.50064060  -0.00831343  0.75794822  1
  Pb  Pb100  1  0.48924037  0.24997861  0.00480711  1
  Pb  Pb101  1  0.48869171  0.25693170  0.24580373  1
  Pb  Pb102  1  0.50120113  0.24995396  0.48706789  1
  Pb  Pb103  1  0.48959541  0.25007413  0.75811582  1
  Pb  Pb104  1  0.49060437  0.49928974  0.00108936  1
  Pb  Pb105  1  0.49816296  0.49864833  0.23345649  1
  Pb  Pb106  1  0.50380214  0.50327496  0.49744183  1
  Pb  Pb107  1  0.48863032  0.49672790  0.76574762  1
  Pb  Pb108  1  0.49911920  0.74733529  -0.01098153  1
  Pb  Pb109  1  0.50151622  0.75603249  0.23101481  1
  Pb  Pb110  1  0.49265149  0.75714045  0.50400505  1
  Pb  Pb111  1  0.49910478  0.73151122  0.77034821  1
  Pb  Pb112  1  0.75139735  -0.00740115  -0.00091974  1
  Pb  Pb113  1  0.74170994  -0.00329697  0.24849015  1
  Pb  Pb114  1  0.74695271  0.00213482  0.49784596  1
  Pb  Pb115  1  0.74867331  -0.00897692  0.75980845  1
  Pb  Pb116  1  0.74505342  0.25337691  0.00601193  1
  Pb  Pb117  1  0.74682029  0.23893784  0.25549095  1
  Pb  Pb118  1  0.74695273  0.24956055  0.49314948  1
  Pb  Pb119  1  0.75151927  0.25261049  0.75169939  1
  Pb  Pb120  1  0.73881892  0.49383383  0.00627556  1
  Pb  Pb121  1  0.74625816  0.50207381  0.24613346  1
  Pb  Pb122  1  0.74314819  0.50783669  0.50354942  1
  Pb  Pb123  1  0.74961026  0.49867949  0.75583700  1
  Pb  Pb124  1  0.74231435  0.75166738  -0.00510744  1
  Pb  Pb125  1  0.74254163  0.75817017  0.23905093  1
  Pb  Pb126  1  0.73964925  0.74193103  0.50903079  1
  Pb  Pb127  1  0.73232481  0.75622335  0.77244836  1
  O  O128  1  0.11801531  -0.00692596  0.16008183  1
  O  O129  1  0.12325077  -0.00032967  0.41991998  1
  O  O130  1  0.12381381  0.01147274  0.66440094  1
  O  O131  1  0.11907333  0.00869244  0.90201512  1
  O  O132  1  0.11807472  0.24764103  0.16321030  1
  O  O133  1  0.12155705  0.24460955  0.40989038  1
  O  O134  1  0.12441973  0.25209744  0.67008285  1
  O  O135  1  0.12170681  0.25149035  0.91389764  1
  O  O136  1  0.12015429  0.50240620  0.16087434  1
  O  O137  1  0.12381958  0.50662906  0.41383993  1
  O  O138  1  0.12557113  0.49704969  0.67283240  1
  O  O139  1  0.12052173  0.49548658  0.91309092  1
  O  O140  1  0.11946764  0.75751017  0.15798298  1
  O  O141  1  0.12459981  0.74921286  0.42136001  1
  O  O142  1  0.12331745  0.73802323  0.67242034  1
  O  O143  1  0.12051406  0.74341970  0.90122188  1
  O  O144  1  0.37423700  -0.00161359  0.16186598  1
  O  O145  1  0.37075396  -0.00053289  0.41844003  1
  O  O146  1  0.37388310  0.00607422  0.66579316  1
  O  O147  1  0.37339379  0.00350496  0.90621633  1
  O  O148  1  0.37700742  0.24749172  0.15573424  1
  O  O149  1  0.37258284  0.24927171  0.41103944  1
  O  O150  1  0.37631680  0.25266834  0.66973021  1
  O  O151  1  0.37373615  0.24780902  0.91729209  1
  O  O152  1  0.37413280  0.50193578  0.14927582  1
  O  O153  1  0.37747268  0.51099717  0.41411368  1
  O  O154  1  0.37584176  0.49785906  0.67296348  1
  O  O155  1  0.37393962  0.49666395  0.91653024  1
  O  O156  1  0.37270514  0.75302315  0.15463323  1
  O  O157  1  0.37458694  0.74146187  0.41763005  1
  O  O158  1  0.37537121  0.74033793  0.67040430  1
  O  O159  1  0.37112247  0.75054311  0.90334589  1
  O  O160  1  0.63593195  0.00784128  0.15572366  1
  O  O161  1  0.62809852  -0.00343642  0.41721133  1
  O  O162  1  0.63008821  -0.00203159  0.66868014  1
  O  O163  1  0.63015147  0.01491535  0.91114949  1
  O  O164  1  0.63240514  0.24134631  0.16519146  1
  O  O165  1  0.62936124  0.25191292  0.40860917  1
  O  O166  1  0.62574111  0.25467463  0.66690983  1
  O  O167  1  0.63154976  0.24645460  0.91713112  1
  O  O168  1  0.63208402  0.50330005  0.15854896  1
  O  O169  1  0.62627059  0.50842563  0.41455277  1
  O  O170  1  0.62694425  0.48964148  0.67037495  1
  O  O171  1  0.63025093  0.49005310  0.90913576  1
  O  O172  1  0.63064124  0.74982890  0.15149969  1
  O  O173  1  0.62603229  0.74496578  0.41978986  1
  O  O174  1  0.62668413  0.75667511  0.67268839  1
  O  O175  1  0.63309740  0.74982199  0.90340194  1
  O  O176  1  0.87626469  0.00527108  0.15775964  1
  O  O177  1  0.88040295  -0.00999745  0.41933044  1
  O  O178  1  0.87439620  0.00286902  0.66627647  1
  O  O179  1  0.88015989  0.01484989  0.91173146  1
  O  O180  1  0.87746609  0.25113669  0.16227790  1
  O  O181  1  0.87805658  0.25810031  0.41550654  1
  O  O182  1  0.87478536  0.24977848  0.66728994  1
  O  O183  1  0.87775703  0.24542834  0.91609126  1
  O  O184  1  0.87494658  0.49800610  0.15823403  1
  O  O185  1  0.87646636  0.49770657  0.41612115  1
  O  O186  1  0.87381988  0.49940124  0.66934287  1
  O  O187  1  0.88028595  0.50277204  0.91271825  1
  O  O188  1  0.87689977  0.74533433  0.15206930  1
  O  O189  1  0.87824704  0.75638458  0.42131926  1
  O  O190  1  0.87882715  0.74452171  0.66591369  1
  O  O191  1  0.88082805  0.73832443  0.91030476  1
  O  O192  1  -0.00631563  0.12430326  0.16487582  1
  O  O193  1  0.00570968  0.12263663  0.42231436  1
  O  O194  1  0.00163480  0.13112238  0.66551639  1
  O  O195  1  0.00088201  0.13123583  0.91079183  1
  O  O196  1  -0.01039252  0.37574295  0.16491232  1
  O  O197  1  -0.00338046  0.37788313  0.41687320  1
  O  O198  1  0.00083111  0.37481468  0.66684499  1
  O  O199  1  0.00344263  0.37297389  0.91475345  1
  O  O200  1  -0.00733038  0.62481926  0.16047578  1
  O  O201  1  0.00292170  0.62744367  0.41849579  1
  O  O202  1  -0.00436565  0.61766628  0.66821553  1
  O  O203  1  0.00178167  0.62015783  0.91383293  1
  O  O204  1  0.00037569  0.87513227  0.15842618  1
  O  O205  1  0.00097607  0.87258560  0.42289814  1
  O  O206  1  -0.00732794  0.87542012  0.66797814  1
  O  O207  1  0.00530899  0.87580766  0.91444491  1
  O  O208  1  0.24583805  0.12225302  0.16003909  1
  O  O209  1  0.23946263  0.12315570  0.41385602  1
  O  O210  1  0.24543759  0.13134996  0.66719528  1
  O  O211  1  0.23978776  0.13027829  0.90610480  1
  O  O212  1  0.24956341  0.37357493  0.15369943  1
  O  O213  1  0.24904027  0.37886207  0.41225001  1
  O  O214  1  0.25161537  0.37476530  0.66829978  1
  O  O215  1  0.23934700  0.37366674  0.91414748  1
  O  O216  1  0.24815089  0.62899104  0.15688211  1
  O  O217  1  0.25238614  0.62374613  0.40805644  1
  O  O218  1  0.25303446  0.61939924  0.67273014  1
  O  O219  1  0.23806712  0.61837597  0.90843866  1
  O  O220  1  0.23929664  0.87608932  0.15613646  1
  O  O221  1  0.24586875  0.87252330  0.42033161  1
  O  O222  1  0.24899105  0.87315146  0.67220391  1
  O  O223  1  0.24555332  0.87747266  0.90192113  1
  O  O224  1  0.50685465  0.12235079  0.15173276  1
  O  O225  1  0.50084785  0.12360373  0.41154822  1
  O  O226  1  0.50426168  0.12619388  0.66822745  1
  O  O227  1  0.50814484  0.13113298  0.90561389  1
  O  O228  1  0.50222414  0.37341207  0.15618886  1
  O  O229  1  0.50117476  0.37950532  0.41285669  1
  O  O230  1  0.50240169  0.37380051  0.66591860  1
  O  O231  1  0.51218478  0.36909226  0.91529452  1
  O  O232  1  0.50038341  0.62715099  0.14791871  1
  O  O233  1  0.50262324  0.62740706  0.41413152  1
  O  O234  1  0.49478029  0.62071823  0.67109295  1
  O  O235  1  0.50250396  0.62321219  0.90861925  1
  O  O236  1  0.50356620  0.87903102  0.15021157  1
  O  O237  1  0.49938767  0.87105452  0.41798562  1
  O  O238  1  0.50720826  0.87926227  0.66394936  1
  O  O239  1  0.49930378  0.87854425  0.90697736  1
  O  O240  1  0.75831874  0.12800000  0.16325501  1
  O  O241  1  0.75502835  0.12371373  0.41781623  1
  O  O242  1  0.74989140  0.12839085  0.66736645  1
  O  O243  1  0.75485221  0.12967840  0.90939428  1
  O  O244  1  0.76140936  0.37291565  0.16779248  1
  O  O245  1  0.75641615  0.37870489  0.41250036  1
  O  O246  1  0.74750223  0.37300482  0.66749117  1
  O  O247  1  0.74830787  0.37033488  0.91486895  1
  O  O248  1  0.75887275  0.62387700  0.15606595  1
  O  O249  1  0.74549413  0.62672519  0.41741753  1
  O  O250  1  0.75982233  0.62308000  0.67201540  1
  O  O251  1  0.75971577  0.62052419  0.90434238  1
  O  O252  1  0.75410839  0.87620518  0.15488865  1
  O  O253  1  0.75678368  0.87259099  0.41483306  1
  O  O254  1  0.75165779  0.87462278  0.67326987  1
  O  O255  1  0.75471330  0.88122501  0.90985402  1
  O  O256  1  0.11944485  0.12726173  0.03056375  1
  O  O257  1  0.11765670  0.11656315  0.29950492  1
  O  O258  1  0.12615029  0.12970711  0.55245777  1
  O  O259  1  0.11949969  0.13288018  0.79514288  1
  O  O260  1  0.11417975  0.37514522  0.03515208  1
  O  O261  1  0.11782977  0.37910641  0.28108291  1
  O  O262  1  0.12731560  0.37658817  0.55105758  1
  O  O263  1  0.12133818  0.37324078  0.80032393  1
  O  O264  1  0.11967644  0.62195893  0.02845000  1
  O  O265  1  0.11886342  0.63425446  0.29527397  1
  O  O266  1  0.12762516  0.62120225  0.55598866  1
  O  O267  1  0.11805578  0.61670112  0.79726126  1
  O  O268  1  0.12116741  0.87749110  0.04057804  1
  O  O269  1  0.12182170  0.87285193  0.30101382  1
  O  O270  1  0.12469628  0.86827924  0.55051060  1
  O  O271  1  0.11371461  0.87857225  0.77449703  1
  O  O272  1  0.36986012  0.11881914  0.02904989  1
  O  O273  1  0.37378592  0.11662595  0.28048603  1
  O  O274  1  0.37426530  0.13104052  0.55466007  1
  O  O275  1  0.37385289  0.13564537  0.78263648  1
  O  O276  1  0.37952804  0.37103021  0.02396718  1
  O  O277  1  0.38002259  0.37544910  0.28018092  1
  O  O278  1  0.37401106  0.37764758  0.55110396  1
  O  O279  1  0.37927742  0.37441474  0.79439553  1
  O  O280  1  0.36933322  0.63000815  0.01859131  1
  O  O281  1  0.37569046  0.63039720  0.29601415  1
  O  O282  1  0.37408838  0.62147805  0.55784818  1
  O  O283  1  0.37576578  0.61528725  0.79038762  1
  O  O284  1  0.36760093  0.88253962  0.02581995  1
  O  O285  1  0.37619930  0.87860674  0.28605248  1
  O  O286  1  0.36821511  0.86654257  0.54800249  1
  O  O287  1  0.37772002  0.88024617  0.77553715  1
  O  O288  1  0.63208468  0.13113813  0.04633213  1
  O  O289  1  0.63585763  0.11719635  0.28101220  1
  O  O290  1  0.62676826  0.12508083  0.55213280  1
  O  O291  1  0.62771411  0.13071999  0.79464130  1
  O  O292  1  0.64208415  0.37214190  0.04053118  1
  O  O293  1  0.62951524  0.38208768  0.27788392  1
  O  O294  1  0.62327074  0.37670576  0.55172505  1
  O  O295  1  0.62800456  0.36782312  0.79963918  1
  O  O296  1  0.63593659  0.62253088  0.01920691  1
  O  O297  1  0.62443972  0.63090451  0.29959356  1
  O  O298  1  0.63346118  0.62305129  0.55151599  1
  O  O299  1  0.62732475  0.62711153  0.78368245  1
  O  O300  1  0.63301411  0.87976687  0.02063004  1
  O  O301  1  0.63264536  0.87208699  0.28454424  1
  O  O302  1  0.63094286  0.87079264  0.55659078  1
  O  O303  1  0.63089297  0.88381994  0.78938737  1
  O  O304  1  0.87584518  0.12684584  0.04794968  1
  O  O305  1  0.88037853  0.12146865  0.28884450  1
  O  O306  1  0.87635456  0.12586650  0.54959192  1
  O  O307  1  0.87412156  0.13242138  0.79537125  1
  O  O308  1  0.87244982  0.37223820  0.04611667  1
  O  O309  1  0.87665499  0.37839393  0.29860632  1
  O  O310  1  0.87337939  0.37703338  0.55326855  1
  O  O311  1  0.87445930  0.37301817  0.78595182  1
  O  O312  1  0.87606552  0.62229911  0.04195927  1
  O  O313  1  0.87687344  0.63373637  0.28835251  1
  O  O314  1  0.87325600  0.62449223  0.55373417  1
  O  O315  1  0.88103331  0.61782735  0.79461812  1
  O  O316  1  0.87929755  0.88009499  0.02252822  1
  O  O317  1  0.87645968  0.87126125  0.30149570  1
  O  O318  1  0.87030622  0.87304536  0.55407117  1
  O  O319  1  0.88380769  0.87791842  0.79149931  1
