# generated using pymatgen
data_VFe(PbO3)2
_symmetry_space_group_name_H-M   'P 1'
_cell_length_a   15.38479341
_cell_length_b   15.37990968
_cell_length_c   18.51142723
_cell_angle_alpha   89.98526991
_cell_angle_beta   89.96765437
_cell_angle_gamma   90.02427585
_symmetry_Int_Tables_number   1
_chemical_formula_structural   VFe(PbO3)2
_chemical_formula_sum   'V32 Fe32 Pb64 O192'
_cell_volume   4380.11220145
_cell_formula_units_Z   32
loop_
 _symmetry_equiv_pos_site_id
 _symmetry_equiv_pos_as_xyz
  1  'x, y, z'
loop_
 _atom_site_type_symbol
 _atom_site_label
 _atom_site_symmetry_multiplicity
 _atom_site_fract_x
 _atom_site_fract_y
 _atom_site_fract_z
 _atom_site_occupancy
  V  V0  1  0.37499218  0.87271801  0.39296448  1
  V  V1  1  0.87842210  0.87753053  0.14752673  1
  V  V2  1  0.37154957  0.37726695  0.89007145  1
  V  V3  1  0.62711094  0.87368246  0.14096717  1
  V  V4  1  0.62378887  0.62359736  0.38972704  1
  V  V5  1  0.37352664  0.12670554  0.63757429  1
  V  V6  1  0.37460483  0.62575372  0.89052625  1
  V  V7  1  0.87006087  0.37309299  0.13814801  1
  V  V8  1  0.37028180  0.37199314  0.13914851  1
  V  V9  1  0.87430414  0.12644171  0.39194528  1
  V  V10  1  0.37245543  0.37446806  0.63569541  1
  V  V11  1  0.87580766  0.87046104  0.88821226  1
  V  V12  1  0.12797554  0.87370365  0.13932598  1
  V  V13  1  0.87769840  0.37419410  0.63697572  1
  V  V14  1  0.87532675  0.87632049  0.63268185  1
  V  V15  1  0.62466893  0.62715126  0.88896229  1
  V  V16  1  0.12422434  0.87430972  0.89271960  1
  V  V17  1  0.37573768  0.37261384  0.39030894  1
  V  V18  1  0.62241823  0.37478556  0.13766012  1
  V  V19  1  0.87564933  0.62618728  0.88995281  1
  V  V20  1  0.87122962  0.37243300  0.39127028  1
  V  V21  1  0.11741501  0.37596557  0.13860269  1
  V  V22  1  0.62015904  0.12742705  0.39412743  1
  V  V23  1  0.12584002  0.62593833  0.89105098  1
  V  V24  1  0.37166987  0.12755241  0.38977740  1
  V  V25  1  0.62701279  0.12311312  0.13928241  1
  V  V26  1  0.37473059  0.12397692  0.89009001  1
  V  V27  1  0.12136604  0.87853321  0.38464247  1
  V  V28  1  0.12264644  0.37198784  0.39107346  1
  V  V29  1  0.62427659  0.87364064  0.88832003  1
  V  V30  1  0.12327222  0.87647088  0.63408047  1
  V  V31  1  0.12311391  0.37699722  0.89165814  1
  Fe  Fe32  1  0.62435248  0.12429598  0.64063975  1
  Fe  Fe33  1  0.87496739  0.87728208  0.38315906  1
  Fe  Fe34  1  0.37624632  0.62087168  0.39296333  1
  Fe  Fe35  1  0.12527605  0.62469544  0.62979395  1
  Fe  Fe36  1  0.62190917  0.37747171  0.88128094  1
  Fe  Fe37  1  0.87479860  0.37948201  0.88161524  1
  Fe  Fe38  1  0.37695718  0.87825770  0.13452448  1
  Fe  Fe39  1  0.62510465  0.37251271  0.39309983  1
  Fe  Fe40  1  0.37377604  0.62490372  0.62446811  1
  Fe  Fe41  1  0.87096955  0.12601899  0.13661576  1
  Fe  Fe42  1  0.12756881  0.62615267  0.38353190  1
  Fe  Fe43  1  0.62497527  0.62483648  0.63053210  1
  Fe  Fe44  1  0.12494448  0.62484413  0.14720097  1
  Fe  Fe45  1  0.87549713  0.12461543  0.87977532  1
  Fe  Fe46  1  0.12247937  0.12482210  0.13308527  1
  Fe  Fe47  1  0.12587057  0.12472726  0.63421156  1
  Fe  Fe48  1  0.37342809  0.87234302  0.88888665  1
  Fe  Fe49  1  0.87251842  0.62410903  0.14346061  1
  Fe  Fe50  1  0.62618235  0.62386228  0.13613166  1
  Fe  Fe51  1  0.12599730  0.12366962  0.89179526  1
  Fe  Fe52  1  0.87684661  0.62474119  0.62639853  1
  Fe  Fe53  1  0.37867312  0.62582999  0.13962237  1
  Fe  Fe54  1  0.87723778  0.12406632  0.64229385  1
  Fe  Fe55  1  0.62598773  0.87676496  0.39660575  1
  Fe  Fe56  1  0.37895148  0.12452775  0.13649608  1
  Fe  Fe57  1  0.62465360  0.87547927  0.62462643  1
  Fe  Fe58  1  0.87483149  0.62246458  0.39012558  1
  Fe  Fe59  1  0.62347537  0.12283178  0.87851826  1
  Fe  Fe60  1  0.37228133  0.87784578  0.62850655  1
  Fe  Fe61  1  0.12527013  0.37364416  0.63260256  1
  Fe  Fe62  1  0.12491140  0.12422177  0.38995207  1
  Fe  Fe63  1  0.62474370  0.37539610  0.63565761  1
  Pb  Pb64  1  -0.00253335  0.00776149  0.00075635  1
  Pb  Pb65  1  0.00113812  0.00438424  0.25038143  1
  Pb  Pb66  1  -0.00232498  0.01444819  0.50493983  1
  Pb  Pb67  1  0.00341887  0.01001215  0.75342194  1
  Pb  Pb68  1  -0.00766565  0.24009097  -0.00251345  1
  Pb  Pb69  1  0.00388912  0.24127339  0.25132206  1
  Pb  Pb70  1  0.00439142  0.24776186  0.50619916  1
  Pb  Pb71  1  0.00028770  0.24277801  0.75092739  1
  Pb  Pb72  1  -0.00220452  0.51292255  0.00728712  1
  Pb  Pb73  1  -0.00349297  0.50881444  0.25721468  1
  Pb  Pb74  1  0.00429004  0.50420405  0.49872378  1
  Pb  Pb75  1  -0.00355058  0.49744077  0.74380404  1
  Pb  Pb76  1  0.00150681  0.74364080  0.00736162  1
  Pb  Pb77  1  -0.00304006  0.74243781  0.25572457  1
  Pb  Pb78  1  -0.00122755  0.74130625  0.49260445  1
  Pb  Pb79  1  0.00098035  0.74788356  0.74138025  1
  Pb  Pb80  1  0.25879349  -0.00057691  0.00551343  1
  Pb  Pb81  1  0.24966695  0.00545122  0.24550954  1
  Pb  Pb82  1  0.25316671  -0.00374201  0.50039949  1
  Pb  Pb83  1  0.25388454  -0.00578312  0.75059329  1
  Pb  Pb84  1  0.24768269  0.24265920  0.00266914  1
  Pb  Pb85  1  0.24477754  0.24253665  0.24843656  1
  Pb  Pb86  1  0.24257239  0.25353086  0.50346084  1
  Pb  Pb87  1  0.24151085  0.24356320  0.75036610  1
  Pb  Pb88  1  0.24748928  0.50820646  0.00603985  1
  Pb  Pb89  1  0.25352686  0.50846627  0.25518275  1
  Pb  Pb90  1  0.24561959  0.50440810  0.49934360  1
  Pb  Pb91  1  0.24658329  0.50402386  0.74099094  1
  Pb  Pb92  1  0.25341221  0.74566874  0.00531319  1
  Pb  Pb93  1  0.25875808  0.73946293  0.25329727  1
  Pb  Pb94  1  0.25045130  0.74062701  0.49948288  1
  Pb  Pb95  1  0.25708891  0.75243605  0.74232255  1
  Pb  Pb96  1  0.49183279  -0.00207474  0.00144809  1
  Pb  Pb97  1  0.50469662  -0.00530342  0.25378403  1
  Pb  Pb98  1  0.50038839  -0.00707901  0.50623256  1
  Pb  Pb99  1  0.50120060  -0.00536963  0.74349213  1
  Pb  Pb100  1  0.49975779  0.24816599  -0.00618203  1
  Pb  Pb101  1  0.50538388  0.25736328  0.25228818  1
  Pb  Pb102  1  0.51065069  0.24906421  0.50836334  1
  Pb  Pb103  1  0.50812528  0.25115490  0.75075943  1
  Pb  Pb104  1  0.49767979  0.50855862  0.00135658  1
  Pb  Pb105  1  0.49963398  0.50200408  0.25101157  1
  Pb  Pb106  1  0.51048476  0.49856135  0.50495166  1
  Pb  Pb107  1  0.50413529  0.49923823  0.74267633  1
  Pb  Pb108  1  0.49937955  0.74321959  0.00443171  1
  Pb  Pb109  1  0.49865326  0.74756837  0.25087903  1
  Pb  Pb110  1  0.50428212  0.74468640  0.50227437  1
  Pb  Pb111  1  0.49446770  0.75307645  0.73517778  1
  Pb  Pb112  1  0.75514435  0.00496086  -0.00631441  1
  Pb  Pb113  1  0.74713273  -0.00962552  0.25969468  1
  Pb  Pb114  1  0.74905426  0.00451842  0.50393994  1
  Pb  Pb115  1  0.74665600  0.00816944  0.74617774  1
  Pb  Pb116  1  0.75029960  0.25024044  -0.01513259  1
  Pb  Pb117  1  0.74234738  0.25649561  0.25317566  1
  Pb  Pb118  1  0.74950065  0.23951417  0.51154162  1
  Pb  Pb119  1  0.74647612  0.25128306  0.74739144  1
  Pb  Pb120  1  0.74900597  0.50364623  -0.00337738  1
  Pb  Pb121  1  0.74965118  0.50557580  0.25298334  1
  Pb  Pb122  1  0.74566192  0.50468886  0.50325499  1
  Pb  Pb123  1  0.75152778  0.49488130  0.74440983  1
  Pb  Pb124  1  0.75006390  0.74347002  0.00397268  1
  Pb  Pb125  1  0.75334065  0.75397311  0.25666906  1
  Pb  Pb126  1  0.75384185  0.75184446  0.49383337  1
  Pb  Pb127  1  0.74653748  0.74712699  0.73727309  1
  O  O128  1  0.11993565  -0.00619516  0.16298439  1
  O  O129  1  0.12778398  -0.00486243  0.41273756  1
  O  O130  1  0.12441967  -0.00659168  0.66062717  1
  O  O131  1  0.12307129  -0.00939594  0.91310143  1
  O  O132  1  0.12516613  0.25788948  0.16488714  1
  O  O133  1  0.12525445  0.25315253  0.41560354  1
  O  O134  1  0.12662282  0.25041830  0.66519669  1
  O  O135  1  0.12869537  0.25996001  0.91347212  1
  O  O136  1  0.12778813  0.48866518  0.16743630  1
  O  O137  1  0.12911156  0.49038906  0.40950213  1
  O  O138  1  0.12654991  0.49798573  0.66189441  1
  O  O139  1  0.12916273  0.50077004  0.91873165  1
  O  O140  1  0.12124917  0.75905806  0.16685680  1
  O  O141  1  0.13091007  0.76110892  0.40720827  1
  O  O142  1  0.12596139  0.75748751  0.66019729  1
  O  O143  1  0.12468353  0.74869493  0.92103353  1
  O  O144  1  0.37787093  0.00064242  0.16963483  1
  O  O145  1  0.37799628  0.01106231  0.41495461  1
  O  O146  1  0.37100469  0.00670630  0.66251419  1
  O  O147  1  0.37338404  0.00320273  0.91349283  1
  O  O148  1  0.37784944  0.25417393  0.16499136  1
  O  O149  1  0.37589216  0.24539747  0.41782165  1
  O  O150  1  0.37292602  0.24719389  0.66339424  1
  O  O151  1  0.37331309  0.24734344  0.91322575  1
  O  O152  1  0.37732069  0.48952346  0.16568260  1
  O  O153  1  0.37271957  0.48771536  0.41013803  1
  O  O154  1  0.37348139  0.49256207  0.65466632  1
  O  O155  1  0.37354684  0.50308492  0.91752525  1
  O  O156  1  0.37900776  0.75483986  0.16574470  1
  O  O157  1  0.37595990  0.75718048  0.40747276  1
  O  O158  1  0.37009935  0.75183505  0.65465010  1
  O  O159  1  0.37300425  0.74601583  0.91630564  1
  O  O160  1  0.62811685  0.00300183  0.16426747  1
  O  O161  1  0.62738787  0.01221344  0.41618648  1
  O  O162  1  0.62504851  -0.00336913  0.66118864  1
  O  O163  1  0.62636848  -0.00921382  0.90954494  1
  O  O164  1  0.62546373  0.24911953  0.16525534  1
  O  O165  1  0.62801386  0.24468158  0.42101462  1
  O  O166  1  0.62241581  0.25153397  0.66434050  1
  O  O167  1  0.62053476  0.24915330  0.90823374  1
  O  O168  1  0.62467729  0.49331580  0.16336737  1
  O  O169  1  0.62371847  0.50083638  0.41374514  1
  O  O170  1  0.62219590  0.49982263  0.66195268  1
  O  O171  1  0.62184058  0.50730041  0.91098538  1
  O  O172  1  0.62690460  0.75778119  0.16311025  1
  O  O173  1  0.62357592  0.74307685  0.41012469  1
  O  O174  1  0.62587130  0.75222284  0.65800885  1
  O  O175  1  0.62654651  0.75207081  0.91867816  1
  O  O176  1  0.87151565  -0.00319385  0.16686684  1
  O  O177  1  0.87459170  0.00952470  0.41212875  1
  O  O178  1  0.87979788  -0.01070803  0.66314583  1
  O  O179  1  0.87690176  -0.00844684  0.91228461  1
  O  O180  1  0.87457539  0.25755863  0.16449305  1
  O  O181  1  0.87740329  0.25141959  0.41885798  1
  O  O182  1  0.87598610  0.25691779  0.66079628  1
  O  O183  1  0.87664536  0.25244395  0.90681252  1
  O  O184  1  0.87502705  0.48821920  0.16738742  1
  O  O185  1  0.87831112  0.48852976  0.41365575  1
  O  O186  1  0.87687607  0.49613648  0.65881427  1
  O  O187  1  0.87577848  0.50680504  0.91606469  1
  O  O188  1  0.87110391  0.75738247  0.16860415  1
  O  O189  1  0.87572945  0.75088263  0.40885745  1
  O  O190  1  0.87941611  0.75778432  0.65785180  1
  O  O191  1  0.87635331  0.74849815  0.92188720  1
  O  O192  1  -0.00242053  0.12652847  0.16621420  1
  O  O193  1  -0.00545246  0.12802786  0.41364244  1
  O  O194  1  0.00299253  0.12339401  0.66669552  1
  O  O195  1  -0.00022395  0.12332576  0.91454255  1
  O  O196  1  0.00095851  0.37361861  0.15878032  1
  O  O197  1  0.00283905  0.37163139  0.41236362  1
  O  O198  1  -0.00375353  0.37573440  0.66096949  1
  O  O199  1  0.00876000  0.38125292  0.91145617  1
  O  O200  1  -0.00192247  0.62338108  0.17131773  1
  O  O201  1  0.00376907  0.62262725  0.40907350  1
  O  O202  1  0.00013802  0.62712585  0.66012690  1
  O  O203  1  0.00158042  0.62580621  0.91839755  1
  O  O204  1  -0.00276307  0.87601555  0.16576651  1
  O  O205  1  0.00599520  0.87765361  0.40449976  1
  O  O206  1  0.00344345  0.87370026  0.66074989  1
  O  O207  1  0.00252911  0.86860690  0.91736843  1
  O  O208  1  0.24882048  0.12606130  0.16157430  1
  O  O209  1  0.25560873  0.12667954  0.41059545  1
  O  O210  1  0.25459848  0.12540434  0.66382281  1
  O  O211  1  0.25487087  0.12476171  0.91563464  1
  O  O212  1  0.25339839  0.37124156  0.16027347  1
  O  O213  1  0.25254166  0.36692244  0.41317233  1
  O  O214  1  0.25725710  0.37165388  0.66416484  1
  O  O215  1  0.25051618  0.37805787  0.92159015  1
  O  O216  1  0.25265509  0.62383310  0.16699924  1
  O  O217  1  0.24987982  0.62452547  0.41236240  1
  O  O218  1  0.25029360  0.62417556  0.65998707  1
  O  O219  1  0.24943142  0.62571480  0.91950304  1
  O  O220  1  0.24393167  0.87822136  0.15875209  1
  O  O221  1  0.25449593  0.88281033  0.41214306  1
  O  O222  1  0.24304746  0.87771356  0.65997549  1
  O  O223  1  0.24193662  0.87122467  0.91764943  1
  O  O224  1  0.51070934  0.12595594  0.16643864  1
  O  O225  1  0.50243190  0.12977467  0.41206872  1
  O  O226  1  0.49028523  0.12482730  0.66246016  1
  O  O227  1  0.49427024  0.12258805  0.91082672  1
  O  O228  1  0.49853560  0.37182576  0.16485759  1
  O  O229  1  0.49254559  0.36775612  0.41413530  1
  O  O230  1  0.48904698  0.37185536  0.66214554  1
  O  O231  1  0.49180016  0.37646355  0.91518119  1
  O  O232  1  0.50349590  0.62399250  0.17092903  1
  O  O233  1  0.50504396  0.62217228  0.41207339  1
  O  O234  1  0.49657202  0.62550956  0.65806487  1
  O  O235  1  0.49935754  0.62830828  0.91597171  1
  O  O236  1  0.50939586  0.88031563  0.16473086  1
  O  O237  1  0.49283914  0.88253819  0.41455889  1
  O  O238  1  0.49788269  0.87722135  0.65536360  1
  O  O239  1  0.50686175  0.87176619  0.91029163  1
  O  O240  1  0.74280694  0.12848396  0.16606932  1
  O  O241  1  0.75366196  0.13010491  0.41690592  1
  O  O242  1  0.75211059  0.12408479  0.66473275  1
  O  O243  1  0.74914832  0.12064163  0.90728025  1
  O  O244  1  0.75103819  0.37272970  0.16212274  1
  O  O245  1  0.75697861  0.37160647  0.41399915  1
  O  O246  1  0.75567702  0.37660127  0.65831584  1
  O  O247  1  0.74790309  0.37967764  0.91145804  1
  O  O248  1  0.74781926  0.62328106  0.17036182  1
  O  O249  1  0.74405841  0.62027343  0.41164315  1
  O  O250  1  0.75331621  0.62569658  0.65867140  1
  O  O251  1  0.75020124  0.62800210  0.91541090  1
  O  O252  1  0.74607584  0.87836672  0.16808467  1
  O  O253  1  0.75275723  0.87898495  0.41695917  1
  O  O254  1  0.75805036  0.87414655  0.65095266  1
  O  O255  1  0.74943008  0.87023590  0.91530167  1
  O  O256  1  0.12083217  0.12942838  0.03241067  1
  O  O257  1  0.12219740  0.13012021  0.28947173  1
  O  O258  1  0.11839521  0.12653502  0.53281975  1
  O  O259  1  0.12423314  0.12640968  0.79143233  1
  O  O260  1  0.12253018  0.37663553  0.04786392  1
  O  O261  1  0.12412305  0.37017258  0.29998958  1
  O  O262  1  0.12907994  0.37031457  0.53247440  1
  O  O263  1  0.12950691  0.38029887  0.80078308  1
  O  O264  1  0.12128733  0.62209964  0.04575537  1
  O  O265  1  0.12832555  0.62303957  0.28116637  1
  O  O266  1  0.12810113  0.62517917  0.52865498  1
  O  O267  1  0.12648778  0.62666292  0.80145590  1
  O  O268  1  0.12261177  0.87189823  0.04838363  1
  O  O269  1  0.12653197  0.88054286  0.29366123  1
  O  O270  1  0.12324133  0.87632861  0.54310928  1
  O  O271  1  0.12412241  0.87011799  0.80196002  1
  O  O272  1  0.37885831  0.11923735  0.03651292  1
  O  O273  1  0.37502684  0.12839354  0.29853565  1
  O  O274  1  0.37284168  0.12654036  0.54643168  1
  O  O275  1  0.37276450  0.12370214  0.79929723  1
  O  O276  1  0.37419037  0.37272632  0.04822132  1
  O  O277  1  0.37525890  0.36775595  0.29916603  1
  O  O278  1  0.37126448  0.36895701  0.54466177  1
  O  O279  1  0.36961018  0.37725520  0.79957828  1
  O  O280  1  0.38171023  0.62398765  0.03874107  1
  O  O281  1  0.37309851  0.62319885  0.29058674  1
  O  O282  1  0.37159605  0.62721059  0.52273138  1
  O  O283  1  0.37396813  0.62448230  0.79969556  1
  O  O284  1  0.37600192  0.88561434  0.03357658  1
  O  O285  1  0.37592378  0.88201428  0.30165530  1
  O  O286  1  0.37216105  0.88642109  0.52811683  1
  O  O287  1  0.36561334  0.87625798  0.78912300  1
  O  O288  1  0.62624600  0.12316988  0.04837275  1
  O  O289  1  0.62622749  0.13065821  0.30281589  1
  O  O290  1  0.62850242  0.13104843  0.53880033  1
  O  O291  1  0.62196599  0.12134591  0.77834441  1
  O  O292  1  0.62206854  0.37318141  0.04684848  1
  O  O293  1  0.62517913  0.36455210  0.29256882  1
  O  O294  1  0.61768545  0.37620717  0.53322664  1
  O  O295  1  0.61856675  0.37808603  0.78099045  1
  O  O296  1  0.62222219  0.62875275  0.03592149  1
  O  O297  1  0.62406257  0.62052829  0.29802304  1
  O  O298  1  0.62164075  0.61871479  0.52992933  1
  O  O299  1  0.62521680  0.63262037  0.79822368  1
  O  O300  1  0.62857952  0.87639246  0.05026258  1
  O  O301  1  0.62657208  0.88389956  0.29506948  1
  O  O302  1  0.61936332  0.87708240  0.52288113  1
  O  O303  1  0.62791442  0.86918232  0.79766079  1
  O  O304  1  0.87652344  0.12290866  0.03701659  1
  O  O305  1  0.87258111  0.13081822  0.30080114  1
  O  O306  1  0.87893974  0.12167799  0.54042448  1
  O  O307  1  0.88251115  0.11985567  0.77905797  1
  O  O308  1  0.87116467  0.37589172  0.04723193  1
  O  O309  1  0.87319266  0.36951952  0.30012191  1
  O  O310  1  0.87898110  0.37502201  0.54569760  1
  O  O311  1  0.87612077  0.38639324  0.78260082  1
  O  O312  1  0.87735369  0.62277015  0.04284943  1
  O  O313  1  0.87500041  0.61633350  0.28805716  1
  O  O314  1  0.87906103  0.62358647  0.52535588  1
  O  O315  1  0.87684817  0.62931901  0.79922098  1
  O  O316  1  0.87442358  0.87589787  0.05670584  1
  O  O317  1  0.86608057  0.87951329  0.28270481  1
  O  O318  1  0.88169805  0.87884697  0.54147249  1
  O  O319  1  0.87685412  0.86685128  0.79784649  1
