# generated using pymatgen
data_VFe(PbO3)2
_symmetry_space_group_name_H-M   'P 1'
_cell_length_a   15.39116245
_cell_length_b   15.38236934
_cell_length_c   18.51787313
_cell_angle_alpha   90.01658095
_cell_angle_beta   90.00192141
_cell_angle_gamma   89.98935360
_symmetry_Int_Tables_number   1
_chemical_formula_structural   VFe(PbO3)2
_chemical_formula_sum   'V32 Fe32 Pb64 O192'
_cell_volume   4384.15333547
_cell_formula_units_Z   32
loop_
 _symmetry_equiv_pos_site_id
 _symmetry_equiv_pos_as_xyz
  1  'x, y, z'
loop_
 _atom_site_type_symbol
 _atom_site_label
 _atom_site_symmetry_multiplicity
 _atom_site_fract_x
 _atom_site_fract_y
 _atom_site_fract_z
 _atom_site_occupancy
  V  V0  1  0.87111639  0.62399765  0.63963923  1
  V  V1  1  0.37640953  0.37583854  0.89001355  1
  V  V2  1  0.87393510  0.37403432  0.13706756  1
  V  V3  1  0.87999507  0.62663326  0.39072650  1
  V  V4  1  0.12525820  0.37394128  0.13385385  1
  V  V5  1  0.37587998  0.87419396  0.89021468  1
  V  V6  1  0.37547952  0.37612496  0.63593590  1
  V  V7  1  0.37624456  0.87410729  0.63354235  1
  V  V8  1  0.12253579  0.62280712  0.64361613  1
  V  V9  1  0.12357326  0.37454473  0.39319980  1
  V  V10  1  0.37616907  0.87505033  0.14686847  1
  V  V11  1  0.12060883  0.62429072  0.39091685  1
  V  V12  1  0.11843902  0.12663253  0.39477695  1
  V  V13  1  0.62245642  0.37342621  0.89001787  1
  V  V14  1  0.38169337  0.62559891  0.89800037  1
  V  V15  1  0.12287099  0.87649328  0.39179759  1
  V  V16  1  0.62598746  0.12382860  0.63402188  1
  V  V17  1  0.87417716  0.62434209  0.13737452  1
  V  V18  1  0.12199464  0.37329828  0.65685215  1
  V  V19  1  0.87668332  0.12474508  0.39150157  1
  V  V20  1  0.62635152  0.12530632  0.14424776  1
  V  V21  1  0.12533497  0.12460805  0.13485244  1
  V  V22  1  0.37346163  0.62517153  0.38756143  1
  V  V23  1  0.62222627  0.87318077  0.89059082  1
  V  V24  1  0.62180673  0.12110109  0.89146084  1
  V  V25  1  0.87902944  0.37477568  0.39137705  1
  V  V26  1  0.12609517  0.62675831  0.88927613  1
  V  V27  1  0.12582892  0.87621382  0.13581680  1
  V  V28  1  0.37292308  0.62493007  0.63440352  1
  V  V29  1  0.37629560  0.37670587  0.14491782  1
  V  V30  1  0.62027893  0.62466294  0.14297260  1
  V  V31  1  0.87611739  0.12495754  0.64094786  1
  Fe  Fe32  1  0.12747491  0.12494225  0.64405005  1
  Fe  Fe33  1  0.87078776  0.12586322  0.88739853  1
  Fe  Fe34  1  0.87428558  0.87505533  0.63802972  1
  Fe  Fe35  1  0.87570054  0.12715478  0.12904960  1
  Fe  Fe36  1  0.63022154  0.62327020  0.38957191  1
  Fe  Fe37  1  0.62752380  0.12653656  0.38116564  1
  Fe  Fe38  1  0.36942061  0.37695727  0.38297695  1
  Fe  Fe39  1  0.37611649  0.12480633  0.62983545  1
  Fe  Fe40  1  0.13010526  0.87441644  0.87811467  1
  Fe  Fe41  1  0.38296875  0.12483189  0.88958877  1
  Fe  Fe42  1  0.12967576  0.12515430  0.87649673  1
  Fe  Fe43  1  0.36952537  0.12541029  0.38537691  1
  Fe  Fe44  1  0.62573492  0.37537714  0.14585478  1
  Fe  Fe45  1  0.62498136  0.37439087  0.38123598  1
  Fe  Fe46  1  0.87286898  0.37440755  0.64818665  1
  Fe  Fe47  1  0.12975561  0.37540102  0.87543885  1
  Fe  Fe48  1  0.62512344  0.87570247  0.14728403  1
  Fe  Fe49  1  0.12413886  0.62467535  0.13245871  1
  Fe  Fe50  1  0.62585984  0.87536981  0.37759360  1
  Fe  Fe51  1  0.62289922  0.62547860  0.62693541  1
  Fe  Fe52  1  0.87567310  0.87551253  0.13292640  1
  Fe  Fe53  1  0.87978660  0.87525467  0.38781871  1
  Fe  Fe54  1  0.86761658  0.62481079  0.88222092  1
  Fe  Fe55  1  0.36969976  0.87318144  0.38194329  1
  Fe  Fe56  1  0.62324832  0.37389237  0.63180601  1
  Fe  Fe57  1  0.62502006  0.87587871  0.63118164  1
  Fe  Fe58  1  0.87385417  0.87332624  0.88375934  1
  Fe  Fe59  1  0.37146320  0.62480847  0.13543897  1
  Fe  Fe60  1  0.12645112  0.87182486  0.64721275  1
  Fe  Fe61  1  0.37196807  0.12551803  0.14098684  1
  Fe  Fe62  1  0.87407552  0.37691901  0.87653655  1
  Fe  Fe63  1  0.62107703  0.62509383  0.88559037  1
  Pb  Pb64  1  0.00049217  0.00193328  -0.01589957  1
  Pb  Pb65  1  -0.00743319  -0.00282318  0.24541524  1
  Pb  Pb66  1  0.00241971  -0.00812436  0.51120876  1
  Pb  Pb67  1  0.00229402  -0.00821030  0.75102813  1
  Pb  Pb68  1  0.00110065  0.24901138  -0.01688887  1
  Pb  Pb69  1  0.00239070  0.24817142  0.24454955  1
  Pb  Pb70  1  -0.00513561  0.25399466  0.51158807  1
  Pb  Pb71  1  -0.00994470  0.23689557  0.76040130  1
  Pb  Pb72  1  0.00278177  0.49862819  -0.01135985  1
  Pb  Pb73  1  -0.00088930  0.50072380  0.24491615  1
  Pb  Pb74  1  -0.00963338  0.49459274  0.50935569  1
  Pb  Pb75  1  -0.00939026  0.50277341  0.75840037  1
  Pb  Pb76  1  -0.00386042  0.75616435  -0.00748617  1
  Pb  Pb77  1  -0.00507350  0.75610141  0.24791803  1
  Pb  Pb78  1  0.00014668  0.76085001  0.51030182  1
  Pb  Pb79  1  -0.00798075  0.75648999  0.75545070  1
  Pb  Pb80  1  0.25497745  0.00831263  -0.00464474  1
  Pb  Pb81  1  0.25403839  0.00204569  0.25414832  1
  Pb  Pb82  1  0.24718991  0.01018621  0.50527805  1
  Pb  Pb83  1  0.24630639  0.00614647  0.74813091  1
  Pb  Pb84  1  0.25466645  0.24379106  -0.00503152  1
  Pb  Pb85  1  0.25661800  0.25101485  0.25361151  1
  Pb  Pb86  1  0.24816771  0.24026167  0.50581908  1
  Pb  Pb87  1  0.25133266  0.24227596  0.75285762  1
  Pb  Pb88  1  0.25120567  0.50843276  0.00297870  1
  Pb  Pb89  1  0.25046371  0.49743874  0.24847378  1
  Pb  Pb90  1  0.24627129  0.50137696  0.50148394  1
  Pb  Pb91  1  0.25343201  0.49775504  0.75357287  1
  Pb  Pb92  1  0.25134443  0.74176186  0.00427697  1
  Pb  Pb93  1  0.24974665  0.74989199  0.24905888  1
  Pb  Pb94  1  0.24034124  0.75643392  0.50236715  1
  Pb  Pb95  1  0.25170729  0.75223529  0.75148116  1
  Pb  Pb96  1  0.50640750  -0.00392457  0.00975223  1
  Pb  Pb97  1  0.49903977  0.01146861  0.25739714  1
  Pb  Pb98  1  0.49608439  0.00049210  0.48417127  1
  Pb  Pb99  1  0.49390176  0.00489793  0.74544846  1
  Pb  Pb100  1  0.50582723  0.25390721  0.00965461  1
  Pb  Pb101  1  0.49831633  0.24582783  0.25579289  1
  Pb  Pb102  1  0.49512802  0.24946575  0.48566996  1
  Pb  Pb103  1  0.49423293  0.24435934  0.74552703  1
  Pb  Pb104  1  0.50536743  0.49348677  0.00747256  1
  Pb  Pb105  1  0.50763904  0.50050137  0.25746456  1
  Pb  Pb106  1  0.51028991  0.49519081  0.49509489  1
  Pb  Pb107  1  0.50848955  0.50600609  0.74503503  1
  Pb  Pb108  1  0.50564623  0.75603267  0.00873704  1
  Pb  Pb109  1  0.50130313  0.75735429  0.25739132  1
  Pb  Pb110  1  0.50807897  0.75382440  0.49173237  1
  Pb  Pb111  1  0.50945488  0.74445902  0.74361056  1
  Pb  Pb112  1  0.76227645  -0.00400617  0.00430411  1
  Pb  Pb113  1  0.75380842  -0.00625373  0.24713814  1
  Pb  Pb114  1  0.74471890  -0.01185023  0.49414755  1
  Pb  Pb115  1  0.75537094  -0.00334819  0.74950119  1
  Pb  Pb116  1  0.75404588  0.25037127  -0.00100781  1
  Pb  Pb117  1  0.74227418  0.24772768  0.25268361  1
  Pb  Pb118  1  0.74614633  0.25891407  0.49934344  1
  Pb  Pb119  1  0.75130505  0.24875080  0.75031332  1
  Pb  Pb120  1  0.74866886  0.50109947  -0.00561611  1
  Pb  Pb121  1  0.74324258  0.50266015  0.25728683  1
  Pb  Pb122  1  0.74368313  0.49491981  0.50212190  1
  Pb  Pb123  1  0.74628184  0.50091222  0.74593683  1
  Pb  Pb124  1  0.75245538  0.75662841  0.00032317  1
  Pb  Pb125  1  0.74749302  0.75433548  0.25277486  1
  Pb  Pb126  1  0.74168293  0.75641847  0.49750676  1
  Pb  Pb127  1  0.75148706  0.75129514  0.74639467  1
  O  O128  1  0.12404975  -0.00279702  0.16194418  1
  O  O129  1  0.12142855  -0.00384018  0.41418284  1
  O  O130  1  0.12732934  -0.00153226  0.66577394  1
  O  O131  1  0.13048261  -0.00082718  0.90523787  1
  O  O132  1  0.12424439  0.25158020  0.16352874  1
  O  O133  1  0.12122052  0.25524248  0.41839636  1
  O  O134  1  0.13078081  0.25728721  0.66567570  1
  O  O135  1  0.13104703  0.25201677  0.90537219  1
  O  O136  1  0.12223807  0.49443161  0.16185957  1
  O  O137  1  0.12032410  0.49597735  0.41714644  1
  O  O138  1  0.13077310  0.50645985  0.67311146  1
  O  O139  1  0.13188341  0.50561385  0.90958879  1
  O  O140  1  0.12396793  0.75779418  0.15961656  1
  O  O141  1  0.11963150  0.75164664  0.41548012  1
  O  O142  1  0.12970476  0.73809135  0.66819386  1
  O  O143  1  0.13208370  0.74485302  0.91164039  1
  O  O144  1  0.37133752  -0.00544083  0.16840024  1
  O  O145  1  0.36771276  -0.00207483  0.40885283  1
  O  O146  1  0.37582171  -0.00790837  0.65548318  1
  O  O147  1  0.38198226  -0.00822992  0.91529106  1
  O  O148  1  0.37130025  0.25595449  0.16634923  1
  O  O149  1  0.36747994  0.25214867  0.41076369  1
  O  O150  1  0.37676896  0.25744734  0.65647518  1
  O  O151  1  0.38130711  0.25843692  0.91541444  1
  O  O152  1  0.37122696  0.49638392  0.16548740  1
  O  O153  1  0.36395182  0.50835968  0.41292151  1
  O  O154  1  0.37637264  0.50186016  0.66247298  1
  O  O155  1  0.38067520  0.49558170  0.91762813  1
  O  O156  1  0.37063400  0.75401252  0.16600323  1
  O  O157  1  0.36559818  0.74136059  0.41335883  1
  O  O158  1  0.37539980  0.74765268  0.66034209  1
  O  O159  1  0.38138492  0.75546933  0.91926642  1
  O  O160  1  0.62374564  0.00706823  0.16614940  1
  O  O161  1  0.62844863  0.00080243  0.40547648  1
  O  O162  1  0.62426056  0.00649137  0.66150601  1
  O  O163  1  0.62038482  0.00137869  0.91460023  1
  O  O164  1  0.62455594  0.24693261  0.16676909  1
  O  O165  1  0.62947139  0.25086430  0.41087815  1
  O  O166  1  0.62327302  0.24145290  0.65993827  1
  O  O167  1  0.62017212  0.25175196  0.91555742  1
  O  O168  1  0.62780849  0.50638650  0.16802579  1
  O  O169  1  0.62897035  0.49823054  0.41342461  1
  O  O170  1  0.62219622  0.50157311  0.66021582  1
  O  O171  1  0.61929768  0.49210495  0.91326783  1
  O  O172  1  0.62725219  0.74029654  0.16707444  1
  O  O173  1  0.62803768  0.74880341  0.40913473  1
  O  O174  1  0.62368037  0.74928600  0.65933149  1
  O  O175  1  0.61977868  0.75711530  0.91329551  1
  O  O176  1  0.87601726  0.00292321  0.16074002  1
  O  O177  1  0.88252327  0.00856571  0.41208915  1
  O  O178  1  0.87367291  0.00701783  0.66423876  1
  O  O179  1  0.86903654  -0.00104221  0.91035298  1
  O  O180  1  0.87645068  0.25633556  0.16008219  1
  O  O181  1  0.88240767  0.24905195  0.41994195  1
  O  O182  1  0.87220981  0.24294983  0.66693439  1
  O  O183  1  0.87012376  0.25428425  0.91124314  1
  O  O184  1  0.87835329  0.49853956  0.16336617  1
  O  O185  1  0.88323875  0.49910868  0.41739947  1
  O  O186  1  0.87897387  0.50707174  0.66595690  1
  O  O187  1  0.87262533  0.49971612  0.91231596  1
  O  O188  1  0.87723691  0.74189029  0.15992186  1
  O  O189  1  0.88322333  0.74211895  0.41053213  1
  O  O190  1  0.87821845  0.74126058  0.66126662  1
  O  O191  1  0.87156938  0.74837668  0.91490353  1
  O  O192  1  0.00457802  0.12789801  0.16051164  1
  O  O193  1  -0.00056528  0.12714567  0.42559921  1
  O  O194  1  -0.00605977  0.12735003  0.66176807  1
  O  O195  1  0.00142977  0.12651370  0.90335772  1
  O  O196  1  -0.00259789  0.37472586  0.16214038  1
  O  O197  1  0.00374769  0.37396880  0.42434898  1
  O  O198  1  0.00666310  0.37804725  0.66977447  1
  O  O199  1  0.00312934  0.37861570  0.90062954  1
  O  O200  1  -0.00533842  0.62231529  0.16200078  1
  O  O201  1  0.00012932  0.62172057  0.42275682  1
  O  O202  1  0.00565766  0.62189935  0.66360076  1
  O  O203  1  0.00788375  0.62503681  0.90678462  1
  O  O204  1  0.00574782  0.87556541  0.16038728  1
  O  O205  1  0.00538847  0.87537578  0.42124882  1
  O  O206  1  -0.00170030  0.87217575  0.66853561  1
  O  O207  1  0.00326563  0.87144681  0.90547456  1
  O  O208  1  0.24201707  0.12408973  0.16731896  1
  O  O209  1  0.23898294  0.12561520  0.41541424  1
  O  O210  1  0.25642564  0.12672299  0.66573183  1
  O  O211  1  0.25709105  0.12552671  0.91113913  1
  O  O212  1  0.24841118  0.37555639  0.16351895  1
  O  O213  1  0.23864111  0.37739767  0.41677465  1
  O  O214  1  0.26130184  0.37975774  0.66839684  1
  O  O215  1  0.26047769  0.37784861  0.90885051  1
  O  O216  1  0.24706810  0.62522994  0.16599174  1
  O  O217  1  0.24079940  0.62477322  0.41660971  1
  O  O218  1  0.25321524  0.62356710  0.66648390  1
  O  O219  1  0.25386968  0.62548639  0.91692076  1
  O  O220  1  0.24462056  0.87646863  0.16445240  1
  O  O221  1  0.23909835  0.87139301  0.41461639  1
  O  O222  1  0.26101908  0.86931564  0.66383694  1
  O  O223  1  0.26051273  0.87221457  0.90925807  1
  O  O224  1  0.50225814  0.12657451  0.16597466  1
  O  O225  1  0.49906206  0.12593747  0.40587066  1
  O  O226  1  0.50383136  0.12364640  0.65845626  1
  O  O227  1  0.50771299  0.12609613  0.92339376  1
  O  O228  1  0.49286147  0.37691046  0.16729365  1
  O  O229  1  0.49660420  0.37886952  0.40414139  1
  O  O230  1  0.49341896  0.37693612  0.65942353  1
  O  O231  1  0.50043125  0.37451182  0.92204452  1
  O  O232  1  0.50310115  0.62321623  0.16086522  1
  O  O233  1  0.48958278  0.62392079  0.40602304  1
  O  O234  1  0.49327559  0.62529408  0.65733206  1
  O  O235  1  0.50007001  0.62530984  0.92439893  1
  O  O236  1  0.49264868  0.87288012  0.16763930  1
  O  O237  1  0.49707376  0.87058319  0.40370181  1
  O  O238  1  0.49325119  0.87285492  0.65790352  1
  O  O239  1  0.50185971  0.87654055  0.92228676  1
  O  O240  1  0.74677835  0.12782404  0.16334174  1
  O  O241  1  0.76162310  0.12887044  0.41065197  1
  O  O242  1  0.74665221  0.12441104  0.66218256  1
  O  O243  1  0.73668197  0.12728734  0.91572536  1
  O  O244  1  0.75905012  0.37719942  0.16261904  1
  O  O245  1  0.75872025  0.37444836  0.41047919  1
  O  O246  1  0.74578703  0.37483037  0.66467217  1
  O  O247  1  0.73992558  0.37436817  0.90755291  1
  O  O248  1  0.75676955  0.62195591  0.16472249  1
  O  O249  1  0.76424607  0.62085203  0.41100988  1
  O  O250  1  0.75443189  0.62349342  0.65458583  1
  O  O251  1  0.74322932  0.62378988  0.91586300  1
  O  O252  1  0.75259498  0.87277744  0.16540777  1
  O  O253  1  0.75469820  0.87404857  0.40707439  1
  O  O254  1  0.74899224  0.87528135  0.66374893  1
  O  O255  1  0.73842193  0.87638498  0.91095152  1
  O  O256  1  0.12951927  0.12519666  0.04376945  1
  O  O257  1  0.11417041  0.12841648  0.30384416  1
  O  O258  1  0.13449485  0.12621295  0.54222954  1
  O  O259  1  0.13220543  0.12928460  0.77489810  1
  O  O260  1  0.12554468  0.37366400  0.04306452  1
  O  O261  1  0.11972783  0.37318391  0.30245702  1
  O  O262  1  0.13027954  0.38328467  0.56562447  1
  O  O263  1  0.13961978  0.38054118  0.77413691  1
  O  O264  1  0.13052212  0.62429896  0.03307210  1
  O  O265  1  0.11766080  0.62367423  0.29978266  1
  O  O266  1  0.12581686  0.62066120  0.55222701  1
  O  O267  1  0.13173587  0.62741197  0.79842330  1
  O  O268  1  0.12787174  0.87774449  0.04518192  1
  O  O269  1  0.11929389  0.87498900  0.30092788  1
  O  O270  1  0.12122500  0.86590579  0.54533049  1
  O  O271  1  0.13228342  0.86782324  0.77718634  1
  O  O272  1  0.36730236  0.12462373  0.04103195  1
  O  O273  1  0.36851649  0.12493707  0.28230580  1
  O  O274  1  0.36685188  0.12435134  0.52971536  1
  O  O275  1  0.39082209  0.12503727  0.78914284  1
  O  O276  1  0.37644064  0.37560788  0.05346834  1
  O  O277  1  0.36083315  0.37775058  0.28338178  1
  O  O278  1  0.36955580  0.38089712  0.54495141  1
  O  O279  1  0.38389583  0.37584784  0.79928570  1
  O  O280  1  0.36531467  0.62519029  0.03541333  1
  O  O281  1  0.36804150  0.62578152  0.29612544  1
  O  O282  1  0.36846039  0.62291233  0.54378703  1
  O  O283  1  0.38085963  0.62690597  0.80681557  1
  O  O284  1  0.37494204  0.87600245  0.05551089  1
  O  O285  1  0.36425905  0.86884276  0.28198674  1
  O  O286  1  0.37169806  0.87027797  0.54251071  1
  O  O287  1  0.38314463  0.87241439  0.79964796  1
  O  O288  1  0.62483793  0.12644827  0.05273404  1
  O  O289  1  0.62559043  0.13227889  0.28091115  1
  O  O290  1  0.62815492  0.12342871  0.54334404  1
  O  O291  1  0.61823019  0.12236519  0.80059661  1
  O  O292  1  0.61801900  0.37561170  0.04558695  1
  O  O293  1  0.63020345  0.38134392  0.27825857  1
  O  O294  1  0.62776744  0.37856472  0.53146891  1
  O  O295  1  0.61476752  0.37195415  0.79926000  1
  O  O296  1  0.62720081  0.62403443  0.05183848  1
  O  O297  1  0.62883396  0.61621652  0.28818374  1
  O  O298  1  0.62541318  0.62385771  0.52588388  1
  O  O299  1  0.61449249  0.62501307  0.78575433  1
  O  O300  1  0.61709222  0.87435236  0.04622216  1
  O  O301  1  0.62567770  0.86761512  0.27504999  1
  O  O302  1  0.63017382  0.87302348  0.53093274  1
  O  O303  1  0.61686153  0.87560371  0.79973119  1
  O  O304  1  0.86999782  0.12694158  0.02916947  1
  O  O305  1  0.88351232  0.13019203  0.30054172  1
  O  O306  1  0.87307023  0.12680531  0.55018966  1
  O  O307  1  0.86697372  0.13165756  0.78629798  1
  O  O308  1  0.87507292  0.37641025  0.04625350  1
  O  O309  1  0.88498443  0.37324750  0.30065246  1
  O  O310  1  0.88332569  0.37301556  0.54676447  1
  O  O311  1  0.87221801  0.37644473  0.77521794  1
  O  O312  1  0.87295415  0.62133822  0.04654192  1
  O  O313  1  0.88578496  0.62223827  0.29948442  1
  O  O314  1  0.87937708  0.62055466  0.54864947  1
  O  O315  1  0.87252837  0.62411986  0.78223377  1
  O  O316  1  0.87034866  0.87235232  0.03232607  1
  O  O317  1  0.88922062  0.87460413  0.28696118  1
  O  O318  1  0.88400327  0.87712308  0.53644857  1
  O  O319  1  0.86988463  0.86919876  0.78221791  1
