# generated using pymatgen
data_VFe(PbO3)2
_symmetry_space_group_name_H-M   'P 1'
_cell_length_a   15.38072775
_cell_length_b   15.37581774
_cell_length_c   18.53335614
_cell_angle_alpha   90.01056192
_cell_angle_beta   90.01397366
_cell_angle_gamma   90.00612496
_symmetry_Int_Tables_number   1
_chemical_formula_structural   VFe(PbO3)2
_chemical_formula_sum   'V32 Fe32 Pb64 O192'
_cell_volume   4382.97663506
_cell_formula_units_Z   32
loop_
 _symmetry_equiv_pos_site_id
 _symmetry_equiv_pos_as_xyz
  1  'x, y, z'
loop_
 _atom_site_type_symbol
 _atom_site_label
 _atom_site_symmetry_multiplicity
 _atom_site_fract_x
 _atom_site_fract_y
 _atom_site_fract_z
 _atom_site_occupancy
  V  V0  1  0.62589117  0.12869283  0.64038354  1
  V  V1  1  0.37311557  0.87852813  0.13698323  1
  V  V2  1  0.12143099  0.62544244  0.39043842  1
  V  V3  1  0.62546699  0.87507218  0.13509123  1
  V  V4  1  0.62306140  0.87351128  0.88838194  1
  V  V5  1  0.87374459  0.87468962  0.89193248  1
  V  V6  1  0.62309234  0.37454766  0.38393406  1
  V  V7  1  0.62602488  0.62532574  0.89529239  1
  V  V8  1  0.37363598  0.12375426  0.88934534  1
  V  V9  1  0.87771936  0.62524818  0.89461559  1
  V  V10  1  0.62492648  0.37767279  0.64439726  1
  V  V11  1  0.63047959  0.37417791  0.90325300  1
  V  V12  1  0.37462927  0.87550961  0.39759994  1
  V  V13  1  0.62801045  0.62457985  0.64138914  1
  V  V14  1  0.12939892  0.12406603  0.39578230  1
  V  V15  1  0.87328362  0.12813462  0.63988552  1
  V  V16  1  0.62442590  0.87511930  0.39226153  1
  V  V17  1  0.38070505  0.12279348  0.39017631  1
  V  V18  1  0.87369215  0.62231140  0.63868164  1
  V  V19  1  0.62374018  0.62528312  0.38555958  1
  V  V20  1  0.12581990  0.37550567  0.63711987  1
  V  V21  1  0.37634881  0.62697881  0.39359001  1
  V  V22  1  0.87981170  0.12234602  0.13747157  1
  V  V23  1  0.87394383  0.12242581  0.38972527  1
  V  V24  1  0.37661808  0.13045739  0.63927425  1
  V  V25  1  0.12634355  0.37487133  0.88849197  1
  V  V26  1  0.12377401  0.37622919  0.13863486  1
  V  V27  1  0.37487442  0.37803890  0.89336345  1
  V  V28  1  0.12662519  0.12589997  0.14012845  1
  V  V29  1  0.87704657  0.87219784  0.39268716  1
  V  V30  1  0.87717656  0.12476321  0.88844327  1
  V  V31  1  0.12669846  0.87565848  0.88460371  1
  Fe  Fe32  1  0.87696728  0.62655588  0.13673371  1
  Fe  Fe33  1  0.12372583  0.62244103  0.63409149  1
  Fe  Fe34  1  0.87567157  0.87857824  0.13135620  1
  Fe  Fe35  1  0.12718365  0.62712771  0.13059612  1
  Fe  Fe36  1  0.12649354  0.87535515  0.39828173  1
  Fe  Fe37  1  0.37800918  0.61967537  0.63791668  1
  Fe  Fe38  1  0.87813202  0.37655313  0.89675733  1
  Fe  Fe39  1  0.12268760  0.12896762  0.63922180  1
  Fe  Fe40  1  0.37233789  0.37124464  0.13056870  1
  Fe  Fe41  1  0.37726315  0.37252077  0.63736463  1
  Fe  Fe42  1  0.62418500  0.37461483  0.12418608  1
  Fe  Fe43  1  0.12698704  0.37630956  0.38364400  1
  Fe  Fe44  1  0.62190318  0.62572950  0.13051359  1
  Fe  Fe45  1  0.62722150  0.12427928  0.38451226  1
  Fe  Fe46  1  0.37149415  0.62595214  0.13165848  1
  Fe  Fe47  1  0.87255260  0.37586506  0.63833689  1
  Fe  Fe48  1  0.87121433  0.62597899  0.37920986  1
  Fe  Fe49  1  0.12384129  0.62504690  0.88795969  1
  Fe  Fe50  1  0.87146192  0.87538483  0.63519678  1
  Fe  Fe51  1  0.37823082  0.87621178  0.63858711  1
  Fe  Fe52  1  0.37534787  0.87624121  0.87761934  1
  Fe  Fe53  1  0.12159916  0.87444607  0.62930858  1
  Fe  Fe54  1  0.12410818  0.12612820  0.87883370  1
  Fe  Fe55  1  0.37064700  0.12118509  0.13363772  1
  Fe  Fe56  1  0.62629578  0.12470491  0.89800148  1
  Fe  Fe57  1  0.37308121  0.37545863  0.38645638  1
  Fe  Fe58  1  0.12472522  0.87797880  0.13290522  1
  Fe  Fe59  1  0.87739959  0.37066966  0.12896050  1
  Fe  Fe60  1  0.62483024  0.12238976  0.12656783  1
  Fe  Fe61  1  0.37492472  0.62752303  0.88574933  1
  Fe  Fe62  1  0.87646411  0.37414664  0.38218752  1
  Fe  Fe63  1  0.62823503  0.87585211  0.63659983  1
  Pb  Pb64  1  0.00337714  -0.00809041  -0.00035762  1
  Pb  Pb65  1  0.00531687  -0.01000299  0.25294325  1
  Pb  Pb66  1  0.00430718  0.00195081  0.50679891  1
  Pb  Pb67  1  0.00395255  -0.00031717  0.74419285  1
  Pb  Pb68  1  0.00102248  0.25383280  -0.00134848  1
  Pb  Pb69  1  -0.00042184  0.25751944  0.25450953  1
  Pb  Pb70  1  0.00261069  0.24911018  0.50047241  1
  Pb  Pb71  1  -0.00782046  0.25955046  0.75206218  1
  Pb  Pb72  1  0.00074815  0.51239605  0.00657849  1
  Pb  Pb73  1  -0.00932544  0.50018371  0.24594140  1
  Pb  Pb74  1  -0.00455166  0.49400152  0.49387112  1
  Pb  Pb75  1  0.00455141  0.50133600  0.75256656  1
  Pb  Pb76  1  0.00399543  0.75955420  0.00474163  1
  Pb  Pb77  1  0.00065195  0.74945783  0.24157555  1
  Pb  Pb78  1  0.00748577  0.74803165  0.50362415  1
  Pb  Pb79  1  0.00798284  0.74836781  0.74648870  1
  Pb  Pb80  1  0.24892638  0.00150672  -0.00488310  1
  Pb  Pb81  1  0.24233352  -0.00730831  0.25509598  1
  Pb  Pb82  1  0.25077458  -0.00577878  0.50923937  1
  Pb  Pb83  1  0.24635203  -0.00237169  0.74169665  1
  Pb  Pb84  1  0.25758057  0.24939503  0.00079536  1
  Pb  Pb85  1  0.25392575  0.25696323  0.25308106  1
  Pb  Pb86  1  0.24879294  0.25328189  0.50071956  1
  Pb  Pb87  1  0.24293063  0.24853782  0.75040168  1
  Pb  Pb88  1  0.25131041  0.51030088  0.00081521  1
  Pb  Pb89  1  0.25346334  0.49287147  0.24670746  1
  Pb  Pb90  1  0.25349375  0.50526125  0.50213483  1
  Pb  Pb91  1  0.25303141  0.51253312  0.75070908  1
  Pb  Pb92  1  0.25107946  0.74419663  -0.00474156  1
  Pb  Pb93  1  0.24181750  0.74995060  0.24621250  1
  Pb  Pb94  1  0.24833023  0.74368775  0.50901171  1
  Pb  Pb95  1  0.25241761  0.74849194  0.73962711  1
  Pb  Pb96  1  0.49581903  0.01025183  0.00140961  1
  Pb  Pb97  1  0.50456923  0.00741226  0.24721957  1
  Pb  Pb98  1  0.50311679  -0.00867385  0.50704809  1
  Pb  Pb99  1  0.49984676  -0.00303418  0.74991613  1
  Pb  Pb100  1  0.49581525  0.25584157  0.00598584  1
  Pb  Pb101  1  0.50012533  0.24806515  0.23564434  1
  Pb  Pb102  1  0.49665731  0.25613492  0.49840479  1
  Pb  Pb103  1  0.50890119  0.24369500  0.75903526  1
  Pb  Pb104  1  0.50458945  0.50103048  0.00446255  1
  Pb  Pb105  1  0.49595660  0.49453235  0.23647717  1
  Pb  Pb106  1  0.49244570  0.50015585  0.50208609  1
  Pb  Pb107  1  0.49470440  0.50287130  0.75558781  1
  Pb  Pb108  1  0.49446167  0.74408752  -0.00263528  1
  Pb  Pb109  1  0.49785829  0.74875752  0.24515251  1
  Pb  Pb110  1  0.49613022  0.75291179  0.50699838  1
  Pb  Pb111  1  0.48814588  0.75248692  0.74980962  1
  Pb  Pb112  1  0.75012673  0.00012023  0.00001191  1
  Pb  Pb113  1  0.74502805  0.00620704  0.24791505  1
  Pb  Pb114  1  0.75041072  -0.00708372  0.50366436  1
  Pb  Pb115  1  0.74495352  0.00545119  0.75197130  1
  Pb  Pb116  1  0.75486319  0.25319091  0.00489980  1
  Pb  Pb117  1  0.74606996  0.25230510  0.23826145  1
  Pb  Pb118  1  0.75634234  0.25576246  0.49740528  1
  Pb  Pb119  1  0.74835442  0.24946782  0.75954858  1
  Pb  Pb120  1  0.75429590  0.51066557  0.01063994  1
  Pb  Pb121  1  0.75389810  0.49721091  0.23607895  1
  Pb  Pb122  1  0.75524285  0.49649777  0.49316807  1
  Pb  Pb123  1  0.75687605  0.49152494  0.75886253  1
  Pb  Pb124  1  0.75633200  0.74635379  0.00551433  1
  Pb  Pb125  1  0.75678083  0.74379854  0.24384029  1
  Pb  Pb126  1  0.74886194  0.75702777  0.50076654  1
  Pb  Pb127  1  0.75027969  0.75188513  0.75082267  1
  O  O128  1  0.12391168  0.00629103  0.16792820  1
  O  O129  1  0.12331982  0.00724839  0.42207966  1
  O  O130  1  0.12184772  0.00172967  0.65957013  1
  O  O131  1  0.12021344  -0.00361287  0.90781405  1
  O  O132  1  0.12285213  0.24334258  0.16398183  1
  O  O133  1  0.12385162  0.24293142  0.41603386  1
  O  O134  1  0.12302362  0.25764793  0.66592377  1
  O  O135  1  0.12886293  0.25409836  0.91128241  1
  O  O136  1  0.12554627  0.49151679  0.15625622  1
  O  O137  1  0.12956591  0.50827398  0.41208976  1
  O  O138  1  0.12103832  0.49254350  0.66258035  1
  O  O139  1  0.12631722  0.49108561  0.91432301  1
  O  O140  1  0.12697984  0.75337669  0.16106912  1
  O  O141  1  0.12798504  0.74386900  0.41694322  1
  O  O142  1  0.12124411  0.74890440  0.66103249  1
  O  O143  1  0.12104952  0.75847331  0.90771532  1
  O  O144  1  0.37447589  -0.00665595  0.16696911  1
  O  O145  1  0.37450405  0.00570615  0.42062988  1
  O  O146  1  0.37981166  0.01265829  0.66286178  1
  O  O147  1  0.37450342  0.00261048  0.91010905  1
  O  O148  1  0.37062656  0.24560282  0.16253284  1
  O  O149  1  0.37379258  0.24082030  0.41339270  1
  O  O150  1  0.37830277  0.24638566  0.66961732  1
  O  O151  1  0.37154379  0.24559349  0.91312201  1
  O  O152  1  0.37010687  0.49802095  0.15710555  1
  O  O153  1  0.37707979  0.50657944  0.41235882  1
  O  O154  1  0.38017225  0.49422834  0.66965055  1
  O  O155  1  0.37479231  0.49419978  0.91002943  1
  O  O156  1  0.37453370  0.76235007  0.16385270  1
  O  O157  1  0.37788251  0.74821688  0.42066161  1
  O  O158  1  0.38017104  0.74714285  0.65959004  1
  O  O159  1  0.37415185  0.75477506  0.91011996  1
  O  O160  1  0.62477818  -0.00590780  0.16184469  1
  O  O161  1  0.62614886  -0.00339020  0.41579774  1
  O  O162  1  0.62828461  0.00737575  0.66447824  1
  O  O163  1  0.62875287  -0.00950418  0.91273571  1
  O  O164  1  0.62626502  0.24680691  0.15175855  1
  O  O165  1  0.62495106  0.25587195  0.40984028  1
  O  O166  1  0.62743410  0.25314717  0.67172500  1
  O  O167  1  0.62427954  0.25558386  0.91843092  1
  O  O168  1  0.62291027  0.49924693  0.15640438  1
  O  O169  1  0.62229201  0.49659698  0.40932598  1
  O  O170  1  0.62780523  0.49623555  0.66901707  1
  O  O171  1  0.62205048  0.49886349  0.91820837  1
  O  O172  1  0.62154526  0.75925838  0.16172217  1
  O  O173  1  0.62256293  0.75098354  0.41644927  1
  O  O174  1  0.63015873  0.74088743  0.66191997  1
  O  O175  1  0.62983448  0.75496375  0.91561209  1
  O  O176  1  0.87597256  0.00575068  0.16454475  1
  O  O177  1  0.87441842  0.00198391  0.41671861  1
  O  O178  1  0.86990610  0.00981094  0.66255270  1
  O  O179  1  0.87623808  0.00322270  0.91206297  1
  O  O180  1  0.87856652  0.24007541  0.16201641  1
  O  O181  1  0.87487377  0.24327837  0.41246186  1
  O  O182  1  0.87020480  0.24729352  0.66826843  1
  O  O183  1  0.87466586  0.24280979  0.91460549  1
  O  O184  1  0.87878072  0.49633482  0.15640438  1
  O  O185  1  0.87337707  0.50175593  0.41126990  1
  O  O186  1  0.87032303  0.50446865  0.66786622  1
  O  O187  1  0.87494589  0.50695990  0.91680679  1
  O  O188  1  0.87448641  0.75469740  0.16178812  1
  O  O189  1  0.87255847  0.75465521  0.40992251  1
  O  O190  1  0.86905869  0.73900845  0.66346965  1
  O  O191  1  0.87399215  0.74722916  0.91611694  1
  O  O192  1  0.00068899  0.12249956  0.16558589  1
  O  O193  1  -0.00326938  0.12367838  0.41586398  1
  O  O194  1  -0.01027152  0.12987087  0.66213836  1
  O  O195  1  -0.00422626  0.12619080  0.90931931  1
  O  O196  1  0.00580666  0.36719026  0.16190409  1
  O  O197  1  0.00226668  0.37516427  0.41362084  1
  O  O198  1  0.00237464  0.37430392  0.66388586  1
  O  O199  1  0.00890655  0.37207303  0.91295873  1
  O  O200  1  0.00425522  0.62496012  0.16163255  1
  O  O201  1  0.00394308  0.62673062  0.40762222  1
  O  O202  1  -0.00928741  0.62114526  0.66024818  1
  O  O203  1  -0.00467853  0.62558829  0.91494828  1
  O  O204  1  -0.00012560  0.87961982  0.16499888  1
  O  O205  1  -0.00746259  0.87654372  0.41491439  1
  O  O206  1  -0.00500467  0.87527370  0.66342438  1
  O  O207  1  -0.00087090  0.87524585  0.91369780  1
  O  O208  1  0.24155464  0.12193819  0.16490539  1
  O  O209  1  0.24911916  0.12325055  0.41611171  1
  O  O210  1  0.25747612  0.12922056  0.65889348  1
  O  O211  1  0.25236876  0.12205952  0.91085705  1
  O  O212  1  0.24188082  0.36771911  0.16205806  1
  O  O213  1  0.24985934  0.37342555  0.41840222  1
  O  O214  1  0.24373435  0.37357830  0.65908535  1
  O  O215  1  0.25056485  0.37276117  0.91379689  1
  O  O216  1  0.24962119  0.62747325  0.16609767  1
  O  O217  1  0.25568809  0.62758623  0.41598754  1
  O  O218  1  0.24976634  0.62079758  0.66089717  1
  O  O219  1  0.24891051  0.62444954  0.91150580  1
  O  O220  1  0.25471515  0.87963984  0.16160110  1
  O  O221  1  0.25505077  0.87706858  0.42280787  1
  O  O222  1  0.24971374  0.87754649  0.65604239  1
  O  O223  1  0.24326414  0.87981745  0.90108198  1
  O  O224  1  0.49905954  0.11912553  0.15811887  1
  O  O225  1  0.49637763  0.12403012  0.41108570  1
  O  O226  1  0.50127235  0.13036643  0.66734604  1
  O  O227  1  0.49280389  0.12441677  0.91341033  1
  O  O228  1  0.49898341  0.37177122  0.15661672  1
  O  O229  1  0.50423788  0.37401240  0.41096413  1
  O  O230  1  0.50997099  0.37223209  0.67071057  1
  O  O231  1  0.49225053  0.37096391  0.91483929  1
  O  O232  1  0.49641226  0.63006588  0.16241891  1
  O  O233  1  0.49884546  0.62679113  0.41715320  1
  O  O234  1  0.51244732  0.61896182  0.66566041  1
  O  O235  1  0.50308555  0.62704385  0.91397716  1
  O  O236  1  0.49966477  0.87806694  0.16124340  1
  O  O237  1  0.49992973  0.87664084  0.42070925  1
  O  O238  1  0.50575580  0.87764391  0.66611769  1
  O  O239  1  0.50723643  0.87355603  0.90677034  1
  O  O240  1  0.75711877  0.12193731  0.15749184  1
  O  O241  1  0.75596847  0.12398068  0.41380973  1
  O  O242  1  0.75075672  0.12983936  0.66952231  1
  O  O243  1  0.75855871  0.12340500  0.91762835  1
  O  O244  1  0.75128418  0.37059077  0.15086126  1
  O  O245  1  0.74315984  0.37518639  0.40942120  1
  O  O246  1  0.74347550  0.37450452  0.67228252  1
  O  O247  1  0.74725885  0.37609453  0.91717661  1
  O  O248  1  0.74700539  0.62750765  0.16072311  1
  O  O249  1  0.74317122  0.62620249  0.40903469  1
  O  O250  1  0.74777938  0.61903966  0.66974053  1
  O  O251  1  0.75268289  0.62532563  0.91932591  1
  O  O252  1  0.74308043  0.87707339  0.15750416  1
  O  O253  1  0.75256239  0.87628080  0.41579249  1
  O  O254  1  0.75030100  0.87472122  0.67246976  1
  O  O255  1  0.75112473  0.87427259  0.91590537  1
  O  O256  1  0.12582829  0.12348961  0.04900198  1
  O  O257  1  0.12765360  0.12189129  0.30497636  1
  O  O258  1  0.11846454  0.13147744  0.53903619  1
  O  O259  1  0.12841614  0.12793351  0.77915015  1
  O  O260  1  0.12283776  0.36970880  0.04768647  1
  O  O261  1  0.12723579  0.36981166  0.28403213  1
  O  O262  1  0.12267904  0.37336579  0.54577118  1
  O  O263  1  0.12725449  0.37634797  0.79710498  1
  O  O264  1  0.12739050  0.62144811  0.02901379  1
  O  O265  1  0.12989471  0.62792501  0.29977325  1
  O  O266  1  0.12559030  0.62845652  0.53398325  1
  O  O267  1  0.11732664  0.61863645  0.78734910  1
  O  O268  1  0.11929478  0.87903289  0.03285638  1
  O  O269  1  0.12823420  0.88479378  0.29801578  1
  O  O270  1  0.11816090  0.87289166  0.52719879  1
  O  O271  1  0.11802438  0.87617486  0.79326816  1
  O  O272  1  0.36798194  0.11529633  0.03369756  1
  O  O273  1  0.37612993  0.11869045  0.29944910  1
  O  O274  1  0.38171791  0.13298426  0.54835759  1
  O  O275  1  0.37431792  0.12575529  0.79841095  1
  O  O276  1  0.37163952  0.36397965  0.02975092  1
  O  O277  1  0.36504657  0.37530344  0.28678746  1
  O  O278  1  0.38668909  0.37188354  0.53729525  1
  O  O279  1  0.37447152  0.37207679  0.80244279  1
  O  O280  1  0.36870303  0.63375526  0.03090137  1
  O  O281  1  0.37708720  0.63205985  0.30320370  1
  O  O282  1  0.37963297  0.61578825  0.53701174  1
  O  O283  1  0.37812263  0.62114553  0.78444353  1
  O  O284  1  0.37336258  0.87982659  0.04591184  1
  O  O285  1  0.37596127  0.87621499  0.30681774  1
  O  O286  1  0.38550119  0.88167574  0.53708812  1
  O  O287  1  0.38117003  0.87702000  0.77739961  1
  O  O288  1  0.62429415  0.11357063  0.02499958  1
  O  O289  1  0.62921250  0.11768301  0.28543692  1
  O  O290  1  0.62665073  0.13106123  0.54961155  1
  O  O291  1  0.62760230  0.12992682  0.79725161  1
  O  O292  1  0.61446801  0.37758629  0.02246090  1
  O  O293  1  0.62360673  0.37384670  0.29338639  1
  O  O294  1  0.62558039  0.37586867  0.55360352  1
  O  O295  1  0.62398342  0.37615355  0.81122996  1
  O  O296  1  0.62455962  0.62706613  0.03003857  1
  O  O297  1  0.61783088  0.62868283  0.29521080  1
  O  O298  1  0.62871226  0.62055722  0.55082109  1
  O  O299  1  0.63000919  0.62483527  0.80432534  1
  O  O300  1  0.62237839  0.87600821  0.04443833  1
  O  O301  1  0.62431371  0.87377544  0.30149425  1
  O  O302  1  0.63094253  0.87523406  0.53618155  1
  O  O303  1  0.62906850  0.87167707  0.79706611  1
  O  O304  1  0.88234680  0.12234103  0.04653222  1
  O  O305  1  0.87484004  0.12007996  0.29924563  1
  O  O306  1  0.86915921  0.13137094  0.54876984  1
  O  O307  1  0.87237017  0.12585303  0.79720787  1
  O  O308  1  0.88103872  0.36409297  0.02699680  1
  O  O309  1  0.88015555  0.37073928  0.28257544  1
  O  O310  1  0.86556087  0.37645530  0.53872348  1
  O  O311  1  0.87468231  0.37563288  0.79579846  1
  O  O312  1  0.87227980  0.62383703  0.03499254  1
  O  O313  1  0.87310457  0.62467966  0.27960999  1
  O  O314  1  0.86948019  0.62092688  0.54774038  1
  O  O315  1  0.87474853  0.62558494  0.80356920  1
  O  O316  1  0.88148824  0.87751055  0.03123732  1
  O  O317  1  0.87397903  0.87925608  0.30199239  1
  O  O318  1  0.86402173  0.87369390  0.53549622  1
  O  O319  1  0.87419228  0.87293817  0.80097261  1
