# generated using pymatgen
data_VFe(PbO3)2
_symmetry_space_group_name_H-M   'P 1'
_cell_length_a   15.37341570
_cell_length_b   15.37550118
_cell_length_c   18.54285151
_cell_angle_alpha   89.97995567
_cell_angle_beta   90.05356302
_cell_angle_gamma   90.00155673
_symmetry_Int_Tables_number   1
_chemical_formula_structural   VFe(PbO3)2
_chemical_formula_sum   'V32 Fe32 Pb64 O192'
_cell_volume   4383.04526254
_cell_formula_units_Z   32
loop_
 _symmetry_equiv_pos_site_id
 _symmetry_equiv_pos_as_xyz
  1  'x, y, z'
loop_
 _atom_site_type_symbol
 _atom_site_label
 _atom_site_symmetry_multiplicity
 _atom_site_fract_x
 _atom_site_fract_y
 _atom_site_fract_z
 _atom_site_occupancy
  V  V0  1  0.12386479  0.12783907  0.14135619  1
  V  V1  1  0.37656952  0.12610468  0.88568441  1
  V  V2  1  0.37367335  0.87411509  0.63895583  1
  V  V3  1  0.37739188  0.37747349  0.39023608  1
  V  V4  1  0.62474746  0.37737248  0.39105547  1
  V  V5  1  0.12554230  0.12649136  0.89001369  1
  V  V6  1  0.12612063  0.87264827  0.39336881  1
  V  V7  1  0.12549341  0.62629565  0.13582623  1
  V  V8  1  0.62588941  0.87290936  0.38987532  1
  V  V9  1  0.87453090  0.12665291  0.63750188  1
  V  V10  1  0.62473574  0.87758479  0.88741868  1
  V  V11  1  0.12407075  0.62397959  0.38946235  1
  V  V12  1  0.63178838  0.37492287  0.63861789  1
  V  V13  1  0.62447675  0.12234997  0.13828635  1
  V  V14  1  0.87544916  0.37281541  0.88905814  1
  V  V15  1  0.87425516  0.87281710  0.64645475  1
  V  V16  1  0.37263554  0.62360489  0.88354647  1
  V  V17  1  0.12761921  0.62761704  0.64434987  1
  V  V18  1  0.62377079  0.37447307  0.13780898  1
  V  V19  1  0.62598898  0.62516236  0.39114838  1
  V  V20  1  0.87550671  0.12368092  0.38961611  1
  V  V21  1  0.37495229  0.62493183  0.13466235  1
  V  V22  1  0.87661816  0.12607861  0.89140823  1
  V  V23  1  0.12558844  0.87590978  0.13813599  1
  V  V24  1  0.37963765  0.37565256  0.64154057  1
  V  V25  1  0.12507455  0.37464321  0.63587894  1
  V  V26  1  0.12431834  0.37189298  0.89282817  1
  V  V27  1  0.37472485  0.62641054  0.39771307  1
  V  V28  1  0.62465042  0.87591831  0.64125178  1
  V  V29  1  0.12706151  0.37734917  0.39018433  1
  V  V30  1  0.87326209  0.87448629  0.38972451  1
  V  V31  1  0.62398490  0.62391370  0.13403767  1
  Fe  Fe32  1  0.12632294  0.87756888  0.87963371  1
  Fe  Fe33  1  0.62705444  0.12487677  0.38464505  1
  Fe  Fe34  1  0.37613799  0.12375250  0.38910490  1
  Fe  Fe35  1  0.87437613  0.37634342  0.39526812  1
  Fe  Fe36  1  0.37163544  0.37313497  0.88204239  1
  Fe  Fe37  1  0.37547216  0.87606360  0.13691734  1
  Fe  Fe38  1  0.12236141  0.87551493  0.63963691  1
  Fe  Fe39  1  0.87648157  0.87762869  0.88190794  1
  Fe  Fe40  1  0.87521943  0.37450230  0.13618119  1
  Fe  Fe41  1  0.37349327  0.62424112  0.63681793  1
  Fe  Fe42  1  0.87514444  0.12506273  0.13463362  1
  Fe  Fe43  1  0.62444162  0.37089119  0.88254739  1
  Fe  Fe44  1  0.87624337  0.62851245  0.38853096  1
  Fe  Fe45  1  0.62387617  0.87255217  0.13095455  1
  Fe  Fe46  1  0.12574680  0.37751033  0.13554585  1
  Fe  Fe47  1  0.37518017  0.12576455  0.63145943  1
  Fe  Fe48  1  0.62288683  0.62630426  0.64683550  1
  Fe  Fe49  1  0.37362930  0.87692553  0.88233724  1
  Fe  Fe50  1  0.62685474  0.12698366  0.88211692  1
  Fe  Fe51  1  0.87510055  0.62237698  0.64215819  1
  Fe  Fe52  1  0.37850841  0.87130697  0.38708660  1
  Fe  Fe53  1  0.87386978  0.87708745  0.13207205  1
  Fe  Fe54  1  0.12585182  0.62304589  0.88180978  1
  Fe  Fe55  1  0.87697384  0.62309169  0.88304136  1
  Fe  Fe56  1  0.62517264  0.12358657  0.64063792  1
  Fe  Fe57  1  0.37395440  0.37446627  0.13664426  1
  Fe  Fe58  1  0.87808998  0.37378227  0.62874489  1
  Fe  Fe59  1  0.87433198  0.62488017  0.13037490  1
  Fe  Fe60  1  0.62268430  0.62314412  0.87947625  1
  Fe  Fe61  1  0.12576853  0.12491032  0.62950278  1
  Fe  Fe62  1  0.12322230  0.12495959  0.38962728  1
  Fe  Fe63  1  0.37447553  0.12585993  0.13826820  1
  Pb  Pb64  1  -0.00669722  -0.00367217  -0.00127279  1
  Pb  Pb65  1  0.00544720  0.00394742  0.25087465  1
  Pb  Pb66  1  0.00928920  -0.00433515  0.50566726  1
  Pb  Pb67  1  0.00143997  -0.00611959  0.74999591  1
  Pb  Pb68  1  -0.00447963  0.25196079  0.00824575  1
  Pb  Pb69  1  -0.00665982  0.25805027  0.25075461  1
  Pb  Pb70  1  0.00100582  0.25050586  0.49871324  1
  Pb  Pb71  1  0.00048067  0.24877670  0.74549598  1
  Pb  Pb72  1  -0.00058105  0.49513197  0.00072109  1
  Pb  Pb73  1  -0.01272637  0.49682501  0.25242086  1
  Pb  Pb74  1  -0.00881330  0.50357708  0.50280416  1
  Pb  Pb75  1  0.00020385  0.50489192  0.75062909  1
  Pb  Pb76  1  -0.00280053  0.74854481  -0.01267496  1
  Pb  Pb77  1  -0.00579799  0.74498937  0.24460847  1
  Pb  Pb78  1  0.00290784  0.75477375  0.50491453  1
  Pb  Pb79  1  0.00062804  0.74056747  0.75743385  1
  Pb  Pb80  1  0.25958564  0.00133245  0.00050881  1
  Pb  Pb81  1  0.25442881  0.00740706  0.25590562  1
  Pb  Pb82  1  0.25155856  0.00485542  0.49836703  1
  Pb  Pb83  1  0.24540186  -0.00216964  0.74450653  1
  Pb  Pb84  1  0.25846841  0.24828401  0.00615153  1
  Pb  Pb85  1  0.25285077  0.24426709  0.25121139  1
  Pb  Pb86  1  0.25266510  0.24072975  0.49908683  1
  Pb  Pb87  1  0.25474415  0.25087242  0.74606592  1
  Pb  Pb88  1  0.24986558  0.48707933  0.00166544  1
  Pb  Pb89  1  0.24965386  0.49914259  0.24634946  1
  Pb  Pb90  1  0.25482763  0.50247831  0.50364890  1
  Pb  Pb91  1  0.25018401  0.49632403  0.75223088  1
  Pb  Pb92  1  0.25012761  0.75581784  -0.00975460  1
  Pb  Pb93  1  0.25524596  0.75467908  0.24928964  1
  Pb  Pb94  1  0.25093987  0.74963989  0.50457059  1
  Pb  Pb95  1  0.24850536  0.76053542  0.75403678  1
  Pb  Pb96  1  0.49878251  -0.00802229  0.00240485  1
  Pb  Pb97  1  0.49143732  -0.00025981  0.25034559  1
  Pb  Pb98  1  0.49835292  0.00644241  0.49741596  1
  Pb  Pb99  1  0.49541466  0.00186180  0.74751909  1
  Pb  Pb100  1  0.49785100  0.25054846  -0.00502212  1
  Pb  Pb101  1  0.49767688  0.24066404  0.25332137  1
  Pb  Pb102  1  0.50001369  0.24141529  0.50079299  1
  Pb  Pb103  1  0.50752619  0.24963877  0.75167761  1
  Pb  Pb104  1  0.49830436  0.49406003  -0.01064649  1
  Pb  Pb105  1  0.50221525  0.50108587  0.24641258  1
  Pb  Pb106  1  0.50626353  0.50733486  0.50744682  1
  Pb  Pb107  1  0.50542558  0.49881985  0.75262195  1
  Pb  Pb108  1  0.50032660  0.75780004  -0.00430369  1
  Pb  Pb109  1  0.49667910  0.75755427  0.24861993  1
  Pb  Pb110  1  0.50550440  0.74104495  0.50757664  1
  Pb  Pb111  1  0.49753670  0.74765425  0.75128562  1
  Pb  Pb112  1  0.74980936  -0.00861308  0.00073657  1
  Pb  Pb113  1  0.75014084  -0.00190515  0.24396238  1
  Pb  Pb114  1  0.74526140  0.00247071  0.50149014  1
  Pb  Pb115  1  0.75558935  -0.00278929  0.75361608  1
  Pb  Pb116  1  0.75706280  0.24864019  0.00141115  1
  Pb  Pb117  1  0.74712348  0.24947042  0.24968903  1
  Pb  Pb118  1  0.74394050  0.24512173  0.50130115  1
  Pb  Pb119  1  0.74097166  0.24998595  0.75299500  1
  Pb  Pb120  1  0.75268543  0.50609166  -0.00623983  1
  Pb  Pb121  1  0.76099827  0.50086857  0.25226039  1
  Pb  Pb122  1  0.75955635  0.50557731  0.50530236  1
  Pb  Pb123  1  0.75416026  0.50517626  0.74927727  1
  Pb  Pb124  1  0.75868982  0.74713796  -0.00789353  1
  Pb  Pb125  1  0.75479955  0.74643716  0.24274410  1
  Pb  Pb126  1  0.75190897  0.73888605  0.50690398  1
  Pb  Pb127  1  0.75374919  0.74287880  0.75530447  1
  O  O128  1  0.12510672  -0.00521467  0.16362949  1
  O  O129  1  0.12165774  -0.00861702  0.41422756  1
  O  O130  1  0.12286104  0.00126821  0.66149023  1
  O  O131  1  0.12384483  0.01143969  0.91129927  1
  O  O132  1  0.12575255  0.24395608  0.15963237  1
  O  O133  1  0.12599655  0.25827023  0.41152103  1
  O  O134  1  0.12448997  0.25519750  0.65930694  1
  O  O135  1  0.12270476  0.24812845  0.91914225  1
  O  O136  1  0.12803605  0.51142903  0.16150999  1
  O  O137  1  0.12811789  0.49970360  0.41638609  1
  O  O138  1  0.12574730  0.49627349  0.66270026  1
  O  O139  1  0.12394100  0.49024162  0.91102628  1
  O  O140  1  0.12757425  0.74935061  0.16383522  1
  O  O141  1  0.12371735  0.75049195  0.41910435  1
  O  O142  1  0.12508614  0.74500085  0.66347807  1
  O  O143  1  0.12767876  0.75033153  0.90816000  1
  O  O144  1  0.37507090  0.00069259  0.16712432  1
  O  O145  1  0.37667331  -0.00496045  0.41460951  1
  O  O146  1  0.37697950  -0.00689776  0.66013616  1
  O  O147  1  0.37137627  0.00927296  0.91024421  1
  O  O148  1  0.37326649  0.25051805  0.16837681  1
  O  O149  1  0.37644029  0.25803106  0.41386749  1
  O  O150  1  0.37159500  0.25738479  0.66091552  1
  O  O151  1  0.36786195  0.24323577  0.91245644  1
  O  O152  1  0.37531032  0.50486445  0.16622734  1
  O  O153  1  0.37593795  0.49973548  0.42264062  1
  O  O154  1  0.36974256  0.49325250  0.66544665  1
  O  O155  1  0.37334138  0.50358699  0.90769629  1
  O  O156  1  0.37577162  0.74520173  0.16489974  1
  O  O157  1  0.37497441  0.74735416  0.42120970  1
  O  O158  1  0.37594033  0.75578690  0.66342437  1
  O  O159  1  0.37419217  0.74493707  0.90715155  1
  O  O160  1  0.62452050  0.00682694  0.15759930  1
  O  O161  1  0.62797027  -0.00738606  0.41105707  1
  O  O162  1  0.62633071  -0.00692990  0.66631217  1
  O  O163  1  0.62357896  -0.00082183  0.91042592  1
  O  O164  1  0.62451892  0.25535747  0.16129456  1
  O  O165  1  0.62543324  0.25745137  0.41353230  1
  O  O166  1  0.62278853  0.25642484  0.66236491  1
  O  O167  1  0.62608255  0.24776581  0.91847850  1
  O  O168  1  0.62217710  0.50070058  0.16296364  1
  O  O169  1  0.62263957  0.49976948  0.41717615  1
  O  O170  1  0.62284942  0.49088020  0.66411878  1
  O  O171  1  0.62285126  0.49715468  0.91027298  1
  O  O172  1  0.62336976  0.74017064  0.15652612  1
  O  O173  1  0.62672401  0.75081524  0.41780666  1
  O  O174  1  0.62579652  0.76030249  0.66817892  1
  O  O175  1  0.62248847  0.75698421  0.90788028  1
  O  O176  1  0.87457298  0.00080159  0.16634750  1
  O  O177  1  0.87335570  0.00014681  0.41655016  1
  O  O178  1  0.87328417  0.00294526  0.66532357  1
  O  O179  1  0.87659593  0.00835197  0.91050973  1
  O  O180  1  0.87504341  0.24906284  0.16848475  1
  O  O181  1  0.87448871  0.24276224  0.41236505  1
  O  O182  1  0.87750108  0.24564542  0.65883457  1
  O  O183  1  0.88032460  0.24997704  0.91739246  1
  O  O184  1  0.87435590  0.50152188  0.16517002  1
  O  O185  1  0.87497105  0.50312821  0.41859316  1
  O  O186  1  0.87614596  0.49488015  0.66367734  1
  O  O187  1  0.87883296  0.48983602  0.90710022  1
  O  O188  1  0.87443459  0.74969979  0.16204114  1
  O  O189  1  0.87412099  0.75573639  0.41827928  1
  O  O190  1  0.87330363  0.75559495  0.66511831  1
  O  O191  1  0.87379683  0.75174497  0.90494403  1
  O  O192  1  0.00672977  0.12129823  0.16548706  1
  O  O193  1  -0.00764958  0.12279563  0.41398098  1
  O  O194  1  -0.00678922  0.12403625  0.66202999  1
  O  O195  1  0.00079389  0.12846907  0.91638947  1
  O  O196  1  0.00268392  0.37649229  0.16839341  1
  O  O197  1  0.00944296  0.37777435  0.41461258  1
  O  O198  1  0.00735693  0.37392367  0.66003305  1
  O  O199  1  0.00085381  0.37042134  0.91645363  1
  O  O200  1  0.00756760  0.62924725  0.15629902  1
  O  O201  1  0.00559339  0.62647865  0.41569865  1
  O  O202  1  0.00652033  0.62358815  0.66484509  1
  O  O203  1  0.00169212  0.62164368  0.91228548  1
  O  O204  1  0.00818417  0.87230537  0.16269435  1
  O  O205  1  -0.00035470  0.87287038  0.41771602  1
  O  O206  1  -0.00778459  0.87642249  0.66462711  1
  O  O207  1  0.00203126  0.88056613  0.90876120  1
  O  O208  1  0.24204377  0.12088931  0.16772184  1
  O  O209  1  0.24922063  0.12473046  0.41391539  1
  O  O210  1  0.25066795  0.12588145  0.65850758  1
  O  O211  1  0.24523558  0.12760072  0.91131710  1
  O  O212  1  0.24853195  0.37781833  0.16969555  1
  O  O213  1  0.24923768  0.37887746  0.41512154  1
  O  O214  1  0.24439017  0.37517492  0.66308923  1
  O  O215  1  0.24334449  0.37106932  0.91303559  1
  O  O216  1  0.24945870  0.62800424  0.16358066  1
  O  O217  1  0.24767678  0.62599211  0.42067299  1
  O  O218  1  0.24565126  0.62279004  0.66601260  1
  O  O219  1  0.25590935  0.62300731  0.90947187  1
  O  O220  1  0.24341700  0.87261116  0.16546317  1
  O  O221  1  0.24356789  0.87138862  0.41341994  1
  O  O222  1  0.25502143  0.87365316  0.65849907  1
  O  O223  1  0.24995007  0.87999083  0.91305652  1
  O  O224  1  0.50695335  0.12958933  0.16309719  1
  O  O225  1  0.50343454  0.12600454  0.41461798  1
  O  O226  1  0.49889540  0.12489260  0.66350151  1
  O  O227  1  0.49244354  0.12871323  0.90395064  1
  O  O228  1  0.50603270  0.37749062  0.16467902  1
  O  O229  1  0.50357333  0.37826212  0.41819608  1
  O  O230  1  0.49715847  0.37570789  0.65943812  1
  O  O231  1  0.49633466  0.36994606  0.91017565  1
  O  O232  1  0.50232940  0.62236533  0.16122018  1
  O  O233  1  0.50204115  0.62572068  0.42117649  1
  O  O234  1  0.49595835  0.62359461  0.66850823  1
  O  O235  1  0.49240036  0.62487290  0.90885758  1
  O  O236  1  0.50253539  0.87334243  0.16675817  1
  O  O237  1  0.50996041  0.87114519  0.41455985  1
  O  O238  1  0.50230544  0.87533010  0.66236731  1
  O  O239  1  0.50159781  0.87870045  0.91128384  1
  O  O240  1  0.74286691  0.13004986  0.16284664  1
  O  O241  1  0.75503688  0.12332066  0.41629644  1
  O  O242  1  0.75750285  0.12582147  0.66497444  1
  O  O243  1  0.75882476  0.12932023  0.90932440  1
  O  O244  1  0.74104932  0.37769333  0.16418560  1
  O  O245  1  0.74129522  0.37784933  0.41384025  1
  O  O246  1  0.74753774  0.37190747  0.65577643  1
  O  O247  1  0.75921106  0.36945589  0.90818942  1
  O  O248  1  0.74132822  0.62151168  0.15962229  1
  O  O249  1  0.74619961  0.62622779  0.41696327  1
  O  O250  1  0.74915962  0.62503662  0.66847431  1
  O  O251  1  0.74896227  0.62227194  0.90746797  1
  O  O252  1  0.74677180  0.87438692  0.16377090  1
  O  O253  1  0.74696614  0.87326100  0.41681600  1
  O  O254  1  0.74932344  0.87737111  0.66762289  1
  O  O255  1  0.74431006  0.88007084  0.90886503  1
  O  O256  1  0.12531124  0.12141883  0.05063546  1
  O  O257  1  0.12256246  0.11798006  0.28994806  1
  O  O258  1  0.12102568  0.12468135  0.52872268  1
  O  O259  1  0.12156539  0.13129328  0.79914286  1
  O  O260  1  0.12552630  0.38331757  0.03595574  1
  O  O261  1  0.12833601  0.38058631  0.29939627  1
  O  O262  1  0.12634272  0.37578720  0.54518017  1
  O  O263  1  0.12089474  0.36701256  0.80186683  1
  O  O264  1  0.12968614  0.62675223  0.04529914  1
  O  O265  1  0.12592805  0.62636906  0.29897665  1
  O  O266  1  0.12720017  0.62550524  0.55312326  1
  O  O267  1  0.11941480  0.62094050  0.78196340  1
  O  O268  1  0.12724243  0.87502234  0.04759907  1
  O  O269  1  0.12244368  0.86933188  0.30277941  1
  O  O270  1  0.11557067  0.87199773  0.53901161  1
  O  O271  1  0.13192316  0.87872222  0.77800714  1
  O  O272  1  0.36740616  0.12660979  0.03813942  1
  O  O273  1  0.37489512  0.12534262  0.28730675  1
  O  O274  1  0.37711195  0.12771277  0.53045147  1
  O  O275  1  0.37052150  0.12683382  0.79446408  1
  O  O276  1  0.36653331  0.37380709  0.03645493  1
  O  O277  1  0.37885441  0.38251483  0.29941819  1
  O  O278  1  0.37409204  0.37761142  0.55066167  1
  O  O279  1  0.36466812  0.37233871  0.78256116  1
  O  O280  1  0.37438500  0.62461751  0.04414897  1
  O  O281  1  0.37563064  0.62431778  0.30689594  1
  O  O282  1  0.37393267  0.62369010  0.53694565  1
  O  O283  1  0.37257727  0.62308888  0.79225699  1
  O  O284  1  0.38028226  0.87909787  0.03625022  1
  O  O285  1  0.37929588  0.86560661  0.28703077  1
  O  O286  1  0.37665380  0.87249394  0.54797734  1
  O  O287  1  0.37197583  0.87655073  0.78275015  1
  O  O288  1  0.62434157  0.12630512  0.04740128  1
  O  O289  1  0.62647188  0.13173788  0.28573915  1
  O  O290  1  0.63302510  0.12605825  0.53976459  1
  O  O291  1  0.62744963  0.13661532  0.78168102  1
  O  O292  1  0.62380062  0.37586510  0.04716170  1
  O  O293  1  0.62147050  0.37966770  0.30028842  1
  O  O294  1  0.62569285  0.37540716  0.54759815  1
  O  O295  1  0.62551496  0.36542634  0.78207689  1
  O  O296  1  0.62336604  0.62043812  0.04331536  1
  O  O297  1  0.62342551  0.62508847  0.30043627  1
  O  O298  1  0.62043975  0.62935435  0.54498028  1
  O  O299  1  0.62116611  0.62262970  0.77882151  1
  O  O300  1  0.61829082  0.87984792  0.03115603  1
  O  O301  1  0.62620984  0.86910922  0.29909798  1
  O  O302  1  0.62739480  0.87579424  0.55056492  1
  O  O303  1  0.62288699  0.87861898  0.79644381  1
  O  O304  1  0.87714575  0.12972740  0.03509772  1
  O  O305  1  0.87344094  0.12125643  0.29875586  1
  O  O306  1  0.87290775  0.12333748  0.54650998  1
  O  O307  1  0.88189130  0.13133551  0.80048749  1
  O  O308  1  0.87886218  0.37064908  0.03617757  1
  O  O309  1  0.87887404  0.38182710  0.29407099  1
  O  O310  1  0.88022961  0.37620613  0.52811873  1
  O  O311  1  0.88172696  0.36596138  0.79830078  1
  O  O312  1  0.86752836  0.62342824  0.03066955  1
  O  O313  1  0.87346982  0.62534692  0.28833281  1
  O  O314  1  0.86959973  0.62329839  0.54062582  1
  O  O315  1  0.88041499  0.62322285  0.78044520  1
  O  O316  1  0.87090061  0.88306153  0.03174706  1
  O  O317  1  0.87403202  0.87411605  0.29897645  1
  O  O318  1  0.87131711  0.87651917  0.55544868  1
  O  O319  1  0.87217578  0.88469586  0.78140829  1
