# generated using pymatgen
data_VFe(PbO3)2
_symmetry_space_group_name_H-M   'P 1'
_cell_length_a   15.37743468
_cell_length_b   15.36834792
_cell_length_c   18.57472280
_cell_angle_alpha   89.99552867
_cell_angle_beta   89.96799367
_cell_angle_gamma   89.98428280
_symmetry_Int_Tables_number   1
_chemical_formula_structural   VFe(PbO3)2
_chemical_formula_sum   'V32 Fe32 Pb64 O192'
_cell_volume   4389.68473634
_cell_formula_units_Z   32
loop_
 _symmetry_equiv_pos_site_id
 _symmetry_equiv_pos_as_xyz
  1  'x, y, z'
loop_
 _atom_site_type_symbol
 _atom_site_label
 _atom_site_symmetry_multiplicity
 _atom_site_fract_x
 _atom_site_fract_y
 _atom_site_fract_z
 _atom_site_occupancy
  V  V0  1  0.62799967  0.37243605  0.39191297  1
  V  V1  1  0.37547001  0.12196159  0.14007333  1
  V  V2  1  0.11964575  0.87530806  0.38986447  1
  V  V3  1  0.12452809  0.87451821  0.64061317  1
  V  V4  1  0.37434769  0.12585174  0.63842913  1
  V  V5  1  0.37409404  0.62389917  0.63686347  1
  V  V6  1  0.62567374  0.12602068  0.64107914  1
  V  V7  1  0.37740247  0.12557545  0.88613555  1
  V  V8  1  0.62670794  0.87495091  0.13970238  1
  V  V9  1  0.87577838  0.87553710  0.64205510  1
  V  V10  1  0.12599571  0.12487194  0.38895241  1
  V  V11  1  0.37250417  0.37498144  0.63829803  1
  V  V12  1  0.87095157  0.37593008  0.63710974  1
  V  V13  1  0.87555402  0.37496166  0.13964667  1
  V  V14  1  0.87392144  0.62469612  0.39300399  1
  V  V15  1  0.62646066  0.12489474  0.13614428  1
  V  V16  1  0.62087104  0.62518108  0.39213698  1
  V  V17  1  0.12269715  0.37534753  0.64227949  1
  V  V18  1  0.87223709  0.62738548  0.13980861  1
  V  V19  1  0.37679675  0.62413021  0.89040175  1
  V  V20  1  0.12778078  0.62551099  0.64318648  1
  V  V21  1  0.12247054  0.37738323  0.38640017  1
  V  V22  1  0.62407710  0.62614895  0.88520763  1
  V  V23  1  0.87378461  0.12239321  0.13796764  1
  V  V24  1  0.12658224  0.37081941  0.13721513  1
  V  V25  1  0.62783856  0.62460885  0.14089159  1
  V  V26  1  0.62287742  0.12168326  0.39064754  1
  V  V27  1  0.37386262  0.87757542  0.39097466  1
  V  V28  1  0.87988751  0.37701520  0.88513670  1
  V  V29  1  0.62342793  0.37612809  0.89076848  1
  V  V30  1  0.12840777  0.87210179  0.88501859  1
  V  V31  1  0.12363050  0.87824193  0.13773958  1
  Fe  Fe32  1  0.12906560  0.12549843  0.64367366  1
  Fe  Fe33  1  0.87262027  0.62169648  0.87866343  1
  Fe  Fe34  1  0.62315844  0.12621300  0.88111966  1
  Fe  Fe35  1  0.87242458  0.12737429  0.87575338  1
  Fe  Fe36  1  0.37365667  0.37344249  0.38320196  1
  Fe  Fe37  1  0.37634010  0.12584799  0.38691186  1
  Fe  Fe38  1  0.12826012  0.37697174  0.88490522  1
  Fe  Fe39  1  0.37616937  0.62810263  0.14130722  1
  Fe  Fe40  1  0.62682929  0.87475754  0.39362604  1
  Fe  Fe41  1  0.62378323  0.87262030  0.63688176  1
  Fe  Fe42  1  0.62284029  0.87404894  0.87709831  1
  Fe  Fe43  1  0.87585509  0.37481679  0.38782395  1
  Fe  Fe44  1  0.37438802  0.87442996  0.88349150  1
  Fe  Fe45  1  0.12621736  0.62598860  0.88498909  1
  Fe  Fe46  1  0.12118032  0.62469188  0.14044681  1
  Fe  Fe47  1  0.62362806  0.62189650  0.63246368  1
  Fe  Fe48  1  0.87498884  0.87375953  0.13446898  1
  Fe  Fe49  1  0.37241405  0.87433456  0.63971239  1
  Fe  Fe50  1  0.12713918  0.12433048  0.88052309  1
  Fe  Fe51  1  0.37482503  0.87508600  0.13444359  1
  Fe  Fe52  1  0.87844386  0.62290649  0.64332921  1
  Fe  Fe53  1  0.87407277  0.12631743  0.39035804  1
  Fe  Fe54  1  0.87640544  0.12678471  0.64543903  1
  Fe  Fe55  1  0.12225361  0.12512340  0.13414341  1
  Fe  Fe56  1  0.37781866  0.37355034  0.13428765  1
  Fe  Fe57  1  0.37448225  0.37606907  0.89159336  1
  Fe  Fe58  1  0.12282081  0.62725876  0.37997044  1
  Fe  Fe59  1  0.62172727  0.37542392  0.63257789  1
  Fe  Fe60  1  0.87442819  0.87693871  0.38929727  1
  Fe  Fe61  1  0.37361714  0.62447458  0.38035460  1
  Fe  Fe62  1  0.62791604  0.37212232  0.13519615  1
  Fe  Fe63  1  0.87409410  0.87287943  0.87880888  1
  Pb  Pb64  1  -0.00305334  0.00161901  -0.01130601  1
  Pb  Pb65  1  -0.00961135  -0.00145090  0.25035873  1
  Pb  Pb66  1  -0.00235399  0.01272736  0.50692715  1
  Pb  Pb67  1  0.00087283  0.00690123  0.75212255  1
  Pb  Pb68  1  0.00832548  0.24109619  -0.00747974  1
  Pb  Pb69  1  -0.00882831  0.24714372  0.25257340  1
  Pb  Pb70  1  -0.00172888  0.24323346  0.50393724  1
  Pb  Pb71  1  0.00444051  0.24381246  0.75152480  1
  Pb  Pb72  1  0.00984482  0.51143750  -0.00178821  1
  Pb  Pb73  1  0.00200391  0.49719791  0.25031121  1
  Pb  Pb74  1  -0.00621384  0.50580514  0.50271063  1
  Pb  Pb75  1  0.00916114  0.50430569  0.75486096  1
  Pb  Pb76  1  -0.00340502  0.74987719  -0.00720995  1
  Pb  Pb77  1  0.00223875  0.74922694  0.24980578  1
  Pb  Pb78  1  -0.00879490  0.74342729  0.50532582  1
  Pb  Pb79  1  -0.00509644  0.74703770  0.75444366  1
  Pb  Pb80  1  0.24600497  0.00212734  -0.00331451  1
  Pb  Pb81  1  0.25216651  0.00460015  0.24871356  1
  Pb  Pb82  1  0.24483971  0.00337341  0.50312976  1
  Pb  Pb83  1  0.25264158  0.00093375  0.75115239  1
  Pb  Pb84  1  0.24916218  0.25189045  -0.00369692  1
  Pb  Pb85  1  0.26032677  0.24977089  0.25162086  1
  Pb  Pb86  1  0.24489172  0.24636885  0.49847644  1
  Pb  Pb87  1  0.25175084  0.26315088  0.75680144  1
  Pb  Pb88  1  0.24843244  0.50564208  0.00233004  1
  Pb  Pb89  1  0.25656033  0.50459273  0.24540732  1
  Pb  Pb90  1  0.25198050  0.50354659  0.49026618  1
  Pb  Pb91  1  0.24795504  0.49607054  0.75681756  1
  Pb  Pb92  1  0.25949590  0.74605436  0.00587345  1
  Pb  Pb93  1  0.24953877  0.74409076  0.24724618  1
  Pb  Pb94  1  0.25356243  0.75241320  0.49568344  1
  Pb  Pb95  1  0.25007222  0.74866965  0.75232233  1
  Pb  Pb96  1  0.50113683  -0.00708144  -0.00881454  1
  Pb  Pb97  1  0.50617636  -0.00159652  0.24958529  1
  Pb  Pb98  1  0.49807021  -0.01205205  0.50790312  1
  Pb  Pb99  1  0.50169733  -0.00793665  0.75020167  1
  Pb  Pb100  1  0.49895429  0.25823373  0.00289738  1
  Pb  Pb101  1  0.49502956  0.25158710  0.24930873  1
  Pb  Pb102  1  0.50019503  0.25553837  0.49828510  1
  Pb  Pb103  1  0.50038295  0.24681004  0.75010551  1
  Pb  Pb104  1  0.49599494  0.49727084  0.00633702  1
  Pb  Pb105  1  0.49282075  0.49493813  0.24753362  1
  Pb  Pb106  1  0.50498767  0.49972221  0.49887779  1
  Pb  Pb107  1  0.49573693  0.49534274  0.74738035  1
  Pb  Pb108  1  0.49210331  0.75070031  0.00187011  1
  Pb  Pb109  1  0.49755029  0.75078167  0.25068494  1
  Pb  Pb110  1  0.49786017  0.75920117  0.50614414  1
  Pb  Pb111  1  0.50239729  0.75718432  0.74605825  1
  Pb  Pb112  1  0.75228269  -0.00185690  -0.01431516  1
  Pb  Pb113  1  0.75154709  -0.00919702  0.25584872  1
  Pb  Pb114  1  0.75485713  -0.00080359  0.50210575  1
  Pb  Pb115  1  0.74862834  -0.01081599  0.75281680  1
  Pb  Pb116  1  0.74797628  0.25098277  -0.00523115  1
  Pb  Pb117  1  0.75882893  0.24510776  0.25220565  1
  Pb  Pb118  1  0.75590186  0.24750022  0.50320843  1
  Pb  Pb119  1  0.74559081  0.24052044  0.75292866  1
  Pb  Pb120  1  0.74424060  0.49548070  -0.00158305  1
  Pb  Pb121  1  0.75502642  0.49359579  0.25144684  1
  Pb  Pb122  1  0.74257601  0.50389710  0.50596016  1
  Pb  Pb123  1  0.74896074  0.50540748  0.74447502  1
  Pb  Pb124  1  0.75680066  0.75947676  -0.00624890  1
  Pb  Pb125  1  0.74757228  0.76090121  0.25656395  1
  Pb  Pb126  1  0.74492063  0.74743447  0.50464935  1
  Pb  Pb127  1  0.75186364  0.74927937  0.74580150  1
  O  O128  1  0.12249774  -0.00282303  0.16526855  1
  O  O129  1  0.12723872  -0.00368302  0.41717925  1
  O  O130  1  0.12589566  -0.00830403  0.66518307  1
  O  O131  1  0.12651891  -0.00628760  0.91045474  1
  O  O132  1  0.12019481  0.25427139  0.16292127  1
  O  O133  1  0.12560359  0.24995618  0.41278274  1
  O  O134  1  0.13046858  0.25780437  0.66301731  1
  O  O135  1  0.12673028  0.25041753  0.91095822  1
  O  O136  1  0.11989366  0.48905946  0.16424517  1
  O  O137  1  0.12274300  0.49558223  0.40720555  1
  O  O138  1  0.13005283  0.49808379  0.66592064  1
  O  O139  1  0.12759194  0.50126224  0.91752448  1
  O  O140  1  0.11959145  0.75843438  0.16306262  1
  O  O141  1  0.12646309  0.75841766  0.41173608  1
  O  O142  1  0.12654175  0.75318944  0.66680484  1
  O  O143  1  0.12700162  0.75543674  0.91040552  1
  O  O144  1  0.37552289  0.00256891  0.16505808  1
  O  O145  1  0.37586521  -0.00426079  0.41531916  1
  O  O146  1  0.37631958  0.00739352  0.66154632  1
  O  O147  1  0.37533780  0.00569934  0.91106432  1
  O  O148  1  0.37621761  0.24295264  0.16275029  1
  O  O149  1  0.37420351  0.25080830  0.41784331  1
  O  O150  1  0.37382239  0.24819972  0.66303265  1
  O  O151  1  0.37594385  0.24328940  0.91346917  1
  O  O152  1  0.37688226  0.49951457  0.16149848  1
  O  O153  1  0.37326419  0.49877221  0.41123795  1
  O  O154  1  0.37045531  0.50274624  0.66304816  1
  O  O155  1  0.37929810  0.50743262  0.91663363  1
  O  O156  1  0.37708448  0.75439462  0.17013753  1
  O  O157  1  0.37373408  0.75582501  0.41252683  1
  O  O158  1  0.37230321  0.74130835  0.66169354  1
  O  O159  1  0.37763700  0.74343181  0.91399166  1
  O  O160  1  0.62664601  0.00182556  0.16640023  1
  O  O161  1  0.62365189  0.00691666  0.41529298  1
  O  O162  1  0.62293265  0.00820719  0.66096199  1
  O  O163  1  0.62332415  0.00048242  0.90753100  1
  O  O164  1  0.62660762  0.24224212  0.16280659  1
  O  O165  1  0.62597189  0.25234074  0.41363838  1
  O  O166  1  0.62072301  0.24843847  0.66369427  1
  O  O167  1  0.62314367  0.25772203  0.91186148  1
  O  O168  1  0.63027159  0.50725270  0.16318009  1
  O  O169  1  0.62757134  0.50095134  0.41437754  1
  O  O170  1  0.62126164  0.49764420  0.66686360  1
  O  O171  1  0.62189213  0.49924220  0.91673416  1
  O  O172  1  0.63013886  0.74795243  0.16769323  1
  O  O173  1  0.62754943  0.74219874  0.41399168  1
  O  O174  1  0.62287136  0.74633890  0.65996175  1
  O  O175  1  0.62310593  0.74082867  0.90308479  1
  O  O176  1  0.87389023  0.00504662  0.16014558  1
  O  O177  1  0.87425822  0.00181921  0.42056608  1
  O  O178  1  0.87735136  -0.00645504  0.66302752  1
  O  O179  1  0.87387807  0.00027650  0.90302145  1
  O  O180  1  0.87355411  0.24685933  0.16426891  1
  O  O181  1  0.87497641  0.25124900  0.42147791  1
  O  O182  1  0.88071721  0.26238686  0.66382832  1
  O  O183  1  0.87096139  0.26043273  0.91124833  1
  O  O184  1  0.87247460  0.50250435  0.16534835  1
  O  O185  1  0.87754522  0.50447930  0.41628633  1
  O  O186  1  0.88248773  0.49008083  0.66542868  1
  O  O187  1  0.86881379  0.49306140  0.91123529  1
  O  O188  1  0.87301082  0.74387943  0.16316634  1
  O  O189  1  0.87525557  0.74446615  0.41810812  1
  O  O190  1  0.87918045  0.75536887  0.66372004  1
  O  O191  1  0.87320477  0.74643171  0.90993422  1
  O  O192  1  -0.00761242  0.12560786  0.16312768  1
  O  O193  1  0.00561259  0.12424600  0.41696749  1
  O  O194  1  0.00306701  0.12645885  0.66732262  1
  O  O195  1  -0.00190283  0.12665485  0.90604734  1
  O  O196  1  -0.00265093  0.37322385  0.16584073  1
  O  O197  1  0.00717365  0.37271467  0.41450428  1
  O  O198  1  0.00748229  0.37698939  0.66297295  1
  O  O199  1  -0.00521356  0.37704747  0.90511646  1
  O  O200  1  -0.00997044  0.62341499  0.16476544  1
  O  O201  1  -0.00320313  0.62652811  0.41503930  1
  O  O202  1  0.00800470  0.62376599  0.66787112  1
  O  O203  1  -0.00210274  0.62330505  0.91023143  1
  O  O204  1  0.00230734  0.87808997  0.16447464  1
  O  O205  1  0.00541815  0.87678259  0.41354403  1
  O  O206  1  0.00398609  0.87347519  0.66609560  1
  O  O207  1  0.00705917  0.87350036  0.90664440  1
  O  O208  1  0.25446838  0.12348009  0.16174232  1
  O  O209  1  0.24723234  0.12258673  0.41758050  1
  O  O210  1  0.25876666  0.12485682  0.66439982  1
  O  O211  1  0.25668582  0.12361334  0.91112255  1
  O  O212  1  0.24357580  0.37144420  0.15593133  1
  O  O213  1  0.24057035  0.37354660  0.41221137  1
  O  O214  1  0.25088987  0.37630832  0.66719100  1
  O  O215  1  0.25151894  0.37665480  0.92030199  1
  O  O216  1  0.24664965  0.62623416  0.16327289  1
  O  O217  1  0.24722170  0.62726447  0.41064006  1
  O  O218  1  0.25217879  0.62471686  0.66732260  1
  O  O219  1  0.25839272  0.62535395  0.91204719  1
  O  O220  1  0.24239337  0.87688460  0.16212389  1
  O  O221  1  0.25035370  0.87729154  0.41402945  1
  O  O222  1  0.24430820  0.87379116  0.66405077  1
  O  O223  1  0.24598746  0.87443902  0.91277086  1
  O  O224  1  0.49858491  0.12195269  0.16319586  1
  O  O225  1  0.50683125  0.12961134  0.41506101  1
  O  O226  1  0.49632674  0.12848563  0.66413423  1
  O  O227  1  0.49449549  0.12622470  0.91236443  1
  O  O228  1  0.50409787  0.37291596  0.16505870  1
  O  O229  1  0.50723901  0.37648569  0.41166423  1
  O  O230  1  0.49250786  0.37550339  0.66300346  1
  O  O231  1  0.50457268  0.37699981  0.91514470  1
  O  O232  1  0.51168956  0.62760641  0.16439113  1
  O  O233  1  0.50438788  0.62266256  0.40810097  1
  O  O234  1  0.48980613  0.62097189  0.65898118  1
  O  O235  1  0.50260227  0.62284772  0.91522260  1
  O  O236  1  0.50575751  0.87616604  0.16583309  1
  O  O237  1  0.49496797  0.87418263  0.41487356  1
  O  O238  1  0.49767276  0.87611728  0.66488165  1
  O  O239  1  0.49952433  0.87272078  0.91019684  1
  O  O240  1  0.75385193  0.12513888  0.16162593  1
  O  O241  1  0.74085491  0.12817949  0.41812919  1
  O  O242  1  0.74391785  0.13049066  0.65974381  1
  O  O243  1  0.74920162  0.13095713  0.90963507  1
  O  O244  1  0.75384414  0.37416829  0.16685967  1
  O  O245  1  0.74533254  0.37704361  0.41616376  1
  O  O246  1  0.75489820  0.37733478  0.65398446  1
  O  O247  1  0.74549374  0.37707714  0.91268886  1
  O  O248  1  0.75246069  0.62509298  0.16908910  1
  O  O249  1  0.75294232  0.62323140  0.41622777  1
  O  O250  1  0.75149934  0.62043091  0.66024101  1
  O  O251  1  0.74056699  0.61827343  0.90715885  1
  O  O252  1  0.74844867  0.87582996  0.16813126  1
  O  O253  1  0.75097617  0.87340569  0.42329847  1
  O  O254  1  0.75506150  0.87536311  0.65696841  1
  O  O255  1  0.74652136  0.87242546  0.90874221  1
  O  O256  1  0.12097793  0.12337455  0.03520649  1
  O  O257  1  0.12647403  0.12221924  0.29802417  1
  O  O258  1  0.12940751  0.12103732  0.54289985  1
  O  O259  1  0.12683737  0.12022556  0.78010999  1
  O  O260  1  0.12046868  0.37185393  0.04631560  1
  O  O261  1  0.12187485  0.37401842  0.29573459  1
  O  O262  1  0.12548133  0.37818023  0.55168609  1
  O  O263  1  0.13516789  0.37988211  0.78455675  1
  O  O264  1  0.11984781  0.61921155  0.04027226  1
  O  O265  1  0.11565490  0.62959942  0.28027414  1
  O  O266  1  0.12760787  0.62644064  0.55217760  1
  O  O267  1  0.12902667  0.62271584  0.78518237  1
  O  O268  1  0.12278252  0.87899853  0.04718255  1
  O  O269  1  0.12151466  0.87821187  0.29924214  1
  O  O270  1  0.12276867  0.87353021  0.54993005  1
  O  O271  1  0.13195934  0.87337255  0.79414181  1
  O  O272  1  0.37659454  0.12163476  0.04986722  1
  O  O273  1  0.37058631  0.12825547  0.28759726  1
  O  O274  1  0.37487531  0.12710476  0.54755171  1
  O  O275  1  0.37746072  0.12634795  0.79506417  1
  O  O276  1  0.38581028  0.37192451  0.03394325  1
  O  O277  1  0.37430171  0.36637414  0.28284862  1
  O  O278  1  0.37051343  0.37607044  0.54751979  1
  O  O279  1  0.36823201  0.37668149  0.79125423  1
  O  O280  1  0.37865392  0.63754527  0.04060929  1
  O  O281  1  0.37468596  0.62423394  0.28024841  1
  O  O282  1  0.36919702  0.62343620  0.54590881  1
  O  O283  1  0.37967655  0.62410114  0.79964998  1
  O  O284  1  0.37568930  0.86695524  0.03514328  1
  O  O285  1  0.37371399  0.87837866  0.30026605  1
  O  O286  1  0.37997105  0.87155002  0.53910148  1
  O  O287  1  0.37257527  0.87420337  0.78317930  1
  O  O288  1  0.62556564  0.12315810  0.04570554  1
  O  O289  1  0.62394406  0.12227707  0.29977908  1
  O  O290  1  0.62113665  0.12772650  0.55038656  1
  O  O291  1  0.62406809  0.13538176  0.78158306  1
  O  O292  1  0.62728644  0.37628593  0.03583151  1
  O  O293  1  0.62914804  0.37409310  0.30116184  1
  O  O294  1  0.61954307  0.38041753  0.53341566  1
  O  O295  1  0.62335203  0.37879001  0.79998753  1
  O  O296  1  0.63073061  0.62832698  0.05061759  1
  O  O297  1  0.62828955  0.62312146  0.30189332  1
  O  O298  1  0.62488742  0.61637896  0.53186376  1
  O  O299  1  0.62025462  0.61762039  0.79448335  1
  O  O300  1  0.62813859  0.87384077  0.04908477  1
  O  O301  1  0.63366978  0.87802017  0.29321170  1
  O  O302  1  0.61301826  0.87315034  0.53500097  1
  O  O303  1  0.62608507  0.87774313  0.77587567  1
  O  O304  1  0.87439341  0.12581234  0.04748342  1
  O  O305  1  0.87504538  0.13173796  0.29043721  1
  O  O306  1  0.87960014  0.12916370  0.54404854  1
  O  O307  1  0.87198349  0.13373795  0.77429920  1
  O  O308  1  0.87533206  0.37524739  0.04928117  1
  O  O309  1  0.87370396  0.37085451  0.28840233  1
  O  O310  1  0.87986161  0.37751591  0.54572101  1
  O  O311  1  0.87391824  0.37577343  0.79470722  1
  O  O312  1  0.87006181  0.62506799  0.04938219  1
  O  O313  1  0.87322175  0.62530413  0.30251524  1
  O  O314  1  0.88768021  0.62401077  0.54246793  1
  O  O315  1  0.87624953  0.62400601  0.77823430  1
  O  O316  1  0.87146805  0.86797988  0.03560586  1
  O  O317  1  0.87029962  0.88096158  0.28908284  1
  O  O318  1  0.88174095  0.87316162  0.55093786  1
  O  O319  1  0.86822513  0.87007330  0.77885205  1
