# generated using pymatgen
data_VFe(PbO3)2
_symmetry_space_group_name_H-M   'P 1'
_cell_length_a   15.39426487
_cell_length_b   15.37820709
_cell_length_c   18.55711691
_cell_angle_alpha   89.99888984
_cell_angle_beta   89.98678424
_cell_angle_gamma   90.01233117
_symmetry_Int_Tables_number   1
_chemical_formula_structural   VFe(PbO3)2
_chemical_formula_sum   'V32 Fe32 Pb64 O192'
_cell_volume   4393.14099382
_cell_formula_units_Z   32
loop_
 _symmetry_equiv_pos_site_id
 _symmetry_equiv_pos_as_xyz
  1  'x, y, z'
loop_
 _atom_site_type_symbol
 _atom_site_label
 _atom_site_symmetry_multiplicity
 _atom_site_fract_x
 _atom_site_fract_y
 _atom_site_fract_z
 _atom_site_occupancy
  V  V0  1  0.12321762  0.62725995  0.89049016  1
  V  V1  1  0.37474108  0.37823399  0.63976682  1
  V  V2  1  0.86924695  0.37275378  0.38973326  1
  V  V3  1  0.12061140  0.12510311  0.88804933  1
  V  V4  1  0.37353550  0.12459997  0.63958181  1
  V  V5  1  0.12278728  0.87602444  0.63328418  1
  V  V6  1  0.87776956  0.62659911  0.89265204  1
  V  V7  1  0.37847449  0.87528743  0.39049039  1
  V  V8  1  0.87216868  0.12648854  0.39346689  1
  V  V9  1  0.87568461  0.37179561  0.14305859  1
  V  V10  1  0.37404003  0.87487652  0.14088607  1
  V  V11  1  0.12758595  0.62319159  0.14775533  1
  V  V12  1  0.87623776  0.87478115  0.89185653  1
  V  V13  1  0.12067508  0.37593746  0.39797910  1
  V  V14  1  0.12504411  0.37442040  0.14124141  1
  V  V15  1  0.37432275  0.37546967  0.13822234  1
  V  V16  1  0.37386935  0.12702133  0.14198837  1
  V  V17  1  0.37602058  0.62154611  0.39386496  1
  V  V18  1  0.12470393  0.62558333  0.63473627  1
  V  V19  1  0.87425180  0.12786634  0.14203017  1
  V  V20  1  0.12435387  0.87490410  0.15127851  1
  V  V21  1  0.62525117  0.37394554  0.13881759  1
  V  V22  1  0.37474172  0.37206397  0.39130002  1
  V  V23  1  0.12444873  0.12700424  0.14428780  1
  V  V24  1  0.87728423  0.37541756  0.88638490  1
  V  V25  1  0.87246032  0.87604017  0.38644104  1
  V  V26  1  0.12167618  0.87418215  0.88969194  1
  V  V27  1  0.37534742  0.62389602  0.13799581  1
  V  V28  1  0.62688077  0.87465936  0.38987407  1
  V  V29  1  0.61721678  0.87524469  0.64153551  1
  V  V30  1  0.87145753  0.87299116  0.63551391  1
  V  V31  1  0.87488885  0.37704018  0.63160883  1
  Fe  Fe32  1  0.12616919  0.87394439  0.38159498  1
  Fe  Fe33  1  0.37191674  0.37479651  0.88024844  1
  Fe  Fe34  1  0.62735060  0.62510796  0.88320445  1
  Fe  Fe35  1  0.12068226  0.37880884  0.88370029  1
  Fe  Fe36  1  0.62908574  0.12431341  0.87606260  1
  Fe  Fe37  1  0.62660367  0.37768809  0.87622428  1
  Fe  Fe38  1  0.62470983  0.12622178  0.13453216  1
  Fe  Fe39  1  0.87647007  0.12359953  0.63855892  1
  Fe  Fe40  1  0.62403742  0.12275693  0.64540405  1
  Fe  Fe41  1  0.37061498  0.87478687  0.63600295  1
  Fe  Fe42  1  0.62520507  0.37434274  0.63979862  1
  Fe  Fe43  1  0.87504474  0.62198806  0.14174178  1
  Fe  Fe44  1  0.87740185  0.62614191  0.63055078  1
  Fe  Fe45  1  0.62206331  0.12485778  0.38748620  1
  Fe  Fe46  1  0.37204979  0.87632807  0.88293445  1
  Fe  Fe47  1  0.62604551  0.87359311  0.87898544  1
  Fe  Fe48  1  0.12660120  0.12385265  0.39450843  1
  Fe  Fe49  1  0.87692423  0.87637969  0.13747699  1
  Fe  Fe50  1  0.12518242  0.37491098  0.63041868  1
  Fe  Fe51  1  0.12690232  0.12448800  0.62691521  1
  Fe  Fe52  1  0.62368062  0.62423384  0.13312331  1
  Fe  Fe53  1  0.87402114  0.62173209  0.38624262  1
  Fe  Fe54  1  0.37660193  0.12607580  0.38355130  1
  Fe  Fe55  1  0.62794091  0.62745375  0.63504265  1
  Fe  Fe56  1  0.62124625  0.37400164  0.39274996  1
  Fe  Fe57  1  0.37323927  0.62681047  0.87827117  1
  Fe  Fe58  1  0.62259414  0.62541128  0.39106351  1
  Fe  Fe59  1  0.87981906  0.12347219  0.87849038  1
  Fe  Fe60  1  0.62572173  0.87669310  0.13329173  1
  Fe  Fe61  1  0.12709086  0.62591036  0.38290140  1
  Fe  Fe62  1  0.37386970  0.62686621  0.64056046  1
  Fe  Fe63  1  0.37303171  0.12271984  0.88266982  1
  Pb  Pb64  1  -0.00535102  -0.00646425  0.00359659  1
  Pb  Pb65  1  0.01058774  0.00265236  0.25798762  1
  Pb  Pb66  1  -0.00192601  0.00574270  0.50014860  1
  Pb  Pb67  1  -0.00126720  0.00597257  0.74513118  1
  Pb  Pb68  1  -0.00305273  0.25207141  -0.00297253  1
  Pb  Pb69  1  0.00602062  0.24629079  0.25686955  1
  Pb  Pb70  1  -0.00311027  0.24191215  0.50626348  1
  Pb  Pb71  1  0.00247370  0.24671624  0.74030271  1
  Pb  Pb72  1  -0.00543312  0.50684779  0.00599575  1
  Pb  Pb73  1  -0.00210545  0.50555802  0.25589125  1
  Pb  Pb74  1  -0.00176277  0.50257333  0.49888484  1
  Pb  Pb75  1  0.00391779  0.49317307  0.74477415  1
  Pb  Pb76  1  -0.01111073  0.75014899  0.01158817  1
  Pb  Pb77  1  -0.00311687  0.74331836  0.25283243  1
  Pb  Pb78  1  -0.00024489  0.74427039  0.49100852  1
  Pb  Pb79  1  0.00176315  0.75047409  0.74559601  1
  Pb  Pb80  1  0.25070675  -0.00007399  -0.00116471  1
  Pb  Pb81  1  0.24874411  0.00431957  0.25719880  1
  Pb  Pb82  1  0.24734426  0.00074299  0.49464262  1
  Pb  Pb83  1  0.25577297  -0.00047035  0.75006614  1
  Pb  Pb84  1  0.25071654  0.25254085  -0.00640364  1
  Pb  Pb85  1  0.25308698  0.24328952  0.25549356  1
  Pb  Pb86  1  0.24534756  0.24890341  0.50189870  1
  Pb  Pb87  1  0.25146036  0.25137965  0.74673267  1
  Pb  Pb88  1  0.25304000  0.49785259  -0.00626298  1
  Pb  Pb89  1  0.25043834  0.49939181  0.25172660  1
  Pb  Pb90  1  0.24802139  0.49817648  0.50410905  1
  Pb  Pb91  1  0.25130398  0.48947895  0.75168459  1
  Pb  Pb92  1  0.25295035  0.75103808  -0.00256099  1
  Pb  Pb93  1  0.24627642  0.75002996  0.25543970  1
  Pb  Pb94  1  0.25941106  0.75058283  0.50207242  1
  Pb  Pb95  1  0.25714966  0.74958975  0.74937567  1
  Pb  Pb96  1  0.50796841  0.00003688  -0.01149462  1
  Pb  Pb97  1  0.50116667  0.00897344  0.24753252  1
  Pb  Pb98  1  0.50211650  0.00369786  0.50041896  1
  Pb  Pb99  1  0.48911544  -0.00089375  0.75511212  1
  Pb  Pb100  1  0.50370954  0.24709509  -0.01546367  1
  Pb  Pb101  1  0.50408859  0.24900758  0.25268079  1
  Pb  Pb102  1  0.51224056  0.24670984  0.50746646  1
  Pb  Pb103  1  0.50404390  0.25032124  0.75047847  1
  Pb  Pb104  1  0.50250577  0.50296182  -0.01418339  1
  Pb  Pb105  1  0.51184382  0.49696553  0.25379595  1
  Pb  Pb106  1  0.50684974  0.50333705  0.50639868  1
  Pb  Pb107  1  0.50989432  0.50409032  0.74768440  1
  Pb  Pb108  1  0.50559466  0.75112882  -0.01172132  1
  Pb  Pb109  1  0.50826097  0.74311756  0.24680176  1
  Pb  Pb110  1  0.48884824  0.74866018  0.50929654  1
  Pb  Pb111  1  0.49634486  0.74139399  0.74970949  1
  Pb  Pb112  1  0.73938021  0.00141056  -0.00228667  1
  Pb  Pb113  1  0.74497590  -0.00006998  0.24549291  1
  Pb  Pb114  1  0.74964800  0.00962978  0.50513087  1
  Pb  Pb115  1  0.74337463  0.00145057  0.75180800  1
  Pb  Pb116  1  0.74299765  0.24112308  -0.00905782  1
  Pb  Pb117  1  0.73657544  0.25310919  0.25551322  1
  Pb  Pb118  1  0.73618700  0.24711194  0.51050350  1
  Pb  Pb119  1  0.74663216  0.24568418  0.74436753  1
  Pb  Pb120  1  0.74726285  0.50809344  0.00010138  1
  Pb  Pb121  1  0.74586289  0.51041541  0.25450061  1
  Pb  Pb122  1  0.74031073  0.50655253  0.50278044  1
  Pb  Pb123  1  0.74390552  0.50460452  0.74400469  1
  Pb  Pb124  1  0.73912668  0.75309072  0.00504338  1
  Pb  Pb125  1  0.75083687  0.74585600  0.24334744  1
  Pb  Pb126  1  0.74834974  0.73902869  0.49995253  1
  Pb  Pb127  1  0.74281863  0.74747865  0.75092290  1
  O  O128  1  0.12653020  0.00423554  0.17071497  1
  O  O129  1  0.12560586  -0.00446987  0.41455751  1
  O  O130  1  0.12260100  -0.00739949  0.65304705  1
  O  O131  1  0.11968308  0.00018977  0.91516849  1
  O  O132  1  0.12672366  0.25089317  0.17156890  1
  O  O133  1  0.12885573  0.25716092  0.41641820  1
  O  O134  1  0.12586465  0.24963708  0.65515821  1
  O  O135  1  0.11957845  0.24417032  0.90956109  1
  O  O136  1  0.12774111  0.49617869  0.16954242  1
  O  O137  1  0.12733500  0.49653834  0.41653504  1
  O  O138  1  0.12516373  0.50711526  0.65699854  1
  O  O139  1  0.12071869  0.50955442  0.91529365  1
  O  O140  1  0.12802175  0.74905064  0.17108213  1
  O  O141  1  0.12284687  0.75098211  0.40934434  1
  O  O142  1  0.12109927  0.74937227  0.66117049  1
  O  O143  1  0.12155617  0.74707582  0.91857181  1
  O  O144  1  0.37136165  -0.00277516  0.16397573  1
  O  O145  1  0.37838758  -0.00780730  0.41093793  1
  O  O146  1  0.37135914  0.00271820  0.66182018  1
  O  O147  1  0.36871608  0.00026547  0.91914011  1
  O  O148  1  0.37263434  0.25246961  0.16681181  1
  O  O149  1  0.37047482  0.25725530  0.40962193  1
  O  O150  1  0.37258211  0.24680315  0.66211585  1
  O  O151  1  0.36927200  0.24759516  0.91333058  1
  O  O152  1  0.37312239  0.49791061  0.16517571  1
  O  O153  1  0.37436148  0.50308970  0.41706699  1
  O  O154  1  0.37130075  0.49522874  0.65701297  1
  O  O155  1  0.36890442  0.50203807  0.91082627  1
  O  O156  1  0.37300813  0.75141740  0.16485303  1
  O  O157  1  0.37849990  0.74941820  0.41505877  1
  O  O158  1  0.37207978  0.75321073  0.66760246  1
  O  O159  1  0.36821694  0.75091887  0.91315657  1
  O  O160  1  0.62308323  0.00232119  0.16398961  1
  O  O161  1  0.62427100  -0.00586816  0.41716177  1
  O  O162  1  0.63012047  -0.00874569  0.66350216  1
  O  O163  1  0.63177957  -0.00133464  0.90789706  1
  O  O164  1  0.62248074  0.25418078  0.16494167  1
  O  O165  1  0.62379590  0.24914931  0.42051456  1
  O  O166  1  0.62274828  0.24995166  0.66573459  1
  O  O167  1  0.63081597  0.25229159  0.90483896  1
  O  O168  1  0.62292638  0.49185477  0.16268240  1
  O  O169  1  0.62263586  0.49850174  0.41946066  1
  O  O170  1  0.62583147  0.50029883  0.65998889  1
  O  O171  1  0.63144496  0.49977594  0.91227841  1
  O  O172  1  0.62275286  0.75078504  0.16266725  1
  O  O173  1  0.62672610  0.75906309  0.41223307  1
  O  O174  1  0.62976234  0.75788239  0.66277731  1
  O  O175  1  0.63192806  0.74983460  0.91200775  1
  O  O176  1  0.87908748  0.01249166  0.16460616  1
  O  O177  1  0.87029479  0.00299026  0.41478809  1
  O  O178  1  0.88142583  -0.01122804  0.66138506  1
  O  O179  1  0.88393303  -0.00767626  0.90967242  1
  O  O180  1  0.87743932  0.24831420  0.17321678  1
  O  O181  1  0.87907433  0.24984188  0.41541302  1
  O  O182  1  0.87968613  0.25810247  0.65819650  1
  O  O183  1  0.88219298  0.25718906  0.90677502  1
  O  O184  1  0.87520029  0.48939609  0.16773871  1
  O  O185  1  0.87810304  0.48871270  0.41083853  1
  O  O186  1  0.87697468  0.49546527  0.65692010  1
  O  O187  1  0.88179288  0.50385860  0.91534768  1
  O  O188  1  0.87798685  0.74962759  0.16618133  1
  O  O189  1  0.87120672  0.75946918  0.40492573  1
  O  O190  1  0.88214770  0.75635266  0.66247688  1
  O  O191  1  0.88315369  0.74772944  0.91674663  1
  O  O192  1  -0.00000826  0.12986760  0.17096125  1
  O  O193  1  -0.00695664  0.12453290  0.41508615  1
  O  O194  1  0.00398768  0.12265461  0.66149828  1
  O  O195  1  0.00357692  0.12355389  0.91737455  1
  O  O196  1  0.00286714  0.37174064  0.16882210  1
  O  O197  1  0.00183489  0.37318470  0.41402361  1
  O  O198  1  -0.00367014  0.37870720  0.65752221  1
  O  O199  1  -0.00435311  0.37934088  0.91867677  1
  O  O200  1  0.00497178  0.62085723  0.16870945  1
  O  O201  1  0.00000099  0.62270466  0.41135297  1
  O  O202  1  0.00578239  0.62581075  0.66253465  1
  O  O203  1  0.00151879  0.62664566  0.92193306  1
  O  O204  1  0.00358015  0.87784420  0.17047185  1
  O  O205  1  -0.01157845  0.88054843  0.40669674  1
  O  O206  1  0.00430465  0.87216701  0.66169964  1
  O  O207  1  0.00124690  0.87149621  0.92292524  1
  O  O208  1  0.24903868  0.12662746  0.16981948  1
  O  O209  1  0.25443610  0.12342793  0.41611987  1
  O  O210  1  0.25350006  0.12355178  0.65902152  1
  O  O211  1  0.23652056  0.12292545  0.91450313  1
  O  O212  1  0.24941282  0.37418227  0.16789925  1
  O  O213  1  0.25484361  0.38019616  0.41846955  1
  O  O214  1  0.25387781  0.37378476  0.66160119  1
  O  O215  1  0.24337258  0.37551844  0.91590949  1
  O  O216  1  0.25362254  0.62374780  0.17190344  1
  O  O217  1  0.25675680  0.62661818  0.41383813  1
  O  O218  1  0.23925446  0.62923762  0.66008391  1
  O  O219  1  0.24017590  0.62703441  0.91187425  1
  O  O220  1  0.25547716  0.87501737  0.17221864  1
  O  O221  1  0.25949610  0.87166370  0.40833387  1
  O  O222  1  0.23870673  0.87192397  0.65811925  1
  O  O223  1  0.24062323  0.87527179  0.91848523  1
  O  O224  1  0.49493276  0.12649051  0.16139301  1
  O  O225  1  0.49780413  0.12352444  0.41783822  1
  O  O226  1  0.49093429  0.12188732  0.66503859  1
  O  O227  1  0.50137676  0.12401821  0.90488856  1
  O  O228  1  0.50150248  0.37336196  0.16164321  1
  O  O229  1  0.48881447  0.37845658  0.41745452  1
  O  O230  1  0.49082181  0.37305956  0.66285109  1
  O  O231  1  0.49987376  0.37538893  0.90637947  1
  O  O232  1  0.49507894  0.62285214  0.16337417  1
  O  O233  1  0.49362331  0.62580031  0.41876255  1
  O  O234  1  0.50160158  0.62845098  0.66118118  1
  O  O235  1  0.49954908  0.62600659  0.90578041  1
  O  O236  1  0.49015965  0.87592409  0.16166451  1
  O  O237  1  0.50221172  0.87352287  0.41496519  1
  O  O238  1  0.50235385  0.87624998  0.65849687  1
  O  O239  1  0.49929770  0.87567311  0.90633893  1
  O  O240  1  0.75735042  0.13039346  0.16191520  1
  O  O241  1  0.75379762  0.12692374  0.41637479  1
  O  O242  1  0.75307665  0.12270289  0.66236076  1
  O  O243  1  0.75736361  0.12466081  0.90744655  1
  O  O244  1  0.74513013  0.37062263  0.16322437  1
  O  O245  1  0.75634291  0.36952963  0.41071311  1
  O  O246  1  0.75902612  0.37397236  0.65726022  1
  O  O247  1  0.76340137  0.38000669  0.90948992  1
  O  O248  1  0.74805040  0.61990382  0.16494319  1
  O  O249  1  0.75014962  0.62404843  0.41304474  1
  O  O250  1  0.75496147  0.62868637  0.66165051  1
  O  O251  1  0.76251133  0.62533206  0.91153205  1
  O  O252  1  0.75181786  0.87920006  0.16581727  1
  O  O253  1  0.74838607  0.87977236  0.41443355  1
  O  O254  1  0.75820562  0.87322713  0.65846861  1
  O  O255  1  0.76219478  0.87103261  0.90906872  1
  O  O256  1  0.12260611  0.12725057  0.05384710  1
  O  O257  1  0.12298239  0.12659090  0.29297772  1
  O  O258  1  0.12266603  0.12483470  0.52573951  1
  O  O259  1  0.11983244  0.12174705  0.79721253  1
  O  O260  1  0.12365979  0.37385997  0.05060455  1
  O  O261  1  0.12688814  0.37592078  0.30713536  1
  O  O262  1  0.13017603  0.37979317  0.53053323  1
  O  O263  1  0.12323183  0.38570218  0.78442505  1
  O  O264  1  0.12931365  0.62379117  0.05700791  1
  O  O265  1  0.12811314  0.62064141  0.28320526  1
  O  O266  1  0.12160241  0.62802352  0.54332703  1
  O  O267  1  0.11872058  0.62908522  0.80010714  1
  O  O268  1  0.12795580  0.87597181  0.06027579  1
  O  O269  1  0.12947150  0.88020702  0.28124959  1
  O  O270  1  0.12076557  0.87089556  0.54243336  1
  O  O271  1  0.12070446  0.87281630  0.79899889  1
  O  O272  1  0.36749312  0.12712211  0.05151239  1
  O  O273  1  0.37411293  0.12543205  0.28321065  1
  O  O274  1  0.37556512  0.12397061  0.54856055  1
  O  O275  1  0.36572953  0.11404990  0.78328748  1
  O  O276  1  0.37075481  0.37505615  0.04779612  1
  O  O277  1  0.37420452  0.37788139  0.30027390  1
  O  O278  1  0.37408433  0.37282067  0.54879846  1
  O  O279  1  0.36089084  0.37296517  0.78077640  1
  O  O280  1  0.37052597  0.62462056  0.04758907  1
  O  O281  1  0.37834161  0.62188916  0.30318753  1
  O  O282  1  0.37266200  0.63741662  0.53949216  1
  O  O283  1  0.36990030  0.63125218  0.77774661  1
  O  O284  1  0.36643934  0.87367600  0.05049273  1
  O  O285  1  0.38242983  0.87224040  0.30007212  1
  O  O286  1  0.37459876  0.86527339  0.53575292  1
  O  O287  1  0.36513535  0.88503019  0.78260604  1
  O  O288  1  0.63453868  0.12583148  0.03492924  1
  O  O289  1  0.62096163  0.13129537  0.28717433  1
  O  O290  1  0.62316201  0.12679410  0.54282221  1
  O  O291  1  0.62939255  0.12122266  0.77475531  1
  O  O292  1  0.62623111  0.37332773  0.04846976  1
  O  O293  1  0.61877341  0.37134992  0.29162908  1
  O  O294  1  0.62304229  0.36755646  0.53737564  1
  O  O295  1  0.62644317  0.38093623  0.77591196  1
  O  O296  1  0.63147655  0.62422315  0.03334991  1
  O  O297  1  0.61713150  0.61872712  0.29001669  1
  O  O298  1  0.63234290  0.62520020  0.53290574  1
  O  O299  1  0.63302004  0.62451076  0.78211210  1
  O  O300  1  0.63175079  0.87555481  0.03316625  1
  O  O301  1  0.62585772  0.87784246  0.29913320  1
  O  O302  1  0.62528275  0.87512363  0.55062310  1
  O  O303  1  0.63387173  0.87356484  0.77898586  1
  O  O304  1  0.88075163  0.13261776  0.05132211  1
  O  O305  1  0.87250102  0.12705290  0.30297783  1
  O  O306  1  0.87995087  0.12132271  0.53702865  1
  O  O307  1  0.88858676  0.12318737  0.77903431  1
  O  O308  1  0.87698404  0.36781171  0.05242994  1
  O  O309  1  0.87324768  0.36980346  0.29897195  1
  O  O310  1  0.87579562  0.37596079  0.54049956  1
  O  O311  1  0.88226286  0.38132714  0.79606418  1
  O  O312  1  0.88184492  0.62023747  0.04120171  1
  O  O313  1  0.87646744  0.61668857  0.28462389  1
  O  O314  1  0.87743946  0.62907011  0.53044758  1
  O  O315  1  0.88406845  0.62709508  0.80221863  1
  O  O316  1  0.88303080  0.87636028  0.03753263  1
  O  O317  1  0.86801923  0.88289523  0.29610058  1
  O  O318  1  0.87395620  0.87330657  0.54434811  1
  O  O319  1  0.88351939  0.86896552  0.80141903  1
