# generated using pymatgen
data_VFe(PbO3)2
_symmetry_space_group_name_H-M   'P 1'
_cell_length_a   15.39534748
_cell_length_b   15.39232608
_cell_length_c   18.51333712
_cell_angle_alpha   89.99622273
_cell_angle_beta   89.97218146
_cell_angle_gamma   89.98360273
_symmetry_Int_Tables_number   1
_chemical_formula_structural   VFe(PbO3)2
_chemical_formula_sum   'V32 Fe32 Pb64 O192'
_cell_volume   4387.10865169
_cell_formula_units_Z   32
loop_
 _symmetry_equiv_pos_site_id
 _symmetry_equiv_pos_as_xyz
  1  'x, y, z'
loop_
 _atom_site_type_symbol
 _atom_site_label
 _atom_site_symmetry_multiplicity
 _atom_site_fract_x
 _atom_site_fract_y
 _atom_site_fract_z
 _atom_site_occupancy
  V  V0  1  0.37313577  0.62833315  0.88817223  1
  V  V1  1  0.62519516  0.12731455  0.63928637  1
  V  V2  1  0.62538531  0.12469502  0.89045577  1
  V  V3  1  0.37855143  0.12103844  0.38764319  1
  V  V4  1  0.62497666  0.37549798  0.13605796  1
  V  V5  1  0.12220957  0.12369112  0.14334128  1
  V  V6  1  0.11973902  0.62709273  0.14640438  1
  V  V7  1  0.12463101  0.87525993  0.14275224  1
  V  V8  1  0.87676909  0.37267743  0.63479482  1
  V  V9  1  0.12102247  0.37497556  0.14348743  1
  V  V10  1  0.87557946  0.12452324  0.88613566  1
  V  V11  1  0.87530937  0.62373925  0.39752128  1
  V  V12  1  0.87926002  0.87459478  0.14324172  1
  V  V13  1  0.87532184  0.62542840  0.88208204  1
  V  V14  1  0.37721832  0.37431947  0.64114134  1
  V  V15  1  0.11740710  0.37568218  0.39367107  1
  V  V16  1  0.62443858  0.87578053  0.38957428  1
  V  V17  1  0.37464257  0.87824914  0.88774021  1
  V  V18  1  0.37432065  0.37506459  0.38668465  1
  V  V19  1  0.37268459  0.87524046  0.13948168  1
  V  V20  1  0.37816787  0.62923291  0.63589613  1
  V  V21  1  0.62277294  0.37549593  0.38544371  1
  V  V22  1  0.62398891  0.37137213  0.64407679  1
  V  V23  1  0.12521684  0.62420133  0.88421720  1
  V  V24  1  0.37979715  0.12567012  0.64061380  1
  V  V25  1  0.87588746  0.62564932  0.14069062  1
  V  V26  1  0.37617095  0.86841828  0.39134251  1
  V  V27  1  0.12562308  0.37479631  0.88830871  1
  V  V28  1  0.87773092  0.37474285  0.14843641  1
  V  V29  1  0.87686835  0.12424021  0.14790265  1
  V  V30  1  0.62300115  0.62528411  0.38818514  1
  V  V31  1  0.12067515  0.87503006  0.40287766  1
  Fe  Fe32  1  0.36868472  0.37474670  0.13097450  1
  Fe  Fe33  1  0.62278658  0.62080679  0.64632870  1
  Fe  Fe34  1  0.62786771  0.37594138  0.88815059  1
  Fe  Fe35  1  0.62499877  0.87578956  0.88835703  1
  Fe  Fe36  1  0.37817657  0.87670668  0.63088579  1
  Fe  Fe37  1  0.12870126  0.37381706  0.62774168  1
  Fe  Fe38  1  0.87261242  0.62239053  0.63177572  1
  Fe  Fe39  1  0.12427949  0.12476705  0.88046797  1
  Fe  Fe40  1  0.62122568  0.12540617  0.37760256  1
  Fe  Fe41  1  0.12741750  0.61978170  0.62849112  1
  Fe  Fe42  1  0.87496202  0.87528862  0.87961380  1
  Fe  Fe43  1  0.12954413  0.12435344  0.39890366  1
  Fe  Fe44  1  0.37042889  0.12397440  0.13409257  1
  Fe  Fe45  1  0.62530063  0.62580008  0.87804083  1
  Fe  Fe46  1  0.12995441  0.87518814  0.62428651  1
  Fe  Fe47  1  0.37343894  0.12471090  0.88645734  1
  Fe  Fe48  1  0.87220638  0.87644706  0.62566786  1
  Fe  Fe49  1  0.12714858  0.87365791  0.88136088  1
  Fe  Fe50  1  0.87201424  0.12637349  0.38995971  1
  Fe  Fe51  1  0.87015223  0.12826581  0.62875954  1
  Fe  Fe52  1  0.87469947  0.37482012  0.88529274  1
  Fe  Fe53  1  0.37747731  0.62155796  0.38338617  1
  Fe  Fe54  1  0.12650089  0.12922929  0.62589548  1
  Fe  Fe55  1  0.62883071  0.87353251  0.13364473  1
  Fe  Fe56  1  0.12858597  0.62536993  0.39554881  1
  Fe  Fe57  1  0.62916788  0.62653256  0.13526976  1
  Fe  Fe58  1  0.62046416  0.87661281  0.63461274  1
  Fe  Fe59  1  0.87202411  0.87277771  0.39812057  1
  Fe  Fe60  1  0.86911410  0.37858158  0.38356334  1
  Fe  Fe61  1  0.37517016  0.37727871  0.89369076  1
  Fe  Fe62  1  0.62635825  0.12293558  0.14469517  1
  Fe  Fe63  1  0.37144872  0.62590447  0.14079521  1
  Pb  Pb64  1  0.00295129  -0.00300035  -0.00891414  1
  Pb  Pb65  1  -0.00842878  0.00088187  0.26460263  1
  Pb  Pb66  1  -0.00965464  0.00695271  0.50189488  1
  Pb  Pb67  1  0.00086113  -0.00325886  0.73152903  1
  Pb  Pb68  1  0.00147391  0.25076635  -0.00301461  1
  Pb  Pb69  1  -0.00027491  0.23849363  0.26410252  1
  Pb  Pb70  1  -0.00225553  0.24309107  0.49805736  1
  Pb  Pb71  1  0.00823950  0.24164541  0.74020336  1
  Pb  Pb72  1  0.00012514  0.50184763  -0.00355138  1
  Pb  Pb73  1  0.00131636  0.50121498  0.25770575  1
  Pb  Pb74  1  -0.00099006  0.50705108  0.50447664  1
  Pb  Pb75  1  0.00079353  0.49997327  0.73962870  1
  Pb  Pb76  1  0.00027957  0.75197835  -0.00871550  1
  Pb  Pb77  1  -0.00419714  0.75644854  0.26124858  1
  Pb  Pb78  1  -0.00974704  0.74905404  0.50936142  1
  Pb  Pb79  1  -0.00020804  0.75698331  0.73230471  1
  Pb  Pb80  1  0.25022094  0.00500578  -0.00498786  1
  Pb  Pb81  1  0.23909923  0.00254736  0.25599990  1
  Pb  Pb82  1  0.25210757  -0.00613231  0.50634520  1
  Pb  Pb83  1  0.23768572  0.00107987  0.74398058  1
  Pb  Pb84  1  0.25847013  0.24489276  -0.00052008  1
  Pb  Pb85  1  0.24431962  0.24522596  0.25156471  1
  Pb  Pb86  1  0.24612076  0.25239932  0.50354309  1
  Pb  Pb87  1  0.25151827  0.24132397  0.75178627  1
  Pb  Pb88  1  0.25864761  0.50394833  0.00573084  1
  Pb  Pb89  1  0.24899446  0.50884511  0.25537668  1
  Pb  Pb90  1  0.24726321  0.50015956  0.50057605  1
  Pb  Pb91  1  0.25438193  0.49384919  0.74660623  1
  Pb  Pb92  1  0.25419812  0.74543920  0.00171373  1
  Pb  Pb93  1  0.24344123  0.74352596  0.25748396  1
  Pb  Pb94  1  0.24870543  0.74759161  0.50238733  1
  Pb  Pb95  1  0.24139217  0.75982540  0.74208427  1
  Pb  Pb96  1  0.50997740  0.01014469  0.00758211  1
  Pb  Pb97  1  0.50381865  0.00246524  0.24486495  1
  Pb  Pb98  1  0.50221384  -0.00931747  0.50286571  1
  Pb  Pb99  1  0.50182151  -0.00410522  0.75186991  1
  Pb  Pb100  1  0.49373205  0.25144989  -0.00020977  1
  Pb  Pb101  1  0.49828834  0.24655359  0.24057573  1
  Pb  Pb102  1  0.50027013  0.25145998  0.49740804  1
  Pb  Pb103  1  0.48966135  0.25090046  0.76125750  1
  Pb  Pb104  1  0.49994434  0.50359739  -0.00289696  1
  Pb  Pb105  1  0.49139404  0.50509206  0.24233907  1
  Pb  Pb106  1  0.50589197  0.50775595  0.50243020  1
  Pb  Pb107  1  0.50048352  0.49093925  0.75791540  1
  Pb  Pb108  1  0.50786456  0.74601281  0.00044672  1
  Pb  Pb109  1  0.49978648  0.74543967  0.24383669  1
  Pb  Pb110  1  0.50801585  0.75340542  0.50493110  1
  Pb  Pb111  1  0.51357300  0.75466189  0.75166744  1
  Pb  Pb112  1  0.74508508  -0.00281414  0.00227294  1
  Pb  Pb113  1  0.75164544  0.00293561  0.25492540  1
  Pb  Pb114  1  0.75226609  0.00314354  0.49743468  1
  Pb  Pb115  1  0.75719472  -0.01428785  0.74571118  1
  Pb  Pb116  1  0.74764076  0.24700811  0.00152339  1
  Pb  Pb117  1  0.75529070  0.24845623  0.25531840  1
  Pb  Pb118  1  0.75262863  0.24699578  0.49300555  1
  Pb  Pb119  1  0.75067409  0.25989575  0.75452675  1
  Pb  Pb120  1  0.74492176  0.50484869  -0.00512166  1
  Pb  Pb121  1  0.75391829  0.49545082  0.25052705  1
  Pb  Pb122  1  0.74293399  0.51076357  0.50603013  1
  Pb  Pb123  1  0.74740776  0.49516067  0.75201447  1
  Pb  Pb124  1  0.74098500  0.75350577  -0.00483943  1
  Pb  Pb125  1  0.75434129  0.75590130  0.25112463  1
  Pb  Pb126  1  0.74566147  0.74982721  0.50743966  1
  Pb  Pb127  1  0.74968053  0.75062955  0.73845401  1
  O  O128  1  0.12178086  -0.00041457  0.17122262  1
  O  O129  1  0.13207283  -0.00604346  0.41869781  1
  O  O130  1  0.13215202  0.00363970  0.65001195  1
  O  O131  1  0.12499263  -0.00085304  0.91200445  1
  O  O132  1  0.12064020  0.25085979  0.16903736  1
  O  O133  1  0.13166556  0.25929971  0.41390264  1
  O  O134  1  0.12785754  0.25251604  0.66040949  1
  O  O135  1  0.12129976  0.25712117  0.91159857  1
  O  O136  1  0.11814738  0.49628061  0.16749597  1
  O  O137  1  0.12935624  0.49238535  0.41496671  1
  O  O138  1  0.12903777  0.49554936  0.66209318  1
  O  O139  1  0.12204697  0.49965848  0.91524561  1
  O  O140  1  0.12162923  0.75127861  0.17166587  1
  O  O141  1  0.13351459  0.75534876  0.41666231  1
  O  O142  1  0.13058923  0.74626629  0.65286159  1
  O  O143  1  0.12498601  0.74475931  0.91217586  1
  O  O144  1  0.36762936  -0.00805970  0.16455952  1
  O  O145  1  0.38167049  0.00526301  0.40913132  1
  O  O146  1  0.37959238  0.01035055  0.65755632  1
  O  O147  1  0.37322359  -0.00597200  0.90904194  1
  O  O148  1  0.37084074  0.25129382  0.16191449  1
  O  O149  1  0.38172551  0.25516936  0.41292828  1
  O  O150  1  0.38135705  0.25348291  0.66759653  1
  O  O151  1  0.37475383  0.25016961  0.91655302  1
  O  O152  1  0.37078144  0.49689720  0.16413727  1
  O  O153  1  0.38204142  0.49126584  0.41108707  1
  O  O154  1  0.37920793  0.49094964  0.66468727  1
  O  O155  1  0.37043847  0.50952339  0.91452589  1
  O  O156  1  0.36716079  0.75760140  0.16715294  1
  O  O157  1  0.37929683  0.75336554  0.40876983  1
  O  O158  1  0.37705031  0.74384266  0.64929347  1
  O  O159  1  0.37048483  0.74689236  0.91478028  1
  O  O160  1  0.62701376  -0.00545371  0.16819218  1
  O  O161  1  0.61960167  -0.00614043  0.40645678  1
  O  O162  1  0.61825130  0.01195912  0.65964365  1
  O  O163  1  0.62633195  0.00561010  0.91695197  1
  O  O164  1  0.63026247  0.25776681  0.16300265  1
  O  O165  1  0.62214639  0.25750240  0.40576118  1
  O  O166  1  0.62080743  0.25163148  0.66963324  1
  O  O167  1  0.62878868  0.24211312  0.91621248  1
  O  O168  1  0.63112053  0.49286503  0.16099467  1
  O  O169  1  0.62213385  0.49910482  0.41362543  1
  O  O170  1  0.62138416  0.48822132  0.66603406  1
  O  O171  1  0.62657905  0.50454983  0.91385227  1
  O  O172  1  0.62771312  0.75173022  0.16734846  1
  O  O173  1  0.62088712  0.75130160  0.41527203  1
  O  O174  1  0.61919818  0.74944472  0.66081893  1
  O  O175  1  0.62334640  0.74848682  0.91255869  1
  O  O176  1  0.88060907  0.00209300  0.16995257  1
  O  O177  1  0.87288346  -0.00038269  0.41525387  1
  O  O178  1  0.87150773  0.00348049  0.65438783  1
  O  O179  1  0.87547669  0.00843466  0.91217677  1
  O  O180  1  0.87830626  0.24515909  0.17064704  1
  O  O181  1  0.87048476  0.25529546  0.41120082  1
  O  O182  1  0.86888550  0.25660407  0.66048242  1
  O  O183  1  0.87415250  0.24259484  0.91562331  1
  O  O184  1  0.87845610  0.50104145  0.16867955  1
  O  O185  1  0.87145256  0.50426356  0.41663358  1
  O  O186  1  0.86979992  0.48875685  0.66048630  1
  O  O187  1  0.87823543  0.50742817  0.91294565  1
  O  O188  1  0.87970512  0.75003545  0.17058508  1
  O  O189  1  0.87134814  0.74150222  0.41931634  1
  O  O190  1  0.87447539  0.74976224  0.65364264  1
  O  O191  1  0.87985310  0.74201088  0.90709224  1
  O  O192  1  -0.00058162  0.12464538  0.17535516  1
  O  O193  1  0.00119607  0.12731361  0.41383692  1
  O  O194  1  -0.00180100  0.12988398  0.65174523  1
  O  O195  1  -0.00511330  0.12677776  0.90986915  1
  O  O196  1  0.00309395  0.37282152  0.17625842  1
  O  O197  1  0.00145572  0.37686926  0.40819238  1
  O  O198  1  -0.00591096  0.37370723  0.65057703  1
  O  O199  1  0.00326262  0.37667457  0.91649471  1
  O  O200  1  -0.00208439  0.62509346  0.17473479  1
  O  O201  1  -0.00474336  0.62419947  0.41524565  1
  O  O202  1  0.00017296  0.61863878  0.65684872  1
  O  O203  1  0.00043353  0.62388005  0.91322349  1
  O  O204  1  0.00104496  0.87529003  0.17528345  1
  O  O205  1  0.00474212  0.87224931  0.41760972  1
  O  O206  1  0.00251440  0.87619457  0.64630195  1
  O  O207  1  -0.00054530  0.87423933  0.91252490  1
  O  O208  1  0.24332811  0.12392842  0.16772957  1
  O  O209  1  0.26538647  0.12896685  0.41626247  1
  O  O210  1  0.26140266  0.13389226  0.65652169  1
  O  O211  1  0.24714587  0.12593103  0.91442913  1
  O  O212  1  0.23702980  0.37478595  0.16247567  1
  O  O213  1  0.26021012  0.37504647  0.40939830  1
  O  O214  1  0.25987921  0.37208976  0.65948596  1
  O  O215  1  0.23938013  0.37801366  0.91412383  1
  O  O216  1  0.24091254  0.62438436  0.16946949  1
  O  O217  1  0.25631985  0.62202820  0.41559358  1
  O  O218  1  0.26268419  0.61543771  0.65978136  1
  O  O219  1  0.24837788  0.62540879  0.91522643  1
  O  O220  1  0.24465319  0.87456883  0.17001095  1
  O  O221  1  0.26221152  0.87879978  0.41430951  1
  O  O222  1  0.25544908  0.87623693  0.65958076  1
  O  O223  1  0.25703054  0.87148355  0.91503712  1
  O  O224  1  0.49642635  0.12287495  0.16229438  1
  O  O225  1  0.49627067  0.13018427  0.41219598  1
  O  O226  1  0.50085700  0.13254598  0.66947623  1
  O  O227  1  0.50692182  0.12393772  0.91244944  1
  O  O228  1  0.50752988  0.37503196  0.15335981  1
  O  O229  1  0.50405017  0.37626693  0.41402471  1
  O  O230  1  0.50064318  0.37183224  0.66921602  1
  O  O231  1  0.50287086  0.37685484  0.91812579  1
  O  O232  1  0.50086921  0.62545332  0.16142141  1
  O  O233  1  0.50347644  0.62387321  0.41521960  1
  O  O234  1  0.48884668  0.61678108  0.66862032  1
  O  O235  1  0.49127903  0.62674830  0.90678993  1
  O  O236  1  0.49047485  0.87384382  0.15760890  1
  O  O237  1  0.49956219  0.87485448  0.41451068  1
  O  O238  1  0.49720980  0.87896619  0.66833123  1
  O  O239  1  0.48939296  0.87133613  0.91427423  1
  O  O240  1  0.75912971  0.12325767  0.16666593  1
  O  O241  1  0.74204033  0.12491126  0.41063758  1
  O  O242  1  0.73955900  0.13191859  0.65894438  1
  O  O243  1  0.75159207  0.12389802  0.91494652  1
  O  O244  1  0.75221180  0.37388695  0.16660976  1
  O  O245  1  0.73893373  0.37978033  0.41043799  1
  O  O246  1  0.74470336  0.37173759  0.66244483  1
  O  O247  1  0.75303968  0.37459661  0.92202532  1
  O  O248  1  0.75744092  0.62559082  0.16668444  1
  O  O249  1  0.74578724  0.62465487  0.41804212  1
  O  O250  1  0.75014668  0.62030450  0.66311496  1
  O  O251  1  0.75870768  0.62558787  0.90173674  1
  O  O252  1  0.75926068  0.87556290  0.16567325  1
  O  O253  1  0.73946648  0.87134007  0.41220538  1
  O  O254  1  0.74589545  0.87729806  0.65600213  1
  O  O255  1  0.75269535  0.87588779  0.91268070  1
  O  O256  1  0.11914077  0.12497349  0.05242140  1
  O  O257  1  0.13314289  0.12707365  0.29721750  1
  O  O258  1  0.13238132  0.13524295  0.52375560  1
  O  O259  1  0.12825833  0.12935258  0.78043016  1
  O  O260  1  0.11353875  0.37356095  0.05304175  1
  O  O261  1  0.12605708  0.37599118  0.30224559  1
  O  O262  1  0.13495314  0.37434511  0.52765861  1
  O  O263  1  0.12489844  0.37660911  0.79739856  1
  O  O264  1  0.11869486  0.62697159  0.05553425  1
  O  O265  1  0.12886933  0.62204065  0.29438794  1
  O  O266  1  0.12839786  0.61646784  0.52684296  1
  O  O267  1  0.12586174  0.62201107  0.79349433  1
  O  O268  1  0.12335148  0.87471673  0.05193682  1
  O  O269  1  0.12758542  0.87597115  0.31039740  1
  O  O270  1  0.14160568  0.87254353  0.52274705  1
  O  O271  1  0.13445669  0.87387984  0.78144212  1
  O  O272  1  0.36999619  0.12231361  0.03378858  1
  O  O273  1  0.37574568  0.12513069  0.29618591  1
  O  O274  1  0.38671852  0.13278410  0.54961090  1
  O  O275  1  0.37309672  0.13331174  0.78628846  1
  O  O276  1  0.36752040  0.38011211  0.03008501  1
  O  O277  1  0.37681556  0.37369796  0.29545040  1
  O  O278  1  0.38363042  0.37258490  0.55002701  1
  O  O279  1  0.37751486  0.37832534  0.79270874  1
  O  O280  1  0.36328722  0.62765436  0.04066078  1
  O  O281  1  0.37372286  0.61985764  0.28253533  1
  O  O282  1  0.38278927  0.61766599  0.54441977  1
  O  O283  1  0.36745221  0.62902576  0.79779303  1
  O  O284  1  0.36633994  0.87266202  0.04875905  1
  O  O285  1  0.37626384  0.87512081  0.30062840  1
  O  O286  1  0.38320994  0.88246148  0.53040216  1
  O  O287  1  0.37374409  0.87427457  0.79650100  1
  O  O288  1  0.62784726  0.11538478  0.04357230  1
  O  O289  1  0.62325769  0.12389519  0.27695017  1
  O  O290  1  0.61906757  0.13211107  0.54814233  1
  O  O291  1  0.62813097  0.12347863  0.80000985  1
  O  O292  1  0.63309593  0.37475529  0.04506812  1
  O  O293  1  0.62144443  0.37911348  0.29461165  1
  O  O294  1  0.62162442  0.36928144  0.55298410  1
  O  O295  1  0.63277913  0.37555770  0.78794030  1
  O  O296  1  0.62864205  0.63119961  0.03547128  1
  O  O297  1  0.62486228  0.62584179  0.29716436  1
  O  O298  1  0.62072217  0.61602330  0.54365280  1
  O  O299  1  0.62167230  0.62464566  0.77742202  1
  O  O300  1  0.62910925  0.87425536  0.03263486  1
  O  O301  1  0.62232021  0.87034338  0.29858217  1
  O  O302  1  0.61343487  0.87543420  0.53338804  1
  O  O303  1  0.61722347  0.87941876  0.78774935  1
  O  O304  1  0.88171815  0.12427221  0.05743173  1
  O  O305  1  0.87679125  0.12310828  0.28775591  1
  O  O306  1  0.86805450  0.12963480  0.52773822  1
  O  O307  1  0.87244802  0.12615254  0.79556615  1
  O  O308  1  0.88257442  0.37222834  0.05765438  1
  O  O309  1  0.86798986  0.37937380  0.28352334  1
  O  O310  1  0.86864566  0.37352291  0.54377619  1
  O  O311  1  0.86830238  0.37274500  0.78663403  1
  O  O312  1  0.87870972  0.62694851  0.04997194  1
  O  O313  1  0.87193233  0.62505410  0.30620587  1
  O  O314  1  0.87276395  0.62002974  0.53065396  1
  O  O315  1  0.88266044  0.62179178  0.79142697  1
  O  O316  1  0.88269935  0.87454163  0.05248802  1
  O  O317  1  0.87948193  0.86919898  0.29650656  1
  O  O318  1  0.86969831  0.87082463  0.52318328  1
  O  O319  1  0.87389897  0.88135326  0.77988634  1
