# generated using pymatgen
data_VFe(PbO3)2
_symmetry_space_group_name_H-M   'P 1'
_cell_length_a   15.37255461
_cell_length_b   15.37969638
_cell_length_c   18.54522921
_cell_angle_alpha   90.03591653
_cell_angle_beta   90.01068931
_cell_angle_gamma   90.00101400
_symmetry_Int_Tables_number   1
_chemical_formula_structural   VFe(PbO3)2
_chemical_formula_sum   'V32 Fe32 Pb64 O192'
_cell_volume   4384.55900271
_cell_formula_units_Z   32
loop_
 _symmetry_equiv_pos_site_id
 _symmetry_equiv_pos_as_xyz
  1  'x, y, z'
loop_
 _atom_site_type_symbol
 _atom_site_label
 _atom_site_symmetry_multiplicity
 _atom_site_fract_x
 _atom_site_fract_y
 _atom_site_fract_z
 _atom_site_occupancy
  V  V0  1  0.62568092  0.62700435  0.64267504  1
  V  V1  1  0.86946352  0.12543863  0.63651684  1
  V  V2  1  0.12414415  0.12093718  0.14177943  1
  V  V3  1  0.37544137  0.12676672  0.89087962  1
  V  V4  1  0.37006785  0.12571000  0.14210743  1
  V  V5  1  0.62931102  0.12612901  0.89070286  1
  V  V6  1  0.62488577  0.37746685  0.64348175  1
  V  V7  1  0.87632171  0.37537622  0.13664632  1
  V  V8  1  0.87430465  0.37528298  0.39161069  1
  V  V9  1  0.87519337  0.37529607  0.88930803  1
  V  V10  1  0.12659018  0.62577132  0.64349505  1
  V  V11  1  0.62650814  0.62560387  0.38787439  1
  V  V12  1  0.62807651  0.62378958  0.88978402  1
  V  V13  1  0.12524652  0.87334652  0.14193726  1
  V  V14  1  0.12595035  0.12268161  0.64079123  1
  V  V15  1  0.37327639  0.87438329  0.64561311  1
  V  V16  1  0.87964641  0.12787052  0.88781485  1
  V  V17  1  0.12661800  0.37090009  0.88957530  1
  V  V18  1  0.37997060  0.12604406  0.63940341  1
  V  V19  1  0.38237857  0.37385847  0.90257723  1
  V  V20  1  0.12638380  0.87902777  0.88392211  1
  V  V21  1  0.37625364  0.37503944  0.38735588  1
  V  V22  1  0.87859103  0.63015250  0.13562829  1
  V  V23  1  0.12415233  0.12612696  0.39035494  1
  V  V24  1  0.62365146  0.87390969  0.38420997  1
  V  V25  1  0.37492316  0.87767583  0.13799838  1
  V  V26  1  0.87291442  0.62571571  0.64634785  1
  V  V27  1  0.62488564  0.87588483  0.64224203  1
  V  V28  1  0.12302679  0.62248395  0.38671744  1
  V  V29  1  0.12512875  0.87241643  0.64107310  1
  V  V30  1  0.62347016  0.38036360  0.38388232  1
  V  V31  1  0.87748661  0.12450920  0.14270389  1
  Fe  Fe32  1  0.12474290  0.87148126  0.38446112  1
  Fe  Fe33  1  0.87688567  0.87516018  0.64238928  1
  Fe  Fe34  1  0.37340708  0.12552065  0.38201589  1
  Fe  Fe35  1  0.12615876  0.12477347  0.88120224  1
  Fe  Fe36  1  0.37863597  0.62518145  0.64153713  1
  Fe  Fe37  1  0.37605039  0.87855717  0.88320533  1
  Fe  Fe38  1  0.37525848  0.62416447  0.38310499  1
  Fe  Fe39  1  0.37419730  0.37583139  0.63733514  1
  Fe  Fe40  1  0.87470761  0.62487723  0.88344014  1
  Fe  Fe41  1  0.12200442  0.62457281  0.88979524  1
  Fe  Fe42  1  0.37473034  0.62493611  0.89234968  1
  Fe  Fe43  1  0.37498843  0.87305611  0.38260207  1
  Fe  Fe44  1  0.87477580  0.87285035  0.38477561  1
  Fe  Fe45  1  0.62462647  0.12884989  0.38116596  1
  Fe  Fe46  1  0.37262967  0.37377275  0.12317573  1
  Fe  Fe47  1  0.62368070  0.12511135  0.63463821  1
  Fe  Fe48  1  0.12575646  0.37689260  0.63505929  1
  Fe  Fe49  1  0.62675422  0.87546917  0.13140857  1
  Fe  Fe50  1  0.87477189  0.62193405  0.38326961  1
  Fe  Fe51  1  0.87471389  0.87770763  0.88173970  1
  Fe  Fe52  1  0.87584456  0.12722824  0.38434409  1
  Fe  Fe53  1  0.87680854  0.37566192  0.63643939  1
  Fe  Fe54  1  0.62830980  0.37281394  0.89797798  1
  Fe  Fe55  1  0.62592807  0.62662305  0.13037507  1
  Fe  Fe56  1  0.12626992  0.37604931  0.38610031  1
  Fe  Fe57  1  0.62482433  0.12360891  0.14089108  1
  Fe  Fe58  1  0.62449420  0.87687455  0.89035427  1
  Fe  Fe59  1  0.12265278  0.37315219  0.13736271  1
  Fe  Fe60  1  0.12312350  0.62629365  0.12809647  1
  Fe  Fe61  1  0.37163953  0.62604283  0.12505615  1
  Fe  Fe62  1  0.62558520  0.37488382  0.12915822  1
  Fe  Fe63  1  0.87704132  0.87908340  0.13658315  1
  Pb  Pb64  1  -0.00546994  -0.00621661  -0.00130940  1
  Pb  Pb65  1  -0.00145219  -0.00827769  0.25848284  1
  Pb  Pb66  1  -0.00712840  -0.00580314  0.49745789  1
  Pb  Pb67  1  0.00105945  0.00248237  0.74796574  1
  Pb  Pb68  1  0.00489475  0.25396604  0.00284003  1
  Pb  Pb69  1  -0.00162158  0.24717235  0.25389419  1
  Pb  Pb70  1  0.00247630  0.25828486  0.50277550  1
  Pb  Pb71  1  0.00376608  0.24916373  0.74444245  1
  Pb  Pb72  1  0.00773453  0.50270539  0.00135247  1
  Pb  Pb73  1  0.00339144  0.50220928  0.24763720  1
  Pb  Pb74  1  0.00027044  0.49423394  0.50241488  1
  Pb  Pb75  1  0.00072105  0.50644382  0.75380343  1
  Pb  Pb76  1  -0.00183445  0.74865680  -0.00676350  1
  Pb  Pb77  1  -0.00117553  0.75907902  0.25348507  1
  Pb  Pb78  1  -0.00595414  0.75344717  0.49826456  1
  Pb  Pb79  1  -0.00061583  0.74213276  0.75710690  1
  Pb  Pb80  1  0.24939658  0.00160490  -0.00242077  1
  Pb  Pb81  1  0.25579206  -0.00283602  0.25767175  1
  Pb  Pb82  1  0.25245325  -0.00277689  0.49382422  1
  Pb  Pb83  1  0.25135338  0.00049151  0.75043578  1
  Pb  Pb84  1  0.24626000  0.25673865  0.00390929  1
  Pb  Pb85  1  0.24590340  0.25937140  0.25027266  1
  Pb  Pb86  1  0.24981244  0.25881089  0.50111130  1
  Pb  Pb87  1  0.24842014  0.24884462  0.74735557  1
  Pb  Pb88  1  0.24982209  0.50291964  0.00154987  1
  Pb  Pb89  1  0.24865033  0.50094093  0.23589227  1
  Pb  Pb90  1  0.25363823  0.49733985  0.50089135  1
  Pb  Pb91  1  0.25503108  0.50371152  0.75344533  1
  Pb  Pb92  1  0.25224205  0.74255805  -0.00584686  1
  Pb  Pb93  1  0.25698531  0.74599963  0.24897807  1
  Pb  Pb94  1  0.25393686  0.74501883  0.49509633  1
  Pb  Pb95  1  0.25441405  0.74020640  0.75780324  1
  Pb  Pb96  1  0.50834518  -0.00042892  0.00276541  1
  Pb  Pb97  1  0.49726429  0.00413495  0.25071460  1
  Pb  Pb98  1  0.50217048  0.00579030  0.49373860  1
  Pb  Pb99  1  0.50179124  -0.00757095  0.75492983  1
  Pb  Pb100  1  0.50714173  0.24332431  0.00923415  1
  Pb  Pb101  1  0.50469023  0.24948005  0.24278183  1
  Pb  Pb102  1  0.50310252  0.24683350  0.49608571  1
  Pb  Pb103  1  0.50736491  0.26042343  0.75661408  1
  Pb  Pb104  1  0.50364055  0.51074707  0.00608196  1
  Pb  Pb105  1  0.49463811  0.50214018  0.23188809  1
  Pb  Pb106  1  0.48932090  0.50072478  0.50307063  1
  Pb  Pb107  1  0.49379051  0.50521048  0.75670219  1
  Pb  Pb108  1  0.50110274  0.75102610  -0.00531580  1
  Pb  Pb109  1  0.49274938  0.74399163  0.24277429  1
  Pb  Pb110  1  0.49415615  0.74322958  0.49939249  1
  Pb  Pb111  1  0.49731169  0.75525338  0.75712955  1
  Pb  Pb112  1  0.75127611  -0.00918367  0.00475538  1
  Pb  Pb113  1  0.74671538  0.00027783  0.24787018  1
  Pb  Pb114  1  0.75123589  0.00171571  0.49407828  1
  Pb  Pb115  1  0.74913228  -0.00662131  0.75357663  1
  Pb  Pb116  1  0.74289873  0.24504034  0.00709519  1
  Pb  Pb117  1  0.74887069  0.24337445  0.25041028  1
  Pb  Pb118  1  0.74505286  0.24556185  0.49762205  1
  Pb  Pb119  1  0.74404178  0.25797999  0.75321990  1
  Pb  Pb120  1  0.74134790  0.50247294  0.00394160  1
  Pb  Pb121  1  0.75507300  0.50542260  0.24497709  1
  Pb  Pb122  1  0.75274305  0.49432314  0.50130482  1
  Pb  Pb123  1  0.75096844  0.50249508  0.75464547  1
  Pb  Pb124  1  0.75298325  0.75854681  -0.00426605  1
  Pb  Pb125  1  0.75125609  0.75536141  0.24268022  1
  Pb  Pb126  1  0.75645724  0.75449283  0.49990917  1
  Pb  Pb127  1  0.75116023  0.76051203  0.75728062  1
  O  O128  1  0.12380430  0.00373670  0.16967782  1
  O  O129  1  0.12435417  0.00677492  0.41245318  1
  O  O130  1  0.12745958  -0.00159260  0.66694026  1
  O  O131  1  0.12532161  -0.00222222  0.91184489  1
  O  O132  1  0.12478127  0.23879267  0.16515101  1
  O  O133  1  0.12551887  0.24697284  0.41677813  1
  O  O134  1  0.12682518  0.24487961  0.66274379  1
  O  O135  1  0.12155777  0.25086135  0.91429984  1
  O  O136  1  0.12162204  0.50067759  0.15901843  1
  O  O137  1  0.12531881  0.50454961  0.41388965  1
  O  O138  1  0.12406911  0.50850767  0.66407420  1
  O  O139  1  0.11880282  0.48814457  0.91067902  1
  O  O140  1  0.12017522  0.75715033  0.15675993  1
  O  O141  1  0.12438518  0.74029489  0.41340378  1
  O  O142  1  0.12437223  0.74726013  0.66915382  1
  O  O143  1  0.12312470  0.76166147  0.90932898  1
  O  O144  1  0.36812769  -0.00219467  0.16701785  1
  O  O145  1  0.37629405  -0.00098885  0.41398986  1
  O  O146  1  0.37612916  0.00339030  0.66657112  1
  O  O147  1  0.37521753  0.00882468  0.91520160  1
  O  O148  1  0.37055769  0.24206095  0.15723435  1
  O  O149  1  0.37489901  0.25650061  0.41065055  1
  O  O150  1  0.37585448  0.24325798  0.66300539  1
  O  O151  1  0.37375780  0.24471719  0.92008348  1
  O  O152  1  0.37213122  0.49934458  0.15005496  1
  O  O153  1  0.37696503  0.49631682  0.41248703  1
  O  O154  1  0.37630997  0.50019504  0.67194782  1
  O  O155  1  0.37194446  0.49066326  0.91332112  1
  O  O156  1  0.36909899  0.75913003  0.15625169  1
  O  O157  1  0.37774975  0.74809502  0.41652052  1
  O  O158  1  0.37705894  0.75271872  0.66947400  1
  O  O159  1  0.37470554  0.75331977  0.91090601  1
  O  O160  1  0.62456140  -0.00119712  0.16660844  1
  O  O161  1  0.62512213  -0.00781396  0.40418183  1
  O  O162  1  0.62425080  -0.00462932  0.66275880  1
  O  O163  1  0.62255244  0.01095631  0.91295111  1
  O  O164  1  0.62605028  0.25104997  0.16352497  1
  O  O165  1  0.62429450  0.25937312  0.41167626  1
  O  O166  1  0.62482483  0.25540479  0.66596215  1
  O  O167  1  0.62327976  0.24218570  0.92074380  1
  O  O168  1  0.62812771  0.49989316  0.15885457  1
  O  O169  1  0.62442277  0.50025815  0.41543394  1
  O  O170  1  0.62751473  0.49792582  0.66808634  1
  O  O171  1  0.62837488  0.50199844  0.91399332  1
  O  O172  1  0.62764158  0.75075443  0.16079823  1
  O  O173  1  0.62613627  0.74561023  0.41115342  1
  O  O174  1  0.62564747  0.75335253  0.66787577  1
  O  O175  1  0.62665731  0.74355318  0.90922793  1
  O  O176  1  0.87920362  0.00832404  0.16551884  1
  O  O177  1  0.87421100  -0.00010370  0.41274605  1
  O  O178  1  0.87470468  0.00773269  0.66340644  1
  O  O179  1  0.87244495  0.01120112  0.91207699  1
  O  O180  1  0.87890845  0.24836523  0.16328979  1
  O  O181  1  0.87444484  0.25785154  0.41492936  1
  O  O182  1  0.87675245  0.24268631  0.66149019  1
  O  O183  1  0.87475614  0.24389581  0.91783843  1
  O  O184  1  0.87728052  0.49515753  0.15797082  1
  O  O185  1  0.87354047  0.49573945  0.41743051  1
  O  O186  1  0.87377626  0.50548492  0.66747325  1
  O  O187  1  0.87758108  0.48943472  0.90892097  1
  O  O188  1  0.87880081  0.74643467  0.15445235  1
  O  O189  1  0.87254093  0.74632822  0.41568304  1
  O  O190  1  0.87361813  0.74422887  0.66722947  1
  O  O191  1  0.87487256  0.75195929  0.90777374  1
  O  O192  1  0.00261968  0.12514029  0.16612717  1
  O  O193  1  0.00539040  0.12813884  0.41634392  1
  O  O194  1  -0.00191469  0.12261374  0.66184284  1
  O  O195  1  -0.00419221  0.12494053  0.90940693  1
  O  O196  1  -0.00713756  0.37077322  0.16565804  1
  O  O197  1  -0.00477641  0.37654260  0.41335322  1
  O  O198  1  0.00110289  0.37511961  0.66576607  1
  O  O199  1  -0.00384837  0.36609328  0.91387135  1
  O  O200  1  -0.00593662  0.62181615  0.16099608  1
  O  O201  1  0.00462425  0.62163361  0.41312075  1
  O  O202  1  -0.00103159  0.62671539  0.66571625  1
  O  O203  1  -0.00291814  0.62351396  0.91677841  1
  O  O204  1  0.00523246  0.88058399  0.16572088  1
  O  O205  1  0.00138177  0.87291944  0.41763654  1
  O  O206  1  0.00558168  0.87543130  0.66554604  1
  O  O207  1  0.00438051  0.88190608  0.90783180  1
  O  O208  1  0.24684190  0.12044371  0.16590926  1
  O  O209  1  0.24467096  0.12683083  0.41512372  1
  O  O210  1  0.25569024  0.12251680  0.66428448  1
  O  O211  1  0.25449994  0.12620201  0.91214118  1
  O  O212  1  0.24959998  0.37002154  0.16074768  1
  O  O213  1  0.25643580  0.37670092  0.41276356  1
  O  O214  1  0.24957290  0.37456332  0.66834903  1
  O  O215  1  0.24227505  0.36935325  0.91165541  1
  O  O216  1  0.24731581  0.62989472  0.15557767  1
  O  O217  1  0.24492167  0.62314263  0.41153805  1
  O  O218  1  0.24535495  0.62764312  0.66541772  1
  O  O219  1  0.24645211  0.62239995  0.91266811  1
  O  O220  1  0.24485429  0.87896282  0.16420964  1
  O  O221  1  0.24850450  0.87313526  0.41506767  1
  O  O222  1  0.24898181  0.87446009  0.66957013  1
  O  O223  1  0.24472733  0.87980556  0.90954650  1
  O  O224  1  0.48945361  0.12054363  0.16141901  1
  O  O225  1  0.50013436  0.12699433  0.41295897  1
  O  O226  1  0.49559710  0.12371908  0.66366425  1
  O  O227  1  0.49774480  0.12803431  0.91606516  1
  O  O228  1  0.49740587  0.37139875  0.15085269  1
  O  O229  1  0.49720836  0.37696987  0.41056243  1
  O  O230  1  0.50591894  0.37626260  0.66870111  1
  O  O231  1  0.49722600  0.37015816  0.91766760  1
  O  O232  1  0.49725153  0.62862538  0.15507888  1
  O  O233  1  0.50833828  0.62347561  0.41412487  1
  O  O234  1  0.50755957  0.62494789  0.67133882  1
  O  O235  1  0.50711890  0.62076896  0.91148458  1
  O  O236  1  0.49080293  0.87861099  0.15460614  1
  O  O237  1  0.50872602  0.87068879  0.41145219  1
  O  O238  1  0.50376357  0.87504780  0.66798289  1
  O  O239  1  0.49962063  0.87907287  0.91605351  1
  O  O240  1  0.75860050  0.12701044  0.16173435  1
  O  O241  1  0.74888479  0.12796906  0.41344431  1
  O  O242  1  0.75350933  0.12575032  0.66008057  1
  O  O243  1  0.74732908  0.12855062  0.90968140  1
  O  O244  1  0.76084505  0.37157289  0.16105900  1
  O  O245  1  0.75045339  0.37804287  0.41288622  1
  O  O246  1  0.74620574  0.37508395  0.66724778  1
  O  O247  1  0.76039469  0.36703728  0.91561874  1
  O  O248  1  0.76025526  0.62237650  0.15936123  1
  O  O249  1  0.74268096  0.62094347  0.41501485  1
  O  O250  1  0.75055478  0.62493072  0.66996277  1
  O  O251  1  0.74771242  0.62197869  0.91241573  1
  O  O252  1  0.75309943  0.87734000  0.16355464  1
  O  O253  1  0.74177521  0.87068514  0.41225660  1
  O  O254  1  0.74445430  0.87521155  0.66526372  1
  O  O255  1  0.75072614  0.88051252  0.91444959  1
  O  O256  1  0.12460554  0.11844568  0.05077984  1
  O  O257  1  0.12360576  0.12892023  0.29939651  1
  O  O258  1  0.12659019  0.12099488  0.55009057  1
  O  O259  1  0.12599465  0.12436856  0.78207907  1
  O  O260  1  0.11914072  0.36650516  0.03679829  1
  O  O261  1  0.12830066  0.37079335  0.28651128  1
  O  O262  1  0.12535063  0.37427817  0.53419414  1
  O  O263  1  0.12411871  0.36902985  0.79858791  1
  O  O264  1  0.11855730  0.62430859  0.02757975  1
  O  O265  1  0.12183436  0.62197412  0.29555137  1
  O  O266  1  0.12465495  0.62797610  0.55310660  1
  O  O267  1  0.11711477  0.62751441  0.78864644  1
  O  O268  1  0.12431520  0.88342981  0.05135912  1
  O  O269  1  0.11567343  0.87102630  0.28488343  1
  O  O270  1  0.12718827  0.87156276  0.55043349  1
  O  O271  1  0.12703015  0.87990050  0.79299963  1
  O  O272  1  0.36741622  0.11789789  0.05132862  1
  O  O273  1  0.37261952  0.11880984  0.28281963  1
  O  O274  1  0.37853008  0.12430217  0.54842630  1
  O  O275  1  0.37844021  0.12868724  0.80015819  1
  O  O276  1  0.36218081  0.37003670  0.02158955  1
  O  O277  1  0.37470799  0.37550238  0.29666794  1
  O  O278  1  0.37407869  0.38144168  0.53791523  1
  O  O279  1  0.37723545  0.36626620  0.81073207  1
  O  O280  1  0.37467621  0.62400608  0.02307530  1
  O  O281  1  0.37634399  0.63354253  0.28359285  1
  O  O282  1  0.38378002  0.62256394  0.54125862  1
  O  O283  1  0.37270866  0.62138085  0.79016770  1
  O  O284  1  0.36652959  0.88384014  0.04741118  1
  O  O285  1  0.37080657  0.87128845  0.28275839  1
  O  O286  1  0.37627728  0.87580844  0.55476511  1
  O  O287  1  0.38267414  0.88115568  0.78299868  1
  O  O288  1  0.62214835  0.12802708  0.03985665  1
  O  O289  1  0.62352652  0.13095395  0.28031574  1
  O  O290  1  0.62144357  0.12853230  0.53553302  1
  O  O291  1  0.62485979  0.13031273  0.79932132  1
  O  O292  1  0.63484029  0.37116014  0.02734130  1
  O  O293  1  0.62394946  0.38008895  0.29327989  1
  O  O294  1  0.62435031  0.37815126  0.55281249  1
  O  O295  1  0.62734332  0.36277994  0.79719886  1
  O  O296  1  0.62675533  0.61872471  0.03034732  1
  O  O297  1  0.62678698  0.62365956  0.29732082  1
  O  O298  1  0.62629597  0.62564738  0.55208985  1
  O  O299  1  0.62860549  0.62118744  0.79836064  1
  O  O300  1  0.62901704  0.88086032  0.03016404  1
  O  O301  1  0.62503024  0.86911507  0.29342136  1
  O  O302  1  0.62291066  0.87308908  0.55172720  1
  O  O303  1  0.62719048  0.88054467  0.78915049  1
  O  O304  1  0.88050994  0.12355896  0.05174314  1
  O  O305  1  0.87690017  0.13523659  0.28524472  1
  O  O306  1  0.87124497  0.12490348  0.54518889  1
  O  O307  1  0.87618627  0.12948298  0.79703284  1
  O  O308  1  0.87886357  0.37187530  0.04579363  1
  O  O309  1  0.87416498  0.37657387  0.30079918  1
  O  O310  1  0.87583208  0.38045962  0.53717785  1
  O  O311  1  0.87412716  0.36945360  0.79796002  1
  O  O312  1  0.87889618  0.62483007  0.04442744  1
  O  O313  1  0.87402391  0.61686863  0.28448676  1
  O  O314  1  0.87159804  0.62384898  0.55539754  1
  O  O315  1  0.88018345  0.61983278  0.78366376  1
  O  O316  1  0.87589385  0.88701039  0.03593786  1
  O  O317  1  0.88363983  0.87124499  0.28417909  1
  O  O318  1  0.87292998  0.87163898  0.54235485  1
  O  O319  1  0.86616371  0.88063183  0.78047464  1
