# generated using pymatgen
data_VFe(PbO3)2
_symmetry_space_group_name_H-M   'P 1'
_cell_length_a   15.39622371
_cell_length_b   15.38149975
_cell_length_c   18.49414818
_cell_angle_alpha   89.96460263
_cell_angle_beta   89.99714000
_cell_angle_gamma   89.99687404
_symmetry_Int_Tables_number   1
_chemical_formula_structural   VFe(PbO3)2
_chemical_formula_sum   'V32 Fe32 Pb64 O192'
_cell_volume   4379.72804773
_cell_formula_units_Z   32
loop_
 _symmetry_equiv_pos_site_id
 _symmetry_equiv_pos_as_xyz
  1  'x, y, z'
loop_
 _atom_site_type_symbol
 _atom_site_label
 _atom_site_symmetry_multiplicity
 _atom_site_fract_x
 _atom_site_fract_y
 _atom_site_fract_z
 _atom_site_occupancy
  V  V0  1  0.62352526  0.12392559  0.13936551  1
  V  V1  1  0.62365741  0.37030468  0.89206504  1
  V  V2  1  0.87417738  0.12319412  0.13536440  1
  V  V3  1  0.62617514  0.87090093  0.88946491  1
  V  V4  1  0.87561550  0.37903184  0.89740019  1
  V  V5  1  0.87567305  0.62242094  0.14334060  1
  V  V6  1  0.87320155  0.62849396  0.89183926  1
  V  V7  1  0.38138967  0.87662230  0.14262314  1
  V  V8  1  0.12095227  0.36949791  0.38662990  1
  V  V9  1  0.12731450  0.12499114  0.64430497  1
  V  V10  1  0.11963205  0.37448226  0.13469758  1
  V  V11  1  0.62000245  0.12692518  0.39113496  1
  V  V12  1  0.37558730  0.62100293  0.63354172  1
  V  V13  1  0.12889023  0.87641721  0.14020971  1
  V  V14  1  0.62406125  0.62105032  0.63334714  1
  V  V15  1  0.62640582  0.62210744  0.89543555  1
  V  V16  1  0.62685269  0.12011004  0.88730498  1
  V  V17  1  0.12331884  0.12542227  0.38870023  1
  V  V18  1  0.87562177  0.37139819  0.38758058  1
  V  V19  1  0.87684135  0.12345731  0.39539322  1
  V  V20  1  0.87714347  0.87151553  0.39224351  1
  V  V21  1  0.62600508  0.37652849  0.14435204  1
  V  V22  1  0.87574475  0.87227958  0.88893474  1
  V  V23  1  0.37751641  0.12860659  0.64006916  1
  V  V24  1  0.87522551  0.62289763  0.63649174  1
  V  V25  1  0.12915381  0.37812377  0.89038801  1
  V  V26  1  0.37020280  0.37389776  0.14187890  1
  V  V27  1  0.12817885  0.37490611  0.64302577  1
  V  V28  1  0.87678967  0.37769858  0.64101267  1
  V  V29  1  0.12784897  0.87265347  0.88597522  1
  V  V30  1  0.62180191  0.37429642  0.63895965  1
  V  V31  1  0.87726454  0.87367642  0.14086419  1
  Fe  Fe32  1  0.37429744  0.62471469  0.37463856  1
  Fe  Fe33  1  0.12158148  0.87893274  0.38713164  1
  Fe  Fe34  1  0.37396758  0.62644083  0.14864785  1
  Fe  Fe35  1  0.87581956  0.62296344  0.38251774  1
  Fe  Fe36  1  0.37340350  0.37042520  0.37946172  1
  Fe  Fe37  1  0.62631184  0.62747181  0.14590029  1
  Fe  Fe38  1  0.12222552  0.62383431  0.38241724  1
  Fe  Fe39  1  0.37684591  0.37800858  0.88789583  1
  Fe  Fe40  1  0.62872548  0.62365049  0.37744743  1
  Fe  Fe41  1  0.37336219  0.87927408  0.38001767  1
  Fe  Fe42  1  0.87272013  0.37316892  0.13114310  1
  Fe  Fe43  1  0.87634791  0.87376749  0.63075684  1
  Fe  Fe44  1  0.12354000  0.62565427  0.14199957  1
  Fe  Fe45  1  0.37755400  0.12496774  0.89052798  1
  Fe  Fe46  1  0.12326674  0.62524511  0.88872038  1
  Fe  Fe47  1  0.62351186  0.12588080  0.63124647  1
  Fe  Fe48  1  0.12567516  0.87315783  0.63272551  1
  Fe  Fe49  1  0.37387252  0.12474410  0.13776686  1
  Fe  Fe50  1  0.37863175  0.87242905  0.88329987  1
  Fe  Fe51  1  0.37598991  0.62550324  0.88953947  1
  Fe  Fe52  1  0.62927535  0.87880983  0.14636859  1
  Fe  Fe53  1  0.37029172  0.12455451  0.38029835  1
  Fe  Fe54  1  0.12648637  0.62094464  0.63400773  1
  Fe  Fe55  1  0.37294362  0.37468739  0.63836345  1
  Fe  Fe56  1  0.12379733  0.12451145  0.12916425  1
  Fe  Fe57  1  0.62876272  0.87959528  0.38274476  1
  Fe  Fe58  1  0.12207417  0.12571214  0.89031800  1
  Fe  Fe59  1  0.62798647  0.36952183  0.37904399  1
  Fe  Fe60  1  0.87476262  0.12863675  0.64170136  1
  Fe  Fe61  1  0.37401027  0.87351737  0.63603445  1
  Fe  Fe62  1  0.87063115  0.12342721  0.88245032  1
  Fe  Fe63  1  0.62444127  0.87339535  0.62908434  1
  Pb  Pb64  1  0.00072997  0.00482504  -0.00447963  1
  Pb  Pb65  1  0.00517444  -0.00342915  0.25088449  1
  Pb  Pb66  1  -0.00309305  -0.00741443  0.50871579  1
  Pb  Pb67  1  -0.00440854  0.00156352  0.74641426  1
  Pb  Pb68  1  -0.00248766  0.24861935  -0.00292946  1
  Pb  Pb69  1  -0.00204912  0.24729334  0.24334700  1
  Pb  Pb70  1  -0.00494716  0.24580750  0.50747966  1
  Pb  Pb71  1  0.00175698  0.24368789  0.75712612  1
  Pb  Pb72  1  0.00348479  0.50523123  0.00489612  1
  Pb  Pb73  1  -0.00085252  0.50943974  0.25411853  1
  Pb  Pb74  1  0.00531968  0.50550387  0.49864757  1
  Pb  Pb75  1  0.00732332  0.50289759  0.75421106  1
  Pb  Pb76  1  0.00486876  0.74609330  0.00301147  1
  Pb  Pb77  1  0.00806637  0.75224447  0.25620770  1
  Pb  Pb78  1  0.01403823  0.74667137  0.50027987  1
  Pb  Pb79  1  0.00802969  0.74836078  0.74405665  1
  Pb  Pb80  1  0.25137442  0.00549021  -0.00361611  1
  Pb  Pb81  1  0.25382258  0.00210920  0.25116651  1
  Pb  Pb82  1  0.25521393  -0.01355172  0.50075307  1
  Pb  Pb83  1  0.25569800  -0.00138119  0.75190073  1
  Pb  Pb84  1  0.25127471  0.24122408  -0.00058238  1
  Pb  Pb85  1  0.25546266  0.24711586  0.24670320  1
  Pb  Pb86  1  0.25725586  0.25485857  0.49982814  1
  Pb  Pb87  1  0.25029219  0.24191731  0.76084545  1
  Pb  Pb88  1  0.25544934  0.51300990  0.00566810  1
  Pb  Pb89  1  0.24964358  0.50786095  0.25167290  1
  Pb  Pb90  1  0.25229261  0.50338139  0.49001319  1
  Pb  Pb91  1  0.25364628  0.51055517  0.75446787  1
  Pb  Pb92  1  0.25834123  0.74075825  0.00235353  1
  Pb  Pb93  1  0.25172841  0.75210377  0.25334524  1
  Pb  Pb94  1  0.24950628  0.75143210  0.48712870  1
  Pb  Pb95  1  0.25155538  0.75052066  0.74465134  1
  Pb  Pb96  1  0.49412159  -0.00269371  0.00086597  1
  Pb  Pb97  1  0.48958347  0.00042726  0.25575818  1
  Pb  Pb98  1  0.49574941  -0.01089888  0.49730575  1
  Pb  Pb99  1  0.49735268  -0.00747355  0.74465698  1
  Pb  Pb100  1  0.49056318  0.24641689  0.00509731  1
  Pb  Pb101  1  0.49890451  0.25733404  0.25365770  1
  Pb  Pb102  1  0.49346028  0.25705190  0.49677837  1
  Pb  Pb103  1  0.48603094  0.24983567  0.75716269  1
  Pb  Pb104  1  0.49494871  0.51009285  0.00912075  1
  Pb  Pb105  1  0.50057972  0.50420771  0.25232736  1
  Pb  Pb106  1  0.49712044  0.49719901  0.48261979  1
  Pb  Pb107  1  0.48957762  0.50158768  0.75363143  1
  Pb  Pb108  1  0.50352361  0.74515643  0.00680947  1
  Pb  Pb109  1  0.50523094  0.74573218  0.25227468  1
  Pb  Pb110  1  0.50077582  0.75330114  0.48230546  1
  Pb  Pb111  1  0.49262303  0.74915177  0.74535468  1
  Pb  Pb112  1  0.74430659  -0.01014503  0.00166473  1
  Pb  Pb113  1  0.74913023  0.00002037  0.25529010  1
  Pb  Pb114  1  0.74563227  0.00026604  0.50704469  1
  Pb  Pb115  1  0.74982420  0.00070435  0.73924242  1
  Pb  Pb116  1  0.75372109  0.25421063  0.00167144  1
  Pb  Pb117  1  0.74636632  0.24993270  0.25036741  1
  Pb  Pb118  1  0.75029492  0.23980418  0.50712088  1
  Pb  Pb119  1  0.75268584  0.24615524  0.74952404  1
  Pb  Pb120  1  0.74899630  0.50212199  0.00697630  1
  Pb  Pb121  1  0.75207523  0.50592736  0.25410363  1
  Pb  Pb122  1  0.74565799  0.50020990  0.49047690  1
  Pb  Pb123  1  0.74830258  0.49875766  0.74924097  1
  Pb  Pb124  1  0.73743273  0.75037818  0.01153181  1
  Pb  Pb125  1  0.74519836  0.75231590  0.25512277  1
  Pb  Pb126  1  0.74603402  0.75668297  0.49432683  1
  Pb  Pb127  1  0.74727481  0.75251306  0.74259521  1
  O  O128  1  0.11896501  -0.00504303  0.16034939  1
  O  O129  1  0.11582697  0.01160456  0.41070912  1
  O  O130  1  0.12648222  0.00832938  0.66316736  1
  O  O131  1  0.11967550  -0.00916474  0.91101556  1
  O  O132  1  0.12514339  0.25683298  0.15988507  1
  O  O133  1  0.11829128  0.25027853  0.41722702  1
  O  O134  1  0.12505709  0.25454887  0.66869710  1
  O  O135  1  0.12025898  0.25992534  0.91486011  1
  O  O136  1  0.12509239  0.48938479  0.16289581  1
  O  O137  1  0.12093476  0.48788554  0.40846305  1
  O  O138  1  0.12304401  0.49438148  0.66784549  1
  O  O139  1  0.12059038  0.49420533  0.91724026  1
  O  O140  1  0.11965843  0.75841317  0.16523287  1
  O  O141  1  0.12035133  0.75071576  0.40845117  1
  O  O142  1  0.12540887  0.74550194  0.66177344  1
  O  O143  1  0.12096498  0.75684506  0.91406344  1
  O  O144  1  0.37225633  -0.00422262  0.16328918  1
  O  O145  1  0.37324641  0.00549727  0.41494738  1
  O  O146  1  0.37178933  0.01024151  0.66325838  1
  O  O147  1  0.37917396  -0.00282081  0.91574524  1
  O  O148  1  0.37745174  0.25419612  0.16175754  1
  O  O149  1  0.37218846  0.24605787  0.41494233  1
  O  O150  1  0.37238714  0.24682087  0.66775929  1
  O  O151  1  0.37967186  0.25345698  0.91852484  1
  O  O152  1  0.37823126  0.48970456  0.16440250  1
  O  O153  1  0.37256695  0.49647063  0.40397451  1
  O  O154  1  0.37715308  0.50309101  0.66252027  1
  O  O155  1  0.37831249  0.50005598  0.92261738  1
  O  O156  1  0.37139384  0.76073242  0.16568177  1
  O  O157  1  0.37416270  0.75123652  0.40290667  1
  O  O158  1  0.37556542  0.73994291  0.65761921  1
  O  O159  1  0.37678479  0.75101757  0.91903046  1
  O  O160  1  0.63047443  0.00889525  0.16708008  1
  O  O161  1  0.63485030  0.01055231  0.41217807  1
  O  O162  1  0.62395759  0.00017217  0.65993594  1
  O  O163  1  0.62828770  0.00108037  0.90942592  1
  O  O164  1  0.62847923  0.24385720  0.16436935  1
  O  O165  1  0.63193603  0.24351406  0.41496370  1
  O  O166  1  0.62754587  0.25977559  0.66074580  1
  O  O167  1  0.62773144  0.25310864  0.91042531  1
  O  O168  1  0.62661642  0.49297752  0.16140453  1
  O  O169  1  0.62956365  0.49489068  0.40581743  1
  O  O170  1  0.62613698  0.49929322  0.66779839  1
  O  O171  1  0.62713906  0.50442411  0.91703405  1
  O  O172  1  0.62999357  0.75424367  0.16927162  1
  O  O173  1  0.63063891  0.75199445  0.40433396  1
  O  O174  1  0.62509818  0.74030327  0.66048312  1
  O  O175  1  0.62784429  0.74654229  0.91951111  1
  O  O176  1  0.87751020  -0.00029698  0.16507897  1
  O  O177  1  0.87888144  0.00797504  0.41507876  1
  O  O178  1  0.87670262  0.00071078  0.66209770  1
  O  O179  1  0.87055572  -0.00728784  0.91063401  1
  O  O180  1  0.87380388  0.24540949  0.16070961  1
  O  O181  1  0.88035518  0.25249428  0.41855788  1
  O  O182  1  0.87507321  0.25914294  0.66938773  1
  O  O183  1  0.86866232  0.25407059  0.91437523  1
  O  O184  1  0.87491537  0.50260803  0.15910136  1
  O  O185  1  0.87771234  0.48792902  0.41011921  1
  O  O186  1  0.87384515  0.50166104  0.66970453  1
  O  O187  1  0.87048752  0.50513842  0.92222840  1
  O  O188  1  0.87744130  0.75493940  0.16418133  1
  O  O189  1  0.87503879  0.75532975  0.40518291  1
  O  O190  1  0.87412810  0.73903715  0.65868544  1
  O  O191  1  0.87240721  0.75002857  0.92039668  1
  O  O192  1  -0.00348452  0.12617564  0.15990743  1
  O  O193  1  -0.00089766  0.13088965  0.42187024  1
  O  O194  1  0.00752909  0.13119538  0.66566667  1
  O  O195  1  -0.00569691  0.12518138  0.91366220  1
  O  O196  1  0.00267344  0.37242322  0.15470717  1
  O  O197  1  0.00015957  0.37060759  0.41592208  1
  O  O198  1  0.00200093  0.37650366  0.66807268  1
  O  O199  1  -0.00147788  0.37800190  0.91625310  1
  O  O200  1  -0.00615327  0.62566679  0.16597294  1
  O  O201  1  -0.00226902  0.62061567  0.41500014  1
  O  O202  1  -0.00761275  0.61933042  0.66049500  1
  O  O203  1  -0.00483132  0.62583393  0.91788878  1
  O  O204  1  -0.00385781  0.87687384  0.16541359  1
  O  O205  1  -0.00711422  0.88171192  0.41644536  1
  O  O206  1  0.00085644  0.87367367  0.66453947  1
  O  O207  1  -0.00286936  0.87255522  0.91300911  1
  O  O208  1  0.24701320  0.12509566  0.15895195  1
  O  O209  1  0.23795614  0.13027462  0.40666673  1
  O  O210  1  0.24823699  0.13047577  0.66860860  1
  O  O211  1  0.24912155  0.12530763  0.91424439  1
  O  O212  1  0.25127213  0.37259638  0.15818714  1
  O  O213  1  0.23927795  0.36871984  0.40799646  1
  O  O214  1  0.24344460  0.37640344  0.66568679  1
  O  O215  1  0.24449694  0.37553099  0.90939792  1
  O  O216  1  0.24670848  0.62461438  0.16656350  1
  O  O217  1  0.24794220  0.62107641  0.40600500  1
  O  O218  1  0.25692377  0.61949590  0.65904568  1
  O  O219  1  0.24784491  0.62484530  0.91715832  1
  O  O220  1  0.24479997  0.87700560  0.16012248  1
  O  O221  1  0.24700829  0.88049179  0.40942110  1
  O  O222  1  0.24969517  0.87605747  0.66610974  1
  O  O223  1  0.24268468  0.87586132  0.90689945  1
  O  O224  1  0.50774204  0.12395711  0.16116088  1
  O  O225  1  0.50492211  0.12656142  0.40327388  1
  O  O226  1  0.49399169  0.12977307  0.65809590  1
  O  O227  1  0.51234530  0.12628130  0.91639365  1
  O  O228  1  0.50468349  0.36970971  0.16448143  1
  O  O229  1  0.50168460  0.36830562  0.40754505  1
  O  O230  1  0.50657419  0.37735300  0.66089285  1
  O  O231  1  0.51112757  0.37928860  0.91968251  1
  O  O232  1  0.50051583  0.62633977  0.16732515  1
  O  O233  1  0.50157162  0.62334024  0.40260768  1
  O  O234  1  0.49753880  0.62128384  0.65814874  1
  O  O235  1  0.50794236  0.62645264  0.91935577  1
  O  O236  1  0.49712063  0.87925923  0.16155119  1
  O  O237  1  0.50219640  0.88193025  0.40468256  1
  O  O238  1  0.49960397  0.87271004  0.66243478  1
  O  O239  1  0.50837630  0.87320358  0.91478284  1
  O  O240  1  0.75096148  0.12454202  0.16528553  1
  O  O241  1  0.76009628  0.13023466  0.41511304  1
  O  O242  1  0.74716903  0.12984179  0.66538421  1
  O  O243  1  0.74252380  0.12648809  0.91293246  1
  O  O244  1  0.74604717  0.37120905  0.16380048  1
  O  O245  1  0.75927482  0.36881824  0.40787094  1
  O  O246  1  0.74853808  0.37978352  0.66745670  1
  O  O247  1  0.74155497  0.37986067  0.92039596  1
  O  O248  1  0.75920502  0.62640691  0.16572920  1
  O  O249  1  0.75336652  0.62196997  0.41302150  1
  O  O250  1  0.75221424  0.61982576  0.66151800  1
  O  O251  1  0.74701824  0.62615611  0.91994479  1
  O  O252  1  0.76216758  0.87898786  0.16823140  1
  O  O253  1  0.75938460  0.88306638  0.41274228  1
  O  O254  1  0.75030591  0.86976452  0.66158489  1
  O  O255  1  0.74904977  0.87229053  0.91859148  1
  O  O256  1  0.12207999  0.12338297  0.02858322  1
  O  O257  1  0.11551498  0.13004408  0.29728740  1
  O  O258  1  0.12891605  0.12897995  0.55371479  1
  O  O259  1  0.12556248  0.13382640  0.78974168  1
  O  O260  1  0.12440105  0.37655410  0.04373164  1
  O  O261  1  0.11687962  0.36548437  0.29568476  1
  O  O262  1  0.12626115  0.37497677  0.55209591  1
  O  O263  1  0.12333150  0.38021925  0.79905617  1
  O  O264  1  0.11833169  0.62536332  0.04073627  1
  O  O265  1  0.11570053  0.61960394  0.28032244  1
  O  O266  1  0.12035238  0.61861398  0.53388299  1
  O  O267  1  0.12321240  0.61779136  0.78835776  1
  O  O268  1  0.12468180  0.87370734  0.04922732  1
  O  O269  1  0.11291732  0.87864761  0.28609665  1
  O  O270  1  0.12209069  0.87755039  0.53178130  1
  O  O271  1  0.12320976  0.87008924  0.79453376  1
  O  O272  1  0.37983965  0.12544645  0.03619526  1
  O  O273  1  0.36995444  0.11922759  0.27881807  1
  O  O274  1  0.36947032  0.13085686  0.54923593  1
  O  O275  1  0.37721463  0.13234946  0.78976710  1
  O  O276  1  0.37746052  0.37348006  0.05025288  1
  O  O277  1  0.37339122  0.36278674  0.27935120  1
  O  O278  1  0.37310078  0.36553726  0.53852283  1
  O  O279  1  0.38591259  0.37665460  0.78713505  1
  O  O280  1  0.37233470  0.62409341  0.04505738  1
  O  O281  1  0.37175859  0.62366747  0.27264094  1
  O  O282  1  0.37467367  0.61860201  0.54271785  1
  O  O283  1  0.37861156  0.61799054  0.78910585  1
  O  O284  1  0.37729072  0.87794887  0.05090459  1
  O  O285  1  0.36997723  0.88801313  0.27862663  1
  O  O286  1  0.37397297  0.88418653  0.53545905  1
  O  O287  1  0.38003008  0.87306526  0.78240600  1
  O  O288  1  0.62681288  0.12294745  0.04819005  1
  O  O289  1  0.63200738  0.12810116  0.29965123  1
  O  O290  1  0.63171275  0.12790863  0.53163870  1
  O  O291  1  0.62370172  0.12389233  0.79637826  1
  O  O292  1  0.62548999  0.37122475  0.05302526  1
  O  O293  1  0.62687197  0.36224318  0.27895011  1
  O  O294  1  0.62601317  0.37809293  0.54788448  1
  O  O295  1  0.62371669  0.37585003  0.80113139  1
  O  O296  1  0.62760924  0.63143007  0.04391258  1
  O  O297  1  0.63329429  0.62103458  0.27526290  1
  O  O298  1  0.62691370  0.61742471  0.54255997  1
  O  O299  1  0.62564043  0.62483745  0.80466440  1
  O  O300  1  0.63579438  0.87753543  0.04471804  1
  O  O301  1  0.63730642  0.88306918  0.28106327  1
  O  O302  1  0.63002240  0.87576362  0.52833490  1
  O  O303  1  0.62904826  0.86652769  0.79841024  1
  O  O304  1  0.87123946  0.12168175  0.04407592  1
  O  O305  1  0.88094420  0.12779534  0.30412130  1
  O  O306  1  0.87559855  0.13668237  0.54107569  1
  O  O307  1  0.87488531  0.12949957  0.78233718  1
  O  O308  1  0.86574274  0.37324975  0.03165513  1
  O  O309  1  0.88066057  0.36807357  0.29619571  1
  O  O310  1  0.87541198  0.37813131  0.55003428  1
  O  O311  1  0.86961721  0.38336954  0.80621326  1
  O  O312  1  0.87618458  0.62817108  0.05189929  1
  O  O313  1  0.87669713  0.61463030  0.28241657  1
  O  O314  1  0.87450763  0.61799880  0.54575439  1
  O  O315  1  0.87275290  0.62756794  0.80093768  1
  O  O316  1  0.87547301  0.87575533  0.04981074  1
  O  O317  1  0.87916294  0.88234404  0.30078600  1
  O  O318  1  0.87676050  0.87727704  0.53110811  1
  O  O319  1  0.87240135  0.86695298  0.79807798  1
