# generated using pymatgen
data_VFe(PbO3)2
_symmetry_space_group_name_H-M   'P 1'
_cell_length_a   15.38911783
_cell_length_b   15.38277075
_cell_length_c   18.51369375
_cell_angle_alpha   90.02404896
_cell_angle_beta   90.01824602
_cell_angle_gamma   90.01040430
_symmetry_Int_Tables_number   1
_chemical_formula_structural   VFe(PbO3)2
_chemical_formula_sum   'V32 Fe32 Pb64 O192'
_cell_volume   4382.69553063
_cell_formula_units_Z   32
loop_
 _symmetry_equiv_pos_site_id
 _symmetry_equiv_pos_as_xyz
  1  'x, y, z'
loop_
 _atom_site_type_symbol
 _atom_site_label
 _atom_site_symmetry_multiplicity
 _atom_site_fract_x
 _atom_site_fract_y
 _atom_site_fract_z
 _atom_site_occupancy
  V  V0  1  0.62624685  0.12272857  0.88531916  1
  V  V1  1  0.37355267  0.37208769  0.39208695  1
  V  V2  1  0.87123070  0.12899059  0.38745095  1
  V  V3  1  0.12538081  0.37473919  0.64355526  1
  V  V4  1  0.87747448  0.37883579  0.64037500  1
  V  V5  1  0.87443733  0.37166672  0.38769189  1
  V  V6  1  0.37246672  0.12606727  0.13732074  1
  V  V7  1  0.12263682  0.87019984  0.89133523  1
  V  V8  1  0.62730361  0.62289973  0.63991431  1
  V  V9  1  0.37609175  0.87580286  0.39269158  1
  V  V10  1  0.62276759  0.87772386  0.38904680  1
  V  V11  1  0.37477703  0.87296464  0.88574990  1
  V  V12  1  0.12705416  0.62467974  0.14817105  1
  V  V13  1  0.37595256  0.12754571  0.39366062  1
  V  V14  1  0.36975397  0.87410225  0.63657211  1
  V  V15  1  0.87493242  0.12485601  0.64207997  1
  V  V16  1  0.62310881  0.37382808  0.39264937  1
  V  V17  1  0.12914660  0.37546405  0.13742150  1
  V  V18  1  0.37751745  0.87353223  0.14043107  1
  V  V19  1  0.62585483  0.87762063  0.63694564  1
  V  V20  1  0.12242729  0.12615896  0.64816844  1
  V  V21  1  0.12303524  0.62601326  0.88924684  1
  V  V22  1  0.11837642  0.87748805  0.63273416  1
  V  V23  1  0.12460935  0.12774411  0.38822979  1
  V  V24  1  0.87730434  0.87388727  0.89386104  1
  V  V25  1  0.37867024  0.37428102  0.64885334  1
  V  V26  1  0.62280035  0.12595343  0.13598725  1
  V  V27  1  0.87706714  0.62865350  0.89020991  1
  V  V28  1  0.12826789  0.87434481  0.14761557  1
  V  V29  1  0.62303846  0.62911278  0.13994206  1
  V  V30  1  0.62033041  0.38064233  0.13580416  1
  V  V31  1  0.37450760  0.62337478  0.14072979  1
  Fe  Fe32  1  0.87155640  0.62263209  0.38161269  1
  Fe  Fe33  1  0.87197188  0.37627150  0.13135841  1
  Fe  Fe34  1  0.12865925  0.12398680  0.12972069  1
  Fe  Fe35  1  0.62684586  0.62876073  0.88122196  1
  Fe  Fe36  1  0.12124323  0.37755143  0.88206027  1
  Fe  Fe37  1  0.37534145  0.62624175  0.63958317  1
  Fe  Fe38  1  0.62333848  0.62649049  0.38534818  1
  Fe  Fe39  1  0.62800562  0.37887638  0.87494919  1
  Fe  Fe40  1  0.37675764  0.11985014  0.87583189  1
  Fe  Fe41  1  0.62852045  0.87221075  0.88930874  1
  Fe  Fe42  1  0.87745042  0.12629798  0.12731038  1
  Fe  Fe43  1  0.87483089  0.62302906  0.14646834  1
  Fe  Fe44  1  0.61962816  0.87532501  0.13341855  1
  Fe  Fe45  1  0.87443904  0.87882900  0.38315974  1
  Fe  Fe46  1  0.87199514  0.87509508  0.14281917  1
  Fe  Fe47  1  0.12625038  0.37051659  0.38643762  1
  Fe  Fe48  1  0.12270746  0.62461722  0.63101284  1
  Fe  Fe49  1  0.38009303  0.62186960  0.39257117  1
  Fe  Fe50  1  0.37322290  0.12393377  0.64901285  1
  Fe  Fe51  1  0.87753671  0.37674855  0.88890409  1
  Fe  Fe52  1  0.37242691  0.62937679  0.87769927  1
  Fe  Fe53  1  0.37717951  0.37590095  0.13313805  1
  Fe  Fe54  1  0.12716512  0.62173330  0.38483376  1
  Fe  Fe55  1  0.62697212  0.12574343  0.63563403  1
  Fe  Fe56  1  0.12466473  0.12177903  0.88573969  1
  Fe  Fe57  1  0.12901522  0.87887508  0.38268753  1
  Fe  Fe58  1  0.87486477  0.62816846  0.62933283  1
  Fe  Fe59  1  0.62374619  0.12581047  0.39124333  1
  Fe  Fe60  1  0.62817235  0.37278274  0.64887863  1
  Fe  Fe61  1  0.87246596  0.87785526  0.62734746  1
  Fe  Fe62  1  0.87358261  0.12146897  0.89575107  1
  Fe  Fe63  1  0.37315659  0.37655861  0.87553950  1
  Pb  Pb64  1  0.00074876  0.00638727  0.00548328  1
  Pb  Pb65  1  -0.00223292  -0.00111868  0.24616099  1
  Pb  Pb66  1  -0.00203915  -0.00606818  0.49473027  1
  Pb  Pb67  1  -0.00592487  0.01401742  0.76101799  1
  Pb  Pb68  1  0.00196885  0.24542162  -0.00789036  1
  Pb  Pb69  1  0.00127429  0.25018990  0.23839127  1
  Pb  Pb70  1  0.00044810  0.24833203  0.50025433  1
  Pb  Pb71  1  -0.00417840  0.25685069  0.76129143  1
  Pb  Pb72  1  -0.00752187  0.50001493  0.00437756  1
  Pb  Pb73  1  0.00034531  0.50172394  0.25246414  1
  Pb  Pb74  1  0.00400394  0.51122167  0.49561357  1
  Pb  Pb75  1  -0.00129588  0.49381916  0.75098385  1
  Pb  Pb76  1  -0.01035601  0.74933082  0.01438865  1
  Pb  Pb77  1  -0.00592170  0.75048697  0.25770556  1
  Pb  Pb78  1  -0.00120921  0.74785034  0.48590164  1
  Pb  Pb79  1  -0.00649912  0.74845416  0.73803293  1
  Pb  Pb80  1  0.24780692  0.00530469  -0.00275406  1
  Pb  Pb81  1  0.24944577  -0.00414190  0.25195121  1
  Pb  Pb82  1  0.25534212  0.00837011  0.50460540  1
  Pb  Pb83  1  0.24368199  0.00655284  0.75472213  1
  Pb  Pb84  1  0.25061773  0.24852329  -0.01483838  1
  Pb  Pb85  1  0.24636015  0.25720966  0.24894887  1
  Pb  Pb86  1  0.25905811  0.24501241  0.50903386  1
  Pb  Pb87  1  0.24530221  0.25626364  0.75724916  1
  Pb  Pb88  1  0.25993673  0.48940821  -0.00535152  1
  Pb  Pb89  1  0.24568166  0.50132701  0.25640196  1
  Pb  Pb90  1  0.24659082  0.50708129  0.50192884  1
  Pb  Pb91  1  0.25390511  0.50360639  0.75141428  1
  Pb  Pb92  1  0.24969242  0.74993141  0.00030674  1
  Pb  Pb93  1  0.24667055  0.74531034  0.25900197  1
  Pb  Pb94  1  0.24437333  0.74115638  0.49684458  1
  Pb  Pb95  1  0.25213259  0.74526680  0.74374969  1
  Pb  Pb96  1  0.50677655  -0.00437567  -0.00246837  1
  Pb  Pb97  1  0.50486321  0.00557299  0.25164027  1
  Pb  Pb98  1  0.49803967  0.01150948  0.50656042  1
  Pb  Pb99  1  0.50090556  -0.00068812  0.74752742  1
  Pb  Pb100  1  0.49265999  0.25767847  -0.01496071  1
  Pb  Pb101  1  0.50510689  0.24465866  0.25104492  1
  Pb  Pb102  1  0.51059318  0.25180970  0.51234404  1
  Pb  Pb103  1  0.50235793  0.24404172  0.75012233  1
  Pb  Pb104  1  0.49807891  0.50125228  -0.01702386  1
  Pb  Pb105  1  0.49776134  0.50754791  0.25569789  1
  Pb  Pb106  1  0.49926573  0.50136932  0.50676653  1
  Pb  Pb107  1  0.49417822  0.50473762  0.75350707  1
  Pb  Pb108  1  0.50694140  0.74818804  -0.00558970  1
  Pb  Pb109  1  0.49734129  0.74008335  0.25517230  1
  Pb  Pb110  1  0.49672330  0.74454379  0.50373138  1
  Pb  Pb111  1  0.51201934  0.75170249  0.75182395  1
  Pb  Pb112  1  0.75296719  -0.00661898  0.00516123  1
  Pb  Pb113  1  0.75300395  -0.00214969  0.24561056  1
  Pb  Pb114  1  0.75191632  -0.00309021  0.49886231  1
  Pb  Pb115  1  0.75547771  0.00326953  0.75239214  1
  Pb  Pb116  1  0.75622355  0.25488307  -0.00657201  1
  Pb  Pb117  1  0.74806695  0.24737959  0.24321696  1
  Pb  Pb118  1  0.73931367  0.25355358  0.50923185  1
  Pb  Pb119  1  0.75547443  0.25492975  0.75466176  1
  Pb  Pb120  1  0.75268997  0.49807526  -0.00352901  1
  Pb  Pb121  1  0.75111524  0.50556115  0.25133469  1
  Pb  Pb122  1  0.75190441  0.50252555  0.49946632  1
  Pb  Pb123  1  0.74506735  0.50344257  0.75302443  1
  Pb  Pb124  1  0.75768562  0.75042879  0.00753977  1
  Pb  Pb125  1  0.75686720  0.75489376  0.25230841  1
  Pb  Pb126  1  0.76283417  0.74604733  0.49528226  1
  Pb  Pb127  1  0.74432567  0.75327560  0.74880875  1
  O  O128  1  0.13128325  -0.00556659  0.16287994  1
  O  O129  1  0.12806652  0.00936676  0.41453509  1
  O  O130  1  0.12802146  -0.00774446  0.66338371  1
  O  O131  1  0.12430695  -0.01424880  0.91523569  1
  O  O132  1  0.13092484  0.25552363  0.15624184  1
  O  O133  1  0.12577856  0.24605406  0.42150229  1
  O  O134  1  0.12030683  0.25124334  0.66981777  1
  O  O135  1  0.12438597  0.24925695  0.90573597  1
  O  O136  1  0.12979130  0.50036473  0.16609278  1
  O  O137  1  0.12619606  0.49341495  0.41541384  1
  O  O138  1  0.11912359  0.49232389  0.65889718  1
  O  O139  1  0.12166631  0.51204450  0.91007530  1
  O  O140  1  0.13061507  0.74853876  0.17055539  1
  O  O141  1  0.12929372  0.75179645  0.40857838  1
  O  O142  1  0.12602806  0.76055056  0.65699410  1
  O  O143  1  0.12287029  0.75234233  0.92250036  1
  O  O144  1  0.37563753  0.00331168  0.16456764  1
  O  O145  1  0.37554388  0.00249600  0.41959591  1
  O  O146  1  0.37698343  -0.01170685  0.66455434  1
  O  O147  1  0.37350493  -0.01059528  0.91001676  1
  O  O148  1  0.37567906  0.24339421  0.16108749  1
  O  O149  1  0.37730595  0.25365352  0.42266612  1
  O  O150  1  0.36987686  0.25615487  0.66885080  1
  O  O151  1  0.37482707  0.24728026  0.90038350  1
  O  O152  1  0.37611531  0.50345696  0.16403346  1
  O  O153  1  0.38172737  0.48791126  0.41596534  1
  O  O154  1  0.37122941  0.49578500  0.66484717  1
  O  O155  1  0.37219271  0.50444508  0.90515535  1
  O  O156  1  0.37579899  0.74772813  0.16796249  1
  O  O157  1  0.37836936  0.75828650  0.41299684  1
  O  O158  1  0.37836045  0.75806701  0.66258388  1
  O  O159  1  0.36944907  0.75599631  0.91361370  1
  O  O160  1  0.61824498  0.00819918  0.16098215  1
  O  O161  1  0.61934785  -0.00376892  0.41722169  1
  O  O162  1  0.62555063  -0.00492619  0.65971413  1
  O  O163  1  0.62466280  0.00098527  0.91457299  1
  O  O164  1  0.61943397  0.24702722  0.16144507  1
  O  O165  1  0.62541799  0.25500475  0.41985671  1
  O  O166  1  0.62865938  0.24656486  0.67169636  1
  O  O167  1  0.62598791  0.24207166  0.90376273  1
  O  O168  1  0.62034748  0.49696636  0.15949759  1
  O  O169  1  0.62444149  0.48988819  0.41581215  1
  O  O170  1  0.62891574  0.50604734  0.66188432  1
  O  O171  1  0.62721687  0.50385107  0.90717656  1
  O  O172  1  0.61952773  0.74434440  0.15894280  1
  O  O173  1  0.61909175  0.76041323  0.41047083  1
  O  O174  1  0.62574925  0.75153361  0.66084750  1
  O  O175  1  0.62853666  0.74932723  0.91991009  1
  O  O176  1  0.87485991  0.00352927  0.16338145  1
  O  O177  1  0.87463582  0.01080762  0.40988216  1
  O  O178  1  0.87428731  0.00394983  0.66312437  1
  O  O179  1  0.87653275  -0.01158834  0.91692805  1
  O  O180  1  0.87319918  0.25135967  0.16009256  1
  O  O181  1  0.87273159  0.24825243  0.41841352  1
  O  O182  1  0.87851731  0.24569858  0.66567149  1
  O  O183  1  0.87482837  0.24874630  0.91135447  1
  O  O184  1  0.87374676  0.49539797  0.16931589  1
  O  O185  1  0.87044497  0.48795805  0.40784876  1
  O  O186  1  0.87807788  0.49496043  0.65790752  1
  O  O187  1  0.88074346  0.51183642  0.91144505  1
  O  O188  1  0.87575536  0.74939373  0.17139885  1
  O  O189  1  0.87138230  0.75176751  0.40355154  1
  O  O190  1  0.87368914  0.75426996  0.65773101  1
  O  O191  1  0.88064751  0.74999567  0.92095234  1
  O  O192  1  0.00441502  0.12579739  0.15824850  1
  O  O193  1  -0.00320074  0.12937013  0.41282470  1
  O  O194  1  -0.00436490  0.12170449  0.67024012  1
  O  O195  1  0.00145717  0.11652144  0.91509525  1
  O  O196  1  0.00991245  0.37741733  0.15762340  1
  O  O197  1  -0.00876209  0.36800607  0.40948680  1
  O  O198  1  -0.00295627  0.37031585  0.66631882  1
  O  O199  1  0.00160001  0.37971291  0.91965495  1
  O  O200  1  0.00926310  0.62411772  0.16850118  1
  O  O201  1  -0.00187897  0.62153084  0.40544202  1
  O  O202  1  -0.00046649  0.62704648  0.66099754  1
  O  O203  1  0.00207668  0.63200041  0.91931420  1
  O  O204  1  0.01010633  0.87292247  0.16552740  1
  O  O205  1  0.00155280  0.88108682  0.40713342  1
  O  O206  1  0.00371519  0.87724305  0.65085408  1
  O  O207  1  0.00124838  0.87044126  0.91788195  1
  O  O208  1  0.25627442  0.12344388  0.16083377  1
  O  O209  1  0.25159807  0.12904655  0.41957719  1
  O  O210  1  0.24316774  0.12354066  0.67056281  1
  O  O211  1  0.25220757  0.11658934  0.90748609  1
  O  O212  1  0.24867814  0.37682720  0.16480951  1
  O  O213  1  0.25884410  0.37094310  0.41574110  1
  O  O214  1  0.24200395  0.37265964  0.66386952  1
  O  O215  1  0.24724792  0.37813701  0.90841402  1
  O  O216  1  0.24993245  0.62513876  0.16872187  1
  O  O217  1  0.25499909  0.62109378  0.41403607  1
  O  O218  1  0.24668995  0.62691537  0.66071416  1
  O  O219  1  0.24026985  0.63291051  0.91012206  1
  O  O220  1  0.25350527  0.87335150  0.17168605  1
  O  O221  1  0.25938366  0.88042001  0.41547372  1
  O  O222  1  0.25297450  0.87363855  0.65706740  1
  O  O223  1  0.24679585  0.87081914  0.91329174  1
  O  O224  1  0.49660451  0.12586763  0.16534118  1
  O  O225  1  0.49563183  0.12798071  0.42037003  1
  O  O226  1  0.50140835  0.12362798  0.66489334  1
  O  O227  1  0.50557750  0.12033065  0.90750951  1
  O  O228  1  0.50475168  0.37126769  0.16319803  1
  O  O229  1  0.50284426  0.37034006  0.41646371  1
  O  O230  1  0.49539196  0.37630872  0.66520877  1
  O  O231  1  0.50133364  0.37560994  0.90065875  1
  O  O232  1  0.50182833  0.62260270  0.16611247  1
  O  O233  1  0.50379628  0.62260939  0.42409796  1
  O  O234  1  0.50776391  0.62540408  0.66285184  1
  O  O235  1  0.49794328  0.63117062  0.90522637  1
  O  O236  1  0.49541609  0.87630405  0.16731059  1
  O  O237  1  0.49606892  0.88060540  0.41924655  1
  O  O238  1  0.50414851  0.87352577  0.66000892  1
  O  O239  1  0.49194517  0.87124414  0.90812355  1
  O  O240  1  0.74038096  0.12688028  0.15410157  1
  O  O241  1  0.75523029  0.12702901  0.41069163  1
  O  O242  1  0.75724251  0.12407456  0.66532990  1
  O  O243  1  0.74141535  0.11908339  0.91542828  1
  O  O244  1  0.73717540  0.37191446  0.16198773  1
  O  O245  1  0.74947718  0.37008221  0.41517616  1
  O  O246  1  0.76226457  0.37167153  0.66447134  1
  O  O247  1  0.75000036  0.37826508  0.91140559  1
  O  O248  1  0.73903325  0.62179319  0.16319010  1
  O  O249  1  0.74621597  0.62126273  0.41300409  1
  O  O250  1  0.74680949  0.62676195  0.66126713  1
  O  O251  1  0.76186682  0.63056087  0.91086076  1
  O  O252  1  0.74234731  0.87636856  0.16572463  1
  O  O253  1  0.74071837  0.88164841  0.40800324  1
  O  O254  1  0.74381814  0.87585655  0.65914442  1
  O  O255  1  0.75970956  0.87013595  0.91511798  1
  O  O256  1  0.12995508  0.11631735  0.03010969  1
  O  O257  1  0.12744386  0.13051004  0.29691347  1
  O  O258  1  0.11894841  0.12572835  0.55688194  1
  O  O259  1  0.12002603  0.11098279  0.78368891  1
  O  O260  1  0.13377091  0.38174326  0.04692089  1
  O  O261  1  0.13339738  0.36919451  0.28693353  1
  O  O262  1  0.12148243  0.36794713  0.55268309  1
  O  O263  1  0.11393159  0.37730139  0.78151499  1
  O  O264  1  0.12807919  0.62593378  0.05762027  1
  O  O265  1  0.13326099  0.61865449  0.28350736  1
  O  O266  1  0.12507286  0.62120319  0.53009420  1
  O  O267  1  0.11862629  0.63201012  0.79832821  1
  O  O268  1  0.13366388  0.86846453  0.05674126  1
  O  O269  1  0.13528805  0.88032873  0.28292947  1
  O  O270  1  0.12433744  0.88096205  0.54148052  1
  O  O271  1  0.12141996  0.86784533  0.80086320  1
  O  O272  1  0.37606248  0.12328688  0.04650011  1
  O  O273  1  0.37471536  0.12880930  0.30259049  1
  O  O274  1  0.36572390  0.12294325  0.54704732  1
  O  O275  1  0.37678325  0.11479994  0.77519889  1
  O  O276  1  0.37430186  0.37637284  0.03379219  1
  O  O277  1  0.37440298  0.36866843  0.30088721  1
  O  O278  1  0.37181736  0.37352068  0.55717735  1
  O  O279  1  0.36497813  0.38193897  0.77461449  1
  O  O280  1  0.37424708  0.62703406  0.04979714  1
  O  O281  1  0.38957514  0.62267630  0.29183412  1
  O  O282  1  0.38142622  0.62412703  0.53858619  1
  O  O283  1  0.36911133  0.62607604  0.77686032  1
  O  O284  1  0.37370771  0.87258380  0.04949317  1
  O  O285  1  0.37721619  0.88010613  0.30170511  1
  O  O286  1  0.37282796  0.87541481  0.54536594  1
  O  O287  1  0.37158102  0.87142809  0.79484647  1
  O  O288  1  0.61461707  0.12587031  0.04566551  1
  O  O289  1  0.61640126  0.12829796  0.29136573  1
  O  O290  1  0.62487647  0.13322137  0.53454240  1
  O  O291  1  0.62973972  0.11616916  0.79392818  1
  O  O292  1  0.62104337  0.37778677  0.04492854  1
  O  O293  1  0.62363292  0.37151388  0.30163249  1
  O  O294  1  0.62754267  0.36561181  0.54711007  1
  O  O295  1  0.63623808  0.38143551  0.77358659  1
  O  O296  1  0.62088801  0.62482878  0.04898745  1
  O  O297  1  0.61446282  0.62061562  0.28541595  1
  O  O298  1  0.62631024  0.62481696  0.54828168  1
  O  O299  1  0.63374136  0.63355394  0.78067505  1
  O  O300  1  0.61852550  0.88051100  0.03327131  1
  O  O301  1  0.61672657  0.88150334  0.29796520  1
  O  O302  1  0.62608097  0.87611053  0.54608209  1
  O  O303  1  0.62798865  0.86535281  0.78886508  1
  O  O304  1  0.87425432  0.11939797  0.02658929  1
  O  O305  1  0.87376929  0.13328160  0.29652389  1
  O  O306  1  0.87742874  0.12686245  0.55111125  1
  O  O307  1  0.87413287  0.11048652  0.79378793  1
  O  O308  1  0.86833767  0.38584041  0.03127433  1
  O  O309  1  0.87014188  0.36561068  0.29692046  1
  O  O310  1  0.87975929  0.37287304  0.54927975  1
  O  O311  1  0.88461210  0.37689443  0.78730809  1
  O  O312  1  0.87871737  0.62932203  0.04532107  1
  O  O313  1  0.87018512  0.61898686  0.27956102  1
  O  O314  1  0.86986611  0.62421873  0.52887867  1
  O  O315  1  0.88153834  0.63357821  0.79917832  1
  O  O316  1  0.87299453  0.86666988  0.04169422  1
  O  O317  1  0.87115332  0.88085648  0.28135208  1
  O  O318  1  0.86868473  0.88372282  0.52688801  1
  O  O319  1  0.87882195  0.87128433  0.80272527  1
