# generated using pymatgen
data_VFe(PbO3)2
_symmetry_space_group_name_H-M   'P 1'
_cell_length_a   15.38987884
_cell_length_b   15.39367358
_cell_length_c   18.47752839
_cell_angle_alpha   90.00811239
_cell_angle_beta   90.01056502
_cell_angle_gamma   89.99394766
_symmetry_Int_Tables_number   1
_chemical_formula_structural   VFe(PbO3)2
_chemical_formula_sum   'V32 Fe32 Pb64 O192'
_cell_volume   4377.45144815
_cell_formula_units_Z   32
loop_
 _symmetry_equiv_pos_site_id
 _symmetry_equiv_pos_as_xyz
  1  'x, y, z'
loop_
 _atom_site_type_symbol
 _atom_site_label
 _atom_site_symmetry_multiplicity
 _atom_site_fract_x
 _atom_site_fract_y
 _atom_site_fract_z
 _atom_site_occupancy
  V  V0  1  0.38127879  0.12577639  0.39095301  1
  V  V1  1  0.87532880  0.12201696  0.39569414  1
  V  V2  1  0.87709271  0.37456848  0.63197547  1
  V  V3  1  0.12486142  0.87463918  0.14399437  1
  V  V4  1  0.37872877  0.87508034  0.14470830  1
  V  V5  1  0.62469951  0.87439561  0.39565696  1
  V  V6  1  0.37532446  0.37629675  0.39617265  1
  V  V7  1  0.12706008  0.12510978  0.14379475  1
  V  V8  1  0.12744967  0.12356319  0.39282708  1
  V  V9  1  0.62990425  0.12245294  0.39666177  1
  V  V10  1  0.12669448  0.37513201  0.14481337  1
  V  V11  1  0.86600654  0.12779738  0.88554292  1
  V  V12  1  0.62384740  0.12442055  0.14193874  1
  V  V13  1  0.12501726  0.62531482  0.63408272  1
  V  V14  1  0.87449220  0.37522578  0.14144448  1
  V  V15  1  0.12608084  0.62359668  0.88919961  1
  V  V16  1  0.12592613  0.87559319  0.63594026  1
  V  V17  1  0.87642194  0.87428791  0.39399825  1
  V  V18  1  0.87598630  0.36895527  0.39325444  1
  V  V19  1  0.37649766  0.62386067  0.88776097  1
  V  V20  1  0.87573023  0.12737952  0.14078312  1
  V  V21  1  0.12482110  0.62708519  0.38590836  1
  V  V22  1  0.37300282  0.12491733  0.63341927  1
  V  V23  1  0.62428506  0.62316995  0.88332739  1
  V  V24  1  0.12468175  0.12503305  0.88675642  1
  V  V25  1  0.37414989  0.37539302  0.88849464  1
  V  V26  1  0.87793246  0.62272584  0.14160354  1
  V  V27  1  0.37512702  0.12712089  0.14571206  1
  V  V28  1  0.37831909  0.37359212  0.14696284  1
  V  V29  1  0.61850096  0.12563731  0.88331861  1
  V  V30  1  0.87456026  0.62205077  0.39264219  1
  V  V31  1  0.62644513  0.62521186  0.14444963  1
  Fe  Fe32  1  0.12780455  0.87372173  0.88423976  1
  Fe  Fe33  1  0.87700032  0.87419111  0.63855150  1
  Fe  Fe34  1  0.62741293  0.62639006  0.39766026  1
  Fe  Fe35  1  0.62398483  0.37390225  0.62607651  1
  Fe  Fe36  1  0.12038963  0.87388150  0.38493861  1
  Fe  Fe37  1  0.87682508  0.87331612  0.88245738  1
  Fe  Fe38  1  0.37363908  0.87956077  0.39522452  1
  Fe  Fe39  1  0.37362801  0.87467402  0.88397937  1
  Fe  Fe40  1  0.12690535  0.62434187  0.13943644  1
  Fe  Fe41  1  0.62375423  0.87611279  0.63396601  1
  Fe  Fe42  1  0.87290435  0.87499793  0.13630465  1
  Fe  Fe43  1  0.62243537  0.37562264  0.88343401  1
  Fe  Fe44  1  0.37084064  0.62584672  0.62351438  1
  Fe  Fe45  1  0.62476107  0.62492567  0.62490351  1
  Fe  Fe46  1  0.12368898  0.12312575  0.63200736  1
  Fe  Fe47  1  0.37491703  0.62655740  0.38770842  1
  Fe  Fe48  1  0.87322681  0.62155940  0.87661948  1
  Fe  Fe49  1  0.62616727  0.87537629  0.13791757  1
  Fe  Fe50  1  0.87712155  0.62553256  0.64183051  1
  Fe  Fe51  1  0.62326496  0.87339432  0.87996210  1
  Fe  Fe52  1  0.37601071  0.62244313  0.14874312  1
  Fe  Fe53  1  0.37214165  0.37592670  0.62190521  1
  Fe  Fe54  1  0.62657301  0.12516419  0.63076468  1
  Fe  Fe55  1  0.12529456  0.37631314  0.62561242  1
  Fe  Fe56  1  0.37336192  0.12634496  0.88128690  1
  Fe  Fe57  1  0.87663167  0.37624023  0.88409148  1
  Fe  Fe58  1  0.62514512  0.37438738  0.14116608  1
  Fe  Fe59  1  0.37125765  0.87537007  0.62478813  1
  Fe  Fe60  1  0.12855777  0.37673188  0.88344061  1
  Fe  Fe61  1  0.62748944  0.37302326  0.39758800  1
  Fe  Fe62  1  0.12024905  0.37607645  0.39870667  1
  Fe  Fe63  1  0.87770762  0.12470486  0.63243596  1
  Pb  Pb64  1  -0.00277168  -0.00346572  -0.00320214  1
  Pb  Pb65  1  0.00435648  -0.00233051  0.25126252  1
  Pb  Pb66  1  -0.00175080  0.00659086  0.50642450  1
  Pb  Pb67  1  -0.00140564  -0.00554734  0.74692336  1
  Pb  Pb68  1  0.00254917  0.25195164  -0.00458989  1
  Pb  Pb69  1  0.00468375  0.25376253  0.25677675  1
  Pb  Pb70  1  0.00259818  0.23869422  0.50746403  1
  Pb  Pb71  1  0.00552276  0.25584816  0.74192568  1
  Pb  Pb72  1  0.00209383  0.50114790  -0.00485696  1
  Pb  Pb73  1  0.00553895  0.49177377  0.25703890  1
  Pb  Pb74  1  -0.00598001  0.50875008  0.50552092  1
  Pb  Pb75  1  -0.00727199  0.49480215  0.75003355  1
  Pb  Pb76  1  -0.00375517  0.75111910  -0.00603043  1
  Pb  Pb77  1  0.00477364  0.75405348  0.25050362  1
  Pb  Pb78  1  -0.01031985  0.74900893  0.50688238  1
  Pb  Pb79  1  -0.00056704  0.75566256  0.75096831  1
  Pb  Pb80  1  0.25344994  -0.00270667  -0.00384432  1
  Pb  Pb81  1  0.25278635  -0.01002565  0.25882020  1
  Pb  Pb82  1  0.24725652  -0.00224099  0.49953839  1
  Pb  Pb83  1  0.26104312  0.00026787  0.74957110  1
  Pb  Pb84  1  0.25073321  0.25031335  -0.00314685  1
  Pb  Pb85  1  0.24757868  0.25483783  0.25935318  1
  Pb  Pb86  1  0.24697949  0.25615006  0.50305496  1
  Pb  Pb87  1  0.24738289  0.25194109  0.73922023  1
  Pb  Pb88  1  0.25231143  0.51124349  0.00804925  1
  Pb  Pb89  1  0.25235356  0.50310716  0.25664070  1
  Pb  Pb90  1  0.25042997  0.49474191  0.49962389  1
  Pb  Pb91  1  0.24851686  0.49432374  0.73869629  1
  Pb  Pb92  1  0.25111318  0.74331325  0.00221871  1
  Pb  Pb93  1  0.25705037  0.75211158  0.25522090  1
  Pb  Pb94  1  0.25787273  0.75406914  0.49465115  1
  Pb  Pb95  1  0.25333772  0.75814706  0.74530602  1
  Pb  Pb96  1  0.50025466  -0.00430040  -0.00555706  1
  Pb  Pb97  1  0.49441933  -0.00445544  0.25616744  1
  Pb  Pb98  1  0.51202290  -0.00500223  0.50960963  1
  Pb  Pb99  1  0.49892827  -0.00865673  0.74247013  1
  Pb  Pb100  1  0.50537077  0.25588453  0.00091665  1
  Pb  Pb101  1  0.50797142  0.25699745  0.25959268  1
  Pb  Pb102  1  0.50784134  0.25036318  0.50579242  1
  Pb  Pb103  1  0.50116820  0.25487033  0.73933415  1
  Pb  Pb104  1  0.49589794  0.50470144  0.00309712  1
  Pb  Pb105  1  0.50844425  0.51244679  0.26547200  1
  Pb  Pb106  1  0.50230352  0.50892123  0.49989704  1
  Pb  Pb107  1  0.50018694  0.49911433  0.72944113  1
  Pb  Pb108  1  0.50125159  0.75173458  -0.00309972  1
  Pb  Pb109  1  0.50007630  0.74212037  0.26192090  1
  Pb  Pb110  1  0.49494013  0.74437306  0.50003917  1
  Pb  Pb111  1  0.49695211  0.75284302  0.73310005  1
  Pb  Pb112  1  0.74822934  -0.01593131  0.00148921  1
  Pb  Pb113  1  0.75103330  -0.00015195  0.24824514  1
  Pb  Pb114  1  0.75310047  -0.00974530  0.51102413  1
  Pb  Pb115  1  0.74935801  -0.00382539  0.73987514  1
  Pb  Pb116  1  0.74362881  0.25707706  -0.00101069  1
  Pb  Pb117  1  0.74633445  0.25436744  0.25515523  1
  Pb  Pb118  1  0.74464805  0.24487910  0.50669556  1
  Pb  Pb119  1  0.74616289  0.25853774  0.74218829  1
  Pb  Pb120  1  0.74801256  0.49553348  -0.00651374  1
  Pb  Pb121  1  0.74099952  0.49749417  0.25809407  1
  Pb  Pb122  1  0.74212337  0.50452528  0.50389582  1
  Pb  Pb123  1  0.75135267  0.49955817  0.74129079  1
  Pb  Pb124  1  0.75232770  0.75538359  -0.00666647  1
  Pb  Pb125  1  0.74624517  0.74575597  0.25304179  1
  Pb  Pb126  1  0.75455806  0.75661614  0.51064054  1
  Pb  Pb127  1  0.74694125  0.75194167  0.73900157  1
  O  O128  1  0.12520707  0.00114858  0.16980436  1
  O  O129  1  0.11906858  0.00491491  0.41290459  1
  O  O130  1  0.12402288  -0.00758044  0.65664535  1
  O  O131  1  0.12593294  0.00736056  0.91249597  1
  O  O132  1  0.12524373  0.25020911  0.17281721  1
  O  O133  1  0.11898099  0.24228019  0.41423296  1
  O  O134  1  0.12538562  0.25109215  0.65514477  1
  O  O135  1  0.12817213  0.24649099  0.91479891  1
  O  O136  1  0.12472954  0.49532960  0.17031136  1
  O  O137  1  0.11784080  0.51120079  0.41394116  1
  O  O138  1  0.12678717  0.50657443  0.65264695  1
  O  O139  1  0.12970769  0.50528661  0.91471134  1
  O  O140  1  0.12615739  0.75322440  0.16770169  1
  O  O141  1  0.11791200  0.74267850  0.41070551  1
  O  O142  1  0.12619109  0.75090886  0.66135633  1
  O  O143  1  0.12834281  0.74172302  0.91567763  1
  O  O144  1  0.37503541  -0.00022253  0.16975981  1
  O  O145  1  0.37093229  0.01188514  0.41579549  1
  O  O146  1  0.36969010  0.00400417  0.65650088  1
  O  O147  1  0.37490758  0.00266950  0.91712560  1
  O  O148  1  0.37267035  0.25338586  0.17435198  1
  O  O149  1  0.36978101  0.24130244  0.41723973  1
  O  O150  1  0.37041283  0.24491373  0.65305187  1
  O  O151  1  0.37408398  0.25634104  0.91258222  1
  O  O152  1  0.37536010  0.48880669  0.17262423  1
  O  O153  1  0.37199129  0.49382029  0.40533498  1
  O  O154  1  0.36986947  0.50096990  0.65237180  1
  O  O155  1  0.37685161  0.49752179  0.91744740  1
  O  O156  1  0.37633174  0.75790343  0.16622367  1
  O  O157  1  0.37447893  0.75208393  0.40857626  1
  O  O158  1  0.36932147  0.75064929  0.65292447  1
  O  O159  1  0.37664031  0.74392783  0.91469054  1
  O  O160  1  0.62470570  0.00482965  0.16843824  1
  O  O161  1  0.62961273  -0.00114855  0.41937987  1
  O  O162  1  0.62281398  0.00307436  0.66025212  1
  O  O163  1  0.62655597  0.01092769  0.90890468  1
  O  O164  1  0.62535936  0.24553646  0.17181290  1
  O  O165  1  0.62796702  0.24345282  0.41646004  1
  O  O166  1  0.62347037  0.24997381  0.65946805  1
  O  O167  1  0.62403697  0.24325918  0.91567685  1
  O  O168  1  0.62638923  0.50361992  0.16822425  1
  O  O169  1  0.62880300  0.49816149  0.41401117  1
  O  O170  1  0.62502900  0.49802169  0.65090283  1
  O  O171  1  0.62094388  0.50485680  0.91179712  1
  O  O172  1  0.62629280  0.74468098  0.16792271  1
  O  O173  1  0.62834651  0.75928457  0.41423015  1
  O  O174  1  0.62386707  0.74925695  0.65478011  1
  O  O175  1  0.62165095  0.74159260  0.90927420  1
  O  O176  1  0.87587042  0.00629895  0.16532964  1
  O  O177  1  0.87443970  -0.00495884  0.41541150  1
  O  O178  1  0.88005668  -0.00019508  0.66026902  1
  O  O179  1  0.87810901  0.01328808  0.91332378  1
  O  O180  1  0.87653807  0.25084993  0.16945198  1
  O  O181  1  0.87727777  0.25188578  0.41297666  1
  O  O182  1  0.87881758  0.25832109  0.65726285  1
  O  O183  1  0.87899287  0.24249443  0.91583045  1
  O  O184  1  0.87308059  0.50196343  0.16890022  1
  O  O185  1  0.87526361  0.50436575  0.41314333  1
  O  O186  1  0.87764466  0.49273236  0.65919036  1
  O  O187  1  0.87484559  0.50161433  0.91783859  1
  O  O188  1  0.87188042  0.74049876  0.16491014  1
  O  O189  1  0.87418930  0.75253193  0.41505239  1
  O  O190  1  0.87866758  0.75016227  0.66543124  1
  O  O191  1  0.87617778  0.74537150  0.90912270  1
  O  O192  1  0.00246168  0.12668826  0.16856615  1
  O  O193  1  -0.00158357  0.12300616  0.41553026  1
  O  O194  1  0.00132276  0.12694336  0.66559205  1
  O  O195  1  0.00693070  0.12768259  0.91277432  1
  O  O196  1  -0.00048966  0.37415094  0.17013492  1
  O  O197  1  -0.01021401  0.37945651  0.41954388  1
  O  O198  1  -0.00206404  0.37723887  0.65386873  1
  O  O199  1  0.00334589  0.37509478  0.91671766  1
  O  O200  1  -0.00597741  0.62301000  0.16254957  1
  O  O201  1  -0.00563786  0.62795210  0.41659590  1
  O  O202  1  0.01105828  0.62618711  0.66406513  1
  O  O203  1  0.00749819  0.62254298  0.90821317  1
  O  O204  1  -0.00018232  0.87505633  0.16522792  1
  O  O205  1  -0.00689361  0.87412032  0.41440993  1
  O  O206  1  0.00829130  0.87129594  0.66127731  1
  O  O207  1  0.00225052  0.87623090  0.91732920  1
  O  O208  1  0.25062279  0.12648979  0.17286331  1
  O  O209  1  0.24467526  0.12476808  0.41068506  1
  O  O210  1  0.25215647  0.12370626  0.65822063  1
  O  O211  1  0.24450714  0.12723616  0.91512658  1
  O  O212  1  0.25153419  0.37266251  0.17279152  1
  O  O213  1  0.25137595  0.37115358  0.41071538  1
  O  O214  1  0.24942794  0.37515810  0.65655879  1
  O  O215  1  0.25748446  0.37692961  0.91617558  1
  O  O216  1  0.25036681  0.62368423  0.17447696  1
  O  O217  1  0.24155802  0.62521027  0.39872386  1
  O  O218  1  0.24161196  0.62779518  0.65932421  1
  O  O219  1  0.25205798  0.62280692  0.91728782  1
  O  O220  1  0.25446303  0.87767848  0.16877179  1
  O  O221  1  0.24347101  0.87820009  0.41199216  1
  O  O222  1  0.24406691  0.87450015  0.65825622  1
  O  O223  1  0.24991313  0.87405343  0.91982093  1
  O  O224  1  0.49781334  0.12673582  0.17115447  1
  O  O225  1  0.49738260  0.12518246  0.41185667  1
  O  O226  1  0.49062514  0.12480599  0.65580711  1
  O  O227  1  0.50346333  0.12749197  0.90987860  1
  O  O228  1  0.49524253  0.37010520  0.16839064  1
  O  O229  1  0.49258488  0.36713614  0.41248193  1
  O  O230  1  0.49601029  0.37193252  0.64958561  1
  O  O231  1  0.49293125  0.37468608  0.91589053  1
  O  O232  1  0.50748850  0.62399263  0.16989133  1
  O  O233  1  0.49938007  0.62478472  0.41314077  1
  O  O234  1  0.49735806  0.62490969  0.65202513  1
  O  O235  1  0.50143868  0.62231650  0.91679977  1
  O  O236  1  0.49659209  0.87843644  0.16626667  1
  O  O237  1  0.50763348  0.88168661  0.41278880  1
  O  O238  1  0.49526602  0.87818595  0.65215657  1
  O  O239  1  0.50048645  0.87566241  0.91559802  1
  O  O240  1  0.75036428  0.12640516  0.16753076  1
  O  O241  1  0.75361461  0.12376746  0.41891286  1
  O  O242  1  0.75254089  0.12806871  0.65707365  1
  O  O243  1  0.75078197  0.13063641  0.90298766  1
  O  O244  1  0.75379969  0.37391005  0.16977693  1
  O  O245  1  0.76152699  0.37518099  0.41808617  1
  O  O246  1  0.75619413  0.37405285  0.65378567  1
  O  O247  1  0.74896046  0.37221159  0.91492771  1
  O  O248  1  0.74885918  0.62246949  0.16909105  1
  O  O249  1  0.75937869  0.62907810  0.41574047  1
  O  O250  1  0.74948130  0.62274835  0.65767454  1
  O  O251  1  0.74121538  0.62226663  0.90458588  1
  O  O252  1  0.75022274  0.87531157  0.16993172  1
  O  O253  1  0.75292618  0.87649101  0.41838821  1
  O  O254  1  0.74998001  0.87615081  0.65992406  1
  O  O255  1  0.74936944  0.87672154  0.91094309  1
  O  O256  1  0.12807975  0.12654196  0.05313877  1
  O  O257  1  0.12290914  0.12431790  0.30093772  1
  O  O258  1  0.11563279  0.12031848  0.53104976  1
  O  O259  1  0.12636296  0.12635800  0.79582909  1
  O  O260  1  0.12807536  0.37341186  0.05375644  1
  O  O261  1  0.11336639  0.37409929  0.29687619  1
  O  O262  1  0.13204219  0.37770107  0.52309896  1
  O  O263  1  0.12949697  0.37618796  0.78442543  1
  O  O264  1  0.13436531  0.62241293  0.04014775  1
  O  O265  1  0.11348225  0.62498956  0.29434219  1
  O  O266  1  0.12251349  0.63024583  0.54258204  1
  O  O267  1  0.13147350  0.62438638  0.79867794  1
  O  O268  1  0.12653837  0.87708941  0.05286531  1
  O  O269  1  0.11899516  0.87656278  0.28435985  1
  O  O270  1  0.12471228  0.87192325  0.54419866  1
  O  O271  1  0.12619961  0.87044820  0.78515166  1
  O  O272  1  0.37542342  0.12928090  0.05485804  1
  O  O273  1  0.37754230  0.12651734  0.29923865  1
  O  O274  1  0.37171233  0.12217397  0.54195800  1
  O  O275  1  0.36805119  0.12304062  0.78304033  1
  O  O276  1  0.37519283  0.37304688  0.05588511  1
  O  O277  1  0.37428453  0.36420184  0.30413134  1
  O  O278  1  0.36371326  0.37532709  0.52034244  1
  O  O279  1  0.37366240  0.37840925  0.79761558  1
  O  O280  1  0.37571058  0.61535622  0.04779854  1
  O  O281  1  0.38532408  0.62484155  0.28346227  1
  O  O282  1  0.37022320  0.62592191  0.52145421  1
  O  O283  1  0.37537812  0.62177698  0.79632600  1
  O  O284  1  0.37666476  0.87833171  0.05359541  1
  O  O285  1  0.37571305  0.88627158  0.29266156  1
  O  O286  1  0.36739568  0.87695119  0.52265763  1
  O  O287  1  0.36795566  0.87934449  0.78387093  1
  O  O288  1  0.62263781  0.12684673  0.05080348  1
  O  O289  1  0.62859244  0.12056855  0.30494959  1
  O  O290  1  0.61971609  0.12717037  0.52894712  1
  O  O291  1  0.61775419  0.12972036  0.79250539  1
  O  O292  1  0.62428005  0.36654370  0.04133049  1
  O  O293  1  0.63115470  0.36827873  0.29431247  1
  O  O294  1  0.62801688  0.36584192  0.52360447  1
  O  O295  1  0.62255581  0.36691027  0.78453211  1
  O  O296  1  0.62699685  0.62544889  0.05363930  1
  O  O297  1  0.62465212  0.62691231  0.29411986  1
  O  O298  1  0.62360812  0.62247072  0.52177160  1
  O  O299  1  0.61777000  0.62206494  0.79286402  1
  O  O300  1  0.63130441  0.87689960  0.03797466  1
  O  O301  1  0.62933691  0.87809151  0.30386108  1
  O  O302  1  0.63017251  0.88281265  0.53135024  1
  O  O303  1  0.61932721  0.87775883  0.78049073  1
  O  O304  1  0.87537990  0.12946308  0.05006501  1
  O  O305  1  0.87493629  0.12334045  0.30423757  1
  O  O306  1  0.88683122  0.12588728  0.53046679  1
  O  O307  1  0.87469696  0.12916198  0.79511219  1
  O  O308  1  0.87463795  0.37557889  0.05046511  1
  O  O309  1  0.87721754  0.37342660  0.30106465  1
  O  O310  1  0.87672371  0.37673927  0.54068148  1
  O  O311  1  0.87861336  0.37939568  0.78478178  1
  O  O312  1  0.87266007  0.62140893  0.05082102  1
  O  O313  1  0.87661670  0.62450002  0.30137539  1
  O  O314  1  0.88533251  0.62730618  0.53930848  1
  O  O315  1  0.87726779  0.60974060  0.77676965  1
  O  O316  1  0.86842634  0.87680419  0.03602426  1
  O  O317  1  0.87350705  0.87374165  0.30257480  1
  O  O318  1  0.87156976  0.86784377  0.53577185  1
  O  O319  1  0.88453086  0.87936601  0.78263920  1
