# generated using pymatgen
data_VFe(PbO3)2
_symmetry_space_group_name_H-M   'P 1'
_cell_length_a   15.36980629
_cell_length_b   15.37461613
_cell_length_c   18.55212138
_cell_angle_alpha   89.96322327
_cell_angle_beta   90.00555400
_cell_angle_gamma   89.99753756
_symmetry_Int_Tables_number   1
_chemical_formula_structural   VFe(PbO3)2
_chemical_formula_sum   'V32 Fe32 Pb64 O192'
_cell_volume   4383.95573479
_cell_formula_units_Z   32
loop_
 _symmetry_equiv_pos_site_id
 _symmetry_equiv_pos_as_xyz
  1  'x, y, z'
loop_
 _atom_site_type_symbol
 _atom_site_label
 _atom_site_symmetry_multiplicity
 _atom_site_fract_x
 _atom_site_fract_y
 _atom_site_fract_z
 _atom_site_occupancy
  V  V0  1  0.62308092  0.11991825  0.63516170  1
  V  V1  1  0.62461667  0.87326896  0.88981530  1
  V  V2  1  0.37613371  0.37078982  0.13447829  1
  V  V3  1  0.87370393  0.62220039  0.14105809  1
  V  V4  1  0.37300781  0.87511993  0.64293393  1
  V  V5  1  0.12286740  0.87472434  0.64089155  1
  V  V6  1  0.87431206  0.37489133  0.88712245  1
  V  V7  1  0.37716950  0.62204503  0.89065508  1
  V  V8  1  0.87636435  0.12462362  0.38700547  1
  V  V9  1  0.62573206  0.87378720  0.14112952  1
  V  V10  1  0.37487221  0.12022282  0.89524792  1
  V  V11  1  0.12775768  0.62369109  0.38574404  1
  V  V12  1  0.87270402  0.87435433  0.14039161  1
  V  V13  1  0.37327530  0.37295550  0.38907144  1
  V  V14  1  0.37481733  0.87415075  0.13677949  1
  V  V15  1  0.37666125  0.61951843  0.13853522  1
  V  V16  1  0.12596496  0.12317216  0.64051960  1
  V  V17  1  0.87313468  0.37196055  0.14089833  1
  V  V18  1  0.62585581  0.12491606  0.89020120  1
  V  V19  1  0.87226124  0.12462711  0.13718915  1
  V  V20  1  0.37589684  0.36984668  0.89108978  1
  V  V21  1  0.62419575  0.87745241  0.38863143  1
  V  V22  1  0.12774337  0.87806927  0.38534898  1
  V  V23  1  0.37198555  0.62217938  0.63875918  1
  V  V24  1  0.13333254  0.87522657  0.90248924  1
  V  V25  1  0.87848407  0.62370937  0.63937190  1
  V  V26  1  0.37478339  0.12094356  0.38708727  1
  V  V27  1  0.37508926  0.62342076  0.38745421  1
  V  V28  1  0.12661691  0.62994067  0.63954003  1
  V  V29  1  0.87623811  0.87409064  0.63973033  1
  V  V30  1  0.12436194  0.62487771  0.89468582  1
  V  V31  1  0.87668129  0.87451128  0.89349267  1
  Fe  Fe32  1  0.62514525  0.12508134  0.14382787  1
  Fe  Fe33  1  0.37976413  0.87159944  0.89058218  1
  Fe  Fe34  1  0.87604059  0.87517173  0.38167080  1
  Fe  Fe35  1  0.62434531  0.12542587  0.38266560  1
  Fe  Fe36  1  0.62413143  0.62898229  0.63679445  1
  Fe  Fe37  1  0.62406934  0.37344312  0.39017135  1
  Fe  Fe38  1  0.37310240  0.12320976  0.63482700  1
  Fe  Fe39  1  0.12313488  0.12386514  0.89310794  1
  Fe  Fe40  1  0.37241544  0.37211112  0.63343730  1
  Fe  Fe41  1  0.12522937  0.37594799  0.89046591  1
  Fe  Fe42  1  0.87655861  0.62832068  0.38269534  1
  Fe  Fe43  1  0.12613250  0.12415600  0.37978452  1
  Fe  Fe44  1  0.12332639  0.62747360  0.13522941  1
  Fe  Fe45  1  0.87532964  0.62398295  0.88501801  1
  Fe  Fe46  1  0.37733115  0.12617157  0.13132313  1
  Fe  Fe47  1  0.87272600  0.12532056  0.88543278  1
  Fe  Fe48  1  0.87580381  0.12109021  0.63842366  1
  Fe  Fe49  1  0.62483840  0.37540515  0.62895011  1
  Fe  Fe50  1  0.12430669  0.37846811  0.13471203  1
  Fe  Fe51  1  0.87831890  0.37744772  0.38496033  1
  Fe  Fe52  1  0.12402278  0.12569755  0.13353518  1
  Fe  Fe53  1  0.12725700  0.37178408  0.38219427  1
  Fe  Fe54  1  0.12461573  0.37755581  0.63688127  1
  Fe  Fe55  1  0.62624439  0.62369576  0.88168075  1
  Fe  Fe56  1  0.62730556  0.87519318  0.63429470  1
  Fe  Fe57  1  0.62371311  0.62594478  0.38068900  1
  Fe  Fe58  1  0.62449387  0.62677773  0.14701575  1
  Fe  Fe59  1  0.37439657  0.87245031  0.38129729  1
  Fe  Fe60  1  0.62407739  0.37491832  0.88673501  1
  Fe  Fe61  1  0.87744502  0.37293181  0.63045657  1
  Fe  Fe62  1  0.12177740  0.87285044  0.12823217  1
  Fe  Fe63  1  0.62458769  0.37638719  0.13698580  1
  Pb  Pb64  1  0.00259151  0.00246434  0.00316667  1
  Pb  Pb65  1  0.00611340  0.00345905  0.24478909  1
  Pb  Pb66  1  -0.00445008  0.00808292  0.49934852  1
  Pb  Pb67  1  0.00280898  0.00823295  0.75906219  1
  Pb  Pb68  1  0.00338831  0.24872078  -0.00330016  1
  Pb  Pb69  1  0.00070292  0.25979187  0.25012109  1
  Pb  Pb70  1  0.00317218  0.25659561  0.49709331  1
  Pb  Pb71  1  -0.00200499  0.24862292  0.74774950  1
  Pb  Pb72  1  0.00482289  0.49735609  0.00261120  1
  Pb  Pb73  1  -0.00523777  0.49599574  0.25229834  1
  Pb  Pb74  1  -0.00164900  0.48877744  0.49814673  1
  Pb  Pb75  1  0.00275185  0.49307747  0.75030071  1
  Pb  Pb76  1  0.00459780  0.74990168  0.00572131  1
  Pb  Pb77  1  -0.00649826  0.75031020  0.24908912  1
  Pb  Pb78  1  -0.00102434  0.75138497  0.49404781  1
  Pb  Pb79  1  -0.00445229  0.74673566  0.75498567  1
  Pb  Pb80  1  0.25037381  0.00954362  0.00924455  1
  Pb  Pb81  1  0.24554162  0.00587384  0.24245153  1
  Pb  Pb82  1  0.25457260  0.00646710  0.49898379  1
  Pb  Pb83  1  0.24326869  0.00333462  0.75705370  1
  Pb  Pb84  1  0.24038496  0.24898630  0.00320014  1
  Pb  Pb85  1  0.23774269  0.24755054  0.24456696  1
  Pb  Pb86  1  0.25286174  0.25072865  0.49975418  1
  Pb  Pb87  1  0.24561529  0.25210746  0.74961323  1
  Pb  Pb88  1  0.24528957  0.49843166  0.00457447  1
  Pb  Pb89  1  0.24113589  0.49581987  0.24736353  1
  Pb  Pb90  1  0.24920835  0.48901814  0.50334948  1
  Pb  Pb91  1  0.24474358  0.49239412  0.75197494  1
  Pb  Pb92  1  0.24652537  0.74459750  0.00623200  1
  Pb  Pb93  1  0.25071100  0.75589497  0.24505050  1
  Pb  Pb94  1  0.25143012  0.74982167  0.49636554  1
  Pb  Pb95  1  0.25639360  0.75598258  0.75523076  1
  Pb  Pb96  1  0.50336095  0.01034826  0.00748148  1
  Pb  Pb97  1  0.49836356  0.00252915  0.24895461  1
  Pb  Pb98  1  0.50322620  -0.00428288  0.49882543  1
  Pb  Pb99  1  0.49458489  -0.00580151  0.75016442  1
  Pb  Pb100  1  0.50328353  0.24485133  0.00511085  1
  Pb  Pb101  1  0.50892825  0.24904271  0.25099683  1
  Pb  Pb102  1  0.49972839  0.25497560  0.49954104  1
  Pb  Pb103  1  0.50047062  0.25366865  0.74241702  1
  Pb  Pb104  1  0.51460051  0.49985619  0.00366388  1
  Pb  Pb105  1  0.51212341  0.49728123  0.25499901  1
  Pb  Pb106  1  0.51183253  0.50165987  0.50145560  1
  Pb  Pb107  1  0.51152970  0.49348223  0.74746427  1
  Pb  Pb108  1  0.50573504  0.74097360  0.00292271  1
  Pb  Pb109  1  0.49624728  0.75427381  0.25298730  1
  Pb  Pb110  1  0.50952768  0.75098915  0.50276876  1
  Pb  Pb111  1  0.50208091  0.74878127  0.74957146  1
  Pb  Pb112  1  0.74441741  0.00222129  0.00278516  1
  Pb  Pb113  1  0.75278046  -0.00058659  0.25299930  1
  Pb  Pb114  1  0.75494698  0.00477133  0.49947008  1
  Pb  Pb115  1  0.75575537  0.00359266  0.75009595  1
  Pb  Pb116  1  0.74086495  0.25469133  0.00157367  1
  Pb  Pb117  1  0.74053430  0.25547812  0.25561154  1
  Pb  Pb118  1  0.75195263  0.25704096  0.49534033  1
  Pb  Pb119  1  0.75034966  0.25406203  0.74050118  1
  Pb  Pb120  1  0.74475308  0.50047401  -0.00177972  1
  Pb  Pb121  1  0.74466986  0.50084058  0.25500026  1
  Pb  Pb122  1  0.74929899  0.50055360  0.48950235  1
  Pb  Pb123  1  0.74071722  0.49723405  0.74579135  1
  Pb  Pb124  1  0.74529612  0.73850205  0.00159165  1
  Pb  Pb125  1  0.75847810  0.74702983  0.25639620  1
  Pb  Pb126  1  0.74342116  0.74664570  0.49536405  1
  Pb  Pb127  1  0.74941299  0.74093568  0.75076743  1
  O  O128  1  0.12285305  -0.00281737  0.15835307  1
  O  O129  1  0.12880883  -0.00529296  0.40968462  1
  O  O130  1  0.12657668  -0.00300228  0.67045752  1
  O  O131  1  0.12586168  -0.00720411  0.91967318  1
  O  O132  1  0.12429124  0.25218764  0.15739907  1
  O  O133  1  0.12817599  0.24673858  0.40912899  1
  O  O134  1  0.12461082  0.24074563  0.65883181  1
  O  O135  1  0.12681110  0.25085639  0.91494353  1
  O  O136  1  0.12573350  0.50350599  0.16432154  1
  O  O137  1  0.12883236  0.50860305  0.40648754  1
  O  O138  1  0.12581143  0.50945013  0.66653799  1
  O  O139  1  0.12586113  0.50621593  0.91578272  1
  O  O140  1  0.12513771  0.75185820  0.16343999  1
  O  O141  1  0.13110254  0.75272810  0.41158665  1
  O  O142  1  0.12635002  0.75224895  0.67110643  1
  O  O143  1  0.12383007  0.74970610  0.91877869  1
  O  O144  1  0.37936754  -0.00828782  0.15750375  1
  O  O145  1  0.37433925  0.00292418  0.40823814  1
  O  O146  1  0.37225743  -0.00585108  0.66575497  1
  O  O147  1  0.37857066  0.00326830  0.91498737  1
  O  O148  1  0.37474633  0.25619681  0.15476775  1
  O  O149  1  0.37150758  0.25203652  0.40919292  1
  O  O150  1  0.37244604  0.24612092  0.66749203  1
  O  O151  1  0.37696746  0.25089137  0.91337426  1
  O  O152  1  0.37399120  0.50420649  0.15809020  1
  O  O153  1  0.37040651  0.50410452  0.41079160  1
  O  O154  1  0.36949413  0.50761525  0.65829729  1
  O  O155  1  0.37233792  0.50547834  0.91464290  1
  O  O156  1  0.37884560  0.75407107  0.16278565  1
  O  O157  1  0.37017844  0.74381615  0.41211549  1
  O  O158  1  0.37132893  0.75304364  0.66764775  1
  O  O159  1  0.37515917  0.74133939  0.91797375  1
  O  O160  1  0.62698456  -0.00780068  0.16648199  1
  O  O161  1  0.62128767  -0.00236988  0.41249469  1
  O  O162  1  0.62395742  0.00123822  0.66548466  1
  O  O163  1  0.62413153  0.00222929  0.91450390  1
  O  O164  1  0.62574655  0.25289681  0.16682972  1
  O  O165  1  0.62223254  0.24663301  0.41597965  1
  O  O166  1  0.62430250  0.24006632  0.65650250  1
  O  O167  1  0.62227672  0.24482481  0.91269925  1
  O  O168  1  0.62489423  0.49980484  0.16750309  1
  O  O169  1  0.62056844  0.50180424  0.41132009  1
  O  O170  1  0.62468664  0.50290124  0.65983429  1
  O  O171  1  0.62429581  0.49981839  0.91518922  1
  O  O172  1  0.62547143  0.75815280  0.16761774  1
  O  O173  1  0.62047227  0.75570742  0.40976333  1
  O  O174  1  0.62386496  0.75299674  0.66713255  1
  O  O175  1  0.62432025  0.75418443  0.91022361  1
  O  O176  1  0.87091631  0.00442123  0.16160745  1
  O  O177  1  0.87596690  0.00068736  0.41281379  1
  O  O178  1  0.87776163  -0.00884034  0.66722140  1
  O  O179  1  0.86766787  -0.00803521  0.91902145  1
  O  O180  1  0.87538592  0.25118570  0.16020972  1
  O  O181  1  0.87780631  0.24082596  0.40955648  1
  O  O182  1  0.87836167  0.24667779  0.66316546  1
  O  O183  1  0.87397837  0.25545835  0.91253608  1
  O  O184  1  0.87500261  0.50204507  0.16155510  1
  O  O185  1  0.87935850  0.50472945  0.41086898  1
  O  O186  1  0.88048653  0.50840541  0.65592515  1
  O  O187  1  0.87468356  0.49435903  0.91262726  1
  O  O188  1  0.87193309  0.74855117  0.16295183  1
  O  O189  1  0.87823872  0.75366235  0.41629820  1
  O  O190  1  0.87973542  0.75462668  0.66667578  1
  O  O191  1  0.87115029  0.75783355  0.91878338  1
  O  O192  1  -0.00995413  0.12452450  0.15929291  1
  O  O193  1  -0.00325369  0.11977368  0.40993953  1
  O  O194  1  0.00796937  0.11735278  0.66520963  1
  O  O195  1  -0.00437447  0.12046698  0.91710912  1
  O  O196  1  -0.00697850  0.37783895  0.16190252  1
  O  O197  1  0.00425782  0.37462054  0.41298079  1
  O  O198  1  0.00091180  0.37614429  0.66776310  1
  O  O199  1  -0.00632692  0.37632610  0.91408393  1
  O  O200  1  -0.00766711  0.62764675  0.16125050  1
  O  O201  1  0.01252487  0.63238678  0.40934596  1
  O  O202  1  0.00041107  0.63188044  0.66679252  1
  O  O203  1  0.00432923  0.62746044  0.91509717  1
  O  O204  1  -0.00645310  0.87539926  0.15929681  1
  O  O205  1  0.01007653  0.87416319  0.40859041  1
  O  O206  1  0.00002556  0.87390065  0.66812845  1
  O  O207  1  -0.00663492  0.87551921  0.91595870  1
  O  O208  1  0.25284524  0.12231984  0.15838594  1
  O  O209  1  0.25617994  0.12345056  0.41242085  1
  O  O210  1  0.24342958  0.11928557  0.66775797  1
  O  O211  1  0.25747021  0.12321979  0.91574524  1
  O  O212  1  0.25864991  0.37966000  0.16029940  1
  O  O213  1  0.25457892  0.37802318  0.41291250  1
  O  O214  1  0.24839904  0.37505348  0.66911372  1
  O  O215  1  0.25879660  0.37816642  0.91684534  1
  O  O216  1  0.25974580  0.63106314  0.16227505  1
  O  O217  1  0.24847135  0.62724122  0.41588694  1
  O  O218  1  0.25274867  0.63145855  0.66798841  1
  O  O219  1  0.24817440  0.62715637  0.91672280  1
  O  O220  1  0.25632046  0.87320858  0.15209649  1
  O  O221  1  0.24672742  0.87504864  0.41283600  1
  O  O222  1  0.25044789  0.87419741  0.66857154  1
  O  O223  1  0.24995378  0.87170953  0.91766571  1
  O  O224  1  0.49804896  0.12336487  0.16687475  1
  O  O225  1  0.49111967  0.12636917  0.41044317  1
  O  O226  1  0.50475353  0.11993649  0.66139114  1
  O  O227  1  0.50197100  0.12479619  0.91668885  1
  O  O228  1  0.49099043  0.37938401  0.16139886  1
  O  O229  1  0.48899417  0.37621467  0.41352082  1
  O  O230  1  0.49881392  0.37467968  0.66102960  1
  O  O231  1  0.49166444  0.37762556  0.91537685  1
  O  O232  1  0.49095323  0.62875413  0.16744583  1
  O  O233  1  0.49076636  0.62612330  0.40851412  1
  O  O234  1  0.48825318  0.63024422  0.66190610  1
  O  O235  1  0.49594615  0.62440204  0.91192367  1
  O  O236  1  0.50371581  0.87446443  0.16310295  1
  O  O237  1  0.50176859  0.87598001  0.41240604  1
  O  O238  1  0.49222372  0.87443879  0.66415949  1
  O  O239  1  0.50872972  0.87578120  0.91716393  1
  O  O240  1  0.75742572  0.12741257  0.16675213  1
  O  O241  1  0.75563584  0.12140121  0.41108167  1
  O  O242  1  0.74306456  0.11945480  0.66198227  1
  O  O243  1  0.74347541  0.12454984  0.91411517  1
  O  O244  1  0.75702800  0.37688357  0.16506510  1
  O  O245  1  0.75241050  0.37341909  0.40970438  1
  O  O246  1  0.75109560  0.37414600  0.65745786  1
  O  O247  1  0.75499721  0.37371288  0.91300990  1
  O  O248  1  0.75632323  0.62554078  0.16621027  1
  O  O249  1  0.74874025  0.62993783  0.40900979  1
  O  O250  1  0.76015157  0.63162964  0.65814310  1
  O  O251  1  0.75053644  0.62633962  0.91517517  1
  O  O252  1  0.74702965  0.87528654  0.16747886  1
  O  O253  1  0.74297827  0.87578878  0.40971745  1
  O  O254  1  0.75866230  0.87382458  0.66046104  1
  O  O255  1  0.74247525  0.87601979  0.91692998  1
  O  O256  1  0.12913951  0.12167473  0.03123403  1
  O  O257  1  0.12875026  0.11956104  0.27943659  1
  O  O258  1  0.12772941  0.11584522  0.54948146  1
  O  O259  1  0.12491483  0.11386353  0.79305685  1
  O  O260  1  0.12566619  0.38349579  0.03295669  1
  O  O261  1  0.12699921  0.37478094  0.28112106  1
  O  O262  1  0.12584041  0.38111317  0.53668503  1
  O  O263  1  0.12681339  0.38296830  0.79039891  1
  O  O264  1  0.12550894  0.62794258  0.03494557  1
  O  O265  1  0.13109066  0.62719004  0.29467050  1
  O  O266  1  0.12806892  0.63031202  0.54891230  1
  O  O267  1  0.12655966  0.62723467  0.80413963  1
  O  O268  1  0.11908638  0.86862297  0.02697795  1
  O  O269  1  0.12932953  0.87647519  0.29425849  1
  O  O270  1  0.12460059  0.87710612  0.55009247  1
  O  O271  1  0.12538463  0.87328933  0.81149002  1
  O  O272  1  0.38270023  0.12274642  0.03068242  1
  O  O273  1  0.37278686  0.12401699  0.29604652  1
  O  O274  1  0.36600796  0.12309563  0.53592809  1
  O  O275  1  0.37788943  0.12345330  0.80441217  1
  O  O276  1  0.37626292  0.37595763  0.04347765  1
  O  O277  1  0.37313226  0.37421714  0.29856826  1
  O  O278  1  0.36425604  0.37207200  0.53366999  1
  O  O279  1  0.37471657  0.37253390  0.80003562  1
  O  O280  1  0.37964762  0.62545190  0.04720238  1
  O  O281  1  0.37084764  0.62464344  0.29678971  1
  O  O282  1  0.36951140  0.62887084  0.54799407  1
  O  O283  1  0.37361068  0.62388716  0.80003597  1
  O  O284  1  0.38178342  0.87115085  0.04600035  1
  O  O285  1  0.37633172  0.87115978  0.28233200  1
  O  O286  1  0.37108155  0.87286427  0.55203541  1
  O  O287  1  0.37807228  0.87107462  0.79162421  1
  O  O288  1  0.62123091  0.12377537  0.04236261  1
  O  O289  1  0.62468078  0.12879980  0.28234472  1
  O  O290  1  0.62358420  0.11503314  0.54419568  1
  O  O291  1  0.62377399  0.12290265  0.80003207  1
  O  O292  1  0.62606429  0.37485926  0.03580963  1
  O  O293  1  0.62025562  0.37333929  0.28785877  1
  O  O294  1  0.61846753  0.37604418  0.52833904  1
  O  O295  1  0.62459355  0.38133626  0.78673488  1
  O  O296  1  0.62063545  0.62892364  0.04518155  1
  O  O297  1  0.62280252  0.62098617  0.27954264  1
  O  O298  1  0.61794205  0.63275517  0.53600479  1
  O  O299  1  0.62900816  0.62185169  0.78144012  1
  O  O300  1  0.62713766  0.87361167  0.05003585  1
  O  O301  1  0.62277339  0.87869628  0.29761112  1
  O  O302  1  0.61775922  0.87353740  0.53490519  1
  O  O303  1  0.62449773  0.87703576  0.79896295  1
  O  O304  1  0.86787476  0.12444388  0.04631589  1
  O  O305  1  0.87518894  0.12259735  0.29615098  1
  O  O306  1  0.87679924  0.11110064  0.53884767  1
  O  O307  1  0.87447206  0.11619303  0.78563608  1
  O  O308  1  0.87239543  0.37404988  0.05015966  1
  O  O309  1  0.88711323  0.37518595  0.28391820  1
  O  O310  1  0.88645583  0.37219605  0.53019966  1
  O  O311  1  0.87592748  0.37463266  0.79593341  1
  O  O312  1  0.87115312  0.62432913  0.04971417  1
  O  O313  1  0.87930202  0.63415787  0.28252598  1
  O  O314  1  0.88442451  0.63271184  0.54894407  1
  O  O315  1  0.87642458  0.63274742  0.78591641  1
  O  O316  1  0.86696860  0.87530992  0.04952011  1
  O  O317  1  0.87184855  0.87255762  0.28202173  1
  O  O318  1  0.88082576  0.87436964  0.54890992  1
  O  O319  1  0.87403998  0.87425635  0.80261486  1
