# generated using pymatgen
data_VFe(PbO3)2
_symmetry_space_group_name_H-M   'P 1'
_cell_length_a   15.38914163
_cell_length_b   15.37725936
_cell_length_c   18.50979638
_cell_angle_alpha   89.98282900
_cell_angle_beta   89.99683339
_cell_angle_gamma   89.98928306
_symmetry_Int_Tables_number   1
_chemical_formula_structural   VFe(PbO3)2
_chemical_formula_sum   'V32 Fe32 Pb64 O192'
_cell_volume   4380.21017502
_cell_formula_units_Z   32
loop_
 _symmetry_equiv_pos_site_id
 _symmetry_equiv_pos_as_xyz
  1  'x, y, z'
loop_
 _atom_site_type_symbol
 _atom_site_label
 _atom_site_symmetry_multiplicity
 _atom_site_fract_x
 _atom_site_fract_y
 _atom_site_fract_z
 _atom_site_occupancy
  V  V0  1  0.62425711  0.37517901  0.88892756  1
  V  V1  1  0.12554200  0.12588833  0.63861557  1
  V  V2  1  0.62410682  0.12393676  0.39151832  1
  V  V3  1  0.37366593  0.12601261  0.63879882  1
  V  V4  1  0.62782018  0.63142833  0.39218018  1
  V  V5  1  0.37126952  0.12427666  0.39076462  1
  V  V6  1  0.62413426  0.12471348  0.63395107  1
  V  V7  1  0.62388467  0.62400721  0.14156506  1
  V  V8  1  0.12710424  0.62642329  0.13511162  1
  V  V9  1  0.62499337  0.87694172  0.39273762  1
  V  V10  1  0.62249499  0.37928525  0.39236651  1
  V  V11  1  0.37752201  0.37330765  0.88904476  1
  V  V12  1  0.62651173  0.87420439  0.13969408  1
  V  V13  1  0.12633747  0.37177246  0.38816804  1
  V  V14  1  0.62445302  0.62136719  0.88564850  1
  V  V15  1  0.37386226  0.37603795  0.14378585  1
  V  V16  1  0.12490017  0.87350907  0.39226957  1
  V  V17  1  0.62635227  0.13025476  0.88756949  1
  V  V18  1  0.37393394  0.37474642  0.63657771  1
  V  V19  1  0.62660874  0.61770646  0.63711186  1
  V  V20  1  0.37402855  0.12767005  0.89098662  1
  V  V21  1  0.87482997  0.37312098  0.88781566  1
  V  V22  1  0.13350235  0.62407939  0.64441209  1
  V  V23  1  0.62378583  0.86555267  0.64400364  1
  V  V24  1  0.87237089  0.12458895  0.14233032  1
  V  V25  1  0.87383568  0.87559481  0.13660699  1
  V  V26  1  0.37383188  0.87511070  0.13709816  1
  V  V27  1  0.88022687  0.62433609  0.64111562  1
  V  V28  1  0.12275999  0.62515969  0.39179422  1
  V  V29  1  0.62454889  0.12453674  0.14343472  1
  V  V30  1  0.87517192  0.87190068  0.39324053  1
  V  V31  1  0.62583004  0.37436582  0.14465102  1
  Fe  Fe32  1  0.87504786  0.37572952  0.62922830  1
  Fe  Fe33  1  0.62268753  0.87367879  0.87885054  1
  Fe  Fe34  1  0.87264975  0.62194304  0.88672068  1
  Fe  Fe35  1  0.12622028  0.87620042  0.87620198  1
  Fe  Fe36  1  0.37172150  0.62621479  0.39086870  1
  Fe  Fe37  1  0.12491648  0.62153220  0.87730801  1
  Fe  Fe38  1  0.12274547  0.12858100  0.88080818  1
  Fe  Fe39  1  0.87366522  0.62640479  0.13118699  1
  Fe  Fe40  1  0.12509142  0.87508856  0.64768023  1
  Fe  Fe41  1  0.87434167  0.12518391  0.63382459  1
  Fe  Fe42  1  0.37597995  0.87708097  0.64369910  1
  Fe  Fe43  1  0.37730426  0.62164697  0.87881343  1
  Fe  Fe44  1  0.87388587  0.12947017  0.87851745  1
  Fe  Fe45  1  0.12430846  0.37688828  0.13327666  1
  Fe  Fe46  1  0.12428456  0.37529737  0.63427350  1
  Fe  Fe47  1  0.62479116  0.37201916  0.63014277  1
  Fe  Fe48  1  0.12236572  0.87281830  0.13107731  1
  Fe  Fe49  1  0.12574818  0.11988315  0.38424681  1
  Fe  Fe50  1  0.37739101  0.62652565  0.13537141  1
  Fe  Fe51  1  0.87757456  0.62732820  0.38921168  1
  Fe  Fe52  1  0.37442837  0.37488734  0.38461195  1
  Fe  Fe53  1  0.87304888  0.37548925  0.14017447  1
  Fe  Fe54  1  0.87305957  0.87448831  0.64619622  1
  Fe  Fe55  1  0.12623299  0.37503737  0.88861519  1
  Fe  Fe56  1  0.12638606  0.12297044  0.13840209  1
  Fe  Fe57  1  0.37930641  0.12381660  0.13327415  1
  Fe  Fe58  1  0.87603466  0.37690125  0.38900724  1
  Fe  Fe59  1  0.37880461  0.62387849  0.64257774  1
  Fe  Fe60  1  0.37531607  0.87503189  0.39003523  1
  Fe  Fe61  1  0.37903270  0.87720229  0.87818500  1
  Fe  Fe62  1  0.87081407  0.87699429  0.87633607  1
  Fe  Fe63  1  0.87539089  0.12240658  0.39286795  1
  Pb  Pb64  1  0.00322349  0.00074457  -0.01402590  1
  Pb  Pb65  1  0.00264541  0.00671179  0.25219067  1
  Pb  Pb66  1  -0.00470429  0.00172829  0.50551566  1
  Pb  Pb67  1  -0.00977380  0.00315398  0.74832933  1
  Pb  Pb68  1  0.00958008  0.24574466  0.00080211  1
  Pb  Pb69  1  0.00147079  0.25130411  0.24858598  1
  Pb  Pb70  1  -0.00821809  0.24623852  0.49773285  1
  Pb  Pb71  1  -0.00053613  0.24838142  0.74493127  1
  Pb  Pb72  1  -0.00059924  0.50068512  -0.00423891  1
  Pb  Pb73  1  -0.00557916  0.49915548  0.24530711  1
  Pb  Pb74  1  -0.00111872  0.49311036  0.50066015  1
  Pb  Pb75  1  0.00661165  0.49714411  0.75160868  1
  Pb  Pb76  1  0.00261222  0.75323108  -0.01690039  1
  Pb  Pb77  1  -0.00374350  0.74289289  0.24636867  1
  Pb  Pb78  1  0.00431449  0.76297557  0.51070352  1
  Pb  Pb79  1  0.00087904  0.75630152  0.75401556  1
  Pb  Pb80  1  0.23622314  -0.00708563  -0.00375218  1
  Pb  Pb81  1  0.24464898  0.00207746  0.24639796  1
  Pb  Pb82  1  0.24744041  -0.01602504  0.50895697  1
  Pb  Pb83  1  0.24431201  -0.00244627  0.75270195  1
  Pb  Pb84  1  0.23810521  0.24610832  0.00571827  1
  Pb  Pb85  1  0.24569506  0.24534952  0.24602800  1
  Pb  Pb86  1  0.24183331  0.25411204  0.50064358  1
  Pb  Pb87  1  0.23872676  0.25091886  0.75374234  1
  Pb  Pb88  1  0.24699400  0.50296654  -0.00510901  1
  Pb  Pb89  1  0.25787011  0.50523978  0.25135565  1
  Pb  Pb90  1  0.24771129  0.49907045  0.50103876  1
  Pb  Pb91  1  0.24048925  0.49718751  0.75577977  1
  Pb  Pb92  1  0.25051796  0.75012780  -0.01685856  1
  Pb  Pb93  1  0.25911239  0.74944991  0.25084288  1
  Pb  Pb94  1  0.25059474  0.75431984  0.50787530  1
  Pb  Pb95  1  0.25387013  0.75813093  0.75209077  1
  Pb  Pb96  1  0.49711188  0.00350228  -0.00311649  1
  Pb  Pb97  1  0.49726738  -0.00657376  0.25052152  1
  Pb  Pb98  1  0.49400852  -0.00573433  0.50462488  1
  Pb  Pb99  1  0.50195223  -0.00561099  0.75371295  1
  Pb  Pb100  1  0.49610571  0.24611364  0.00485687  1
  Pb  Pb101  1  0.49853852  0.25441033  0.25293886  1
  Pb  Pb102  1  0.50541155  0.25245172  0.49945603  1
  Pb  Pb103  1  0.49884008  0.24918993  0.74674004  1
  Pb  Pb104  1  0.49618136  0.50391297  0.00224913  1
  Pb  Pb105  1  0.49404452  0.50242733  0.25642184  1
  Pb  Pb106  1  0.49205144  0.50582374  0.50120599  1
  Pb  Pb107  1  0.49636083  0.50062569  0.74871646  1
  Pb  Pb108  1  0.49250177  0.74823556  -0.00713902  1
  Pb  Pb109  1  0.49260350  0.75311927  0.25459232  1
  Pb  Pb110  1  0.48539016  0.74703180  0.50760627  1
  Pb  Pb111  1  0.49050762  0.74834630  0.75317524  1
  Pb  Pb112  1  0.75227243  -0.00188860  -0.01001724  1
  Pb  Pb113  1  0.75582350  0.00464825  0.25555652  1
  Pb  Pb114  1  0.76103887  -0.00112238  0.50906904  1
  Pb  Pb115  1  0.74886438  -0.00267273  0.74992873  1
  Pb  Pb116  1  0.75543492  0.25732893  0.00300456  1
  Pb  Pb117  1  0.76128167  0.25114106  0.26092990  1
  Pb  Pb118  1  0.75342727  0.25311024  0.49937828  1
  Pb  Pb119  1  0.75773892  0.25097667  0.74068026  1
  Pb  Pb120  1  0.75868233  0.49800862  0.00614787  1
  Pb  Pb121  1  0.76139046  0.50018816  0.25453117  1
  Pb  Pb122  1  0.75292533  0.49162120  0.50028437  1
  Pb  Pb123  1  0.75522724  0.49960593  0.74913186  1
  Pb  Pb124  1  0.75374606  0.74779028  -0.00759404  1
  Pb  Pb125  1  0.75296640  0.74536889  0.25001115  1
  Pb  Pb126  1  0.75704135  0.75538699  0.50740627  1
  Pb  Pb127  1  0.75814363  0.74566446  0.75835385  1
  O  O128  1  0.12368725  -0.00485159  0.16570499  1
  O  O129  1  0.12571070  -0.00977881  0.41375886  1
  O  O130  1  0.12974472  0.00977142  0.66124034  1
  O  O131  1  0.12777052  0.00302106  0.90619757  1
  O  O132  1  0.12576005  0.25065355  0.16618643  1
  O  O133  1  0.12813607  0.25397658  0.40713349  1
  O  O134  1  0.13062978  0.24661030  0.66132608  1
  O  O135  1  0.12705593  0.25131712  0.91605160  1
  O  O136  1  0.12653941  0.50853364  0.16215808  1
  O  O137  1  0.12602931  0.50359413  0.41189346  1
  O  O138  1  0.12389328  0.50353419  0.66434134  1
  O  O139  1  0.12622221  0.49805357  0.91615675  1
  O  O140  1  0.12558872  0.74548960  0.16194359  1
  O  O141  1  0.12404368  0.75174718  0.41981444  1
  O  O142  1  0.12361782  0.73951788  0.66720577  1
  O  O143  1  0.12633008  0.74872834  0.90211543  1
  O  O144  1  0.38140508  -0.00771938  0.16073161  1
  O  O145  1  0.37724396  0.00458586  0.41753646  1
  O  O146  1  0.37603533  0.01152162  0.66395003  1
  O  O147  1  0.38255572  0.01068674  0.90800968  1
  O  O148  1  0.38024846  0.25664665  0.16309550  1
  O  O149  1  0.37704150  0.24302012  0.41294833  1
  O  O150  1  0.37400733  0.24985438  0.66435699  1
  O  O151  1  0.38213314  0.25214138  0.91746233  1
  O  O152  1  0.37911100  0.49821256  0.16704138  1
  O  O153  1  0.37506217  0.50018518  0.41620065  1
  O  O154  1  0.38061234  0.49107419  0.65963598  1
  O  O155  1  0.38116731  0.49156392  0.91126500  1
  O  O156  1  0.37915966  0.75520474  0.16455302  1
  O  O157  1  0.37630501  0.75037629  0.42015335  1
  O  O158  1  0.38032653  0.74959183  0.66434696  1
  O  O159  1  0.38152916  0.74868102  0.90367675  1
  O  O160  1  0.62579973  -0.00190984  0.16903085  1
  O  O161  1  0.62507308  -0.00652236  0.41608780  1
  O  O162  1  0.61986955  0.01069905  0.66222777  1
  O  O163  1  0.62320016  0.01296519  0.90887480  1
  O  O164  1  0.62422272  0.24992938  0.17097260  1
  O  O165  1  0.62304538  0.25048808  0.41275859  1
  O  O166  1  0.62072594  0.24304720  0.66047334  1
  O  O167  1  0.62309710  0.25068815  0.91855286  1
  O  O168  1  0.62430810  0.50523145  0.16669832  1
  O  O169  1  0.62439597  0.49917550  0.41142707  1
  O  O170  1  0.62397486  0.50136456  0.65773413  1
  O  O171  1  0.62303509  0.49789319  0.91513829  1
  O  O172  1  0.62572552  0.74954812  0.16686952  1
  O  O173  1  0.62740297  0.75003965  0.41586840  1
  O  O174  1  0.62380637  0.75026688  0.66006941  1
  O  O175  1  0.62278720  0.74061264  0.90409957  1
  O  O176  1  0.87038242  -0.00137177  0.16521484  1
  O  O177  1  0.87391932  -0.00810407  0.41953878  1
  O  O178  1  0.87386887  0.00260470  0.66375924  1
  O  O179  1  0.86828316  0.00345833  0.90658101  1
  O  O180  1  0.87006588  0.24247671  0.16528579  1
  O  O181  1  0.87469876  0.25033471  0.41315821  1
  O  O182  1  0.87507761  0.25002114  0.65740205  1
  O  O183  1  0.86878850  0.25695150  0.91347031  1
  O  O184  1  0.87182238  0.50378483  0.16513230  1
  O  O185  1  0.87603702  0.50306173  0.41496340  1
  O  O186  1  0.86721185  0.50696113  0.66139794  1
  O  O187  1  0.86739656  0.49119722  0.91373410  1
  O  O188  1  0.87130912  0.75578147  0.15922110  1
  O  O189  1  0.87415281  0.75238641  0.42234268  1
  O  O190  1  0.86680628  0.74115566  0.66674327  1
  O  O191  1  0.86849456  0.75024025  0.90795565  1
  O  O192  1  -0.01005647  0.12191055  0.16295292  1
  O  O193  1  0.00389308  0.12077795  0.41706773  1
  O  O194  1  0.00828447  0.12790610  0.65519477  1
  O  O195  1  -0.00310961  0.12935486  0.91054778  1
  O  O196  1  -0.00019123  0.37532076  0.16502913  1
  O  O197  1  0.00929266  0.37732142  0.41100775  1
  O  O198  1  -0.00089893  0.37840323  0.65918375  1
  O  O199  1  -0.00917641  0.37556610  0.90568704  1
  O  O200  1  0.00489602  0.62750810  0.15875776  1
  O  O201  1  0.00792809  0.62809090  0.41944115  1
  O  O202  1  -0.00592363  0.62363475  0.66073973  1
  O  O203  1  -0.00133817  0.62023017  0.90926742  1
  O  O204  1  -0.01016410  0.87494218  0.15875859  1
  O  O205  1  0.00245880  0.87216048  0.41766640  1
  O  O206  1  -0.00082340  0.87108028  0.66607901  1
  O  O207  1  -0.00216455  0.87642945  0.90145675  1
  O  O208  1  0.25561072  0.12275937  0.16407103  1
  O  O209  1  0.25535770  0.12319378  0.41182405  1
  O  O210  1  0.25444936  0.12836910  0.66386686  1
  O  O211  1  0.25943961  0.13121828  0.90771938  1
  O  O212  1  0.25689595  0.37779718  0.16210979  1
  O  O213  1  0.24553392  0.37697163  0.41371081  1
  O  O214  1  0.25804520  0.37530326  0.66245196  1
  O  O215  1  0.26238436  0.37250125  0.91171813  1
  O  O216  1  0.24720242  0.62695053  0.16100488  1
  O  O217  1  0.24027258  0.62848087  0.41785613  1
  O  O218  1  0.24887253  0.62097049  0.65884188  1
  O  O219  1  0.25303382  0.61975180  0.90497034  1
  O  O220  1  0.25799433  0.87347497  0.15719063  1
  O  O221  1  0.24472611  0.87184772  0.41590341  1
  O  O222  1  0.25182435  0.87578606  0.66679640  1
  O  O223  1  0.25460679  0.87816232  0.90562635  1
  O  O224  1  0.50381366  0.12404425  0.16915299  1
  O  O225  1  0.50027631  0.12198461  0.41747003  1
  O  O226  1  0.49595874  0.13009146  0.66109644  1
  O  O227  1  0.50389709  0.13160428  0.91660844  1
  O  O228  1  0.50154293  0.37779851  0.17140429  1
  O  O229  1  0.50341825  0.37339812  0.41348017  1
  O  O230  1  0.49442672  0.36942116  0.66091116  1
  O  O231  1  0.49938497  0.37294611  0.91756260  1
  O  O232  1  0.50657909  0.62736538  0.16776506  1
  O  O233  1  0.50990702  0.62545167  0.41617502  1
  O  O234  1  0.51121771  0.62406743  0.66554015  1
  O  O235  1  0.50678142  0.61874178  0.91248052  1
  O  O236  1  0.50145377  0.87336596  0.16680663  1
  O  O237  1  0.50817221  0.87383570  0.41619405  1
  O  O238  1  0.50704968  0.88148652  0.66433056  1
  O  O239  1  0.50211256  0.87949145  0.91314266  1
  O  O240  1  0.75078516  0.12238057  0.17182819  1
  O  O241  1  0.74220272  0.12176401  0.41686109  1
  O  O242  1  0.74095416  0.12638423  0.65284857  1
  O  O243  1  0.74276147  0.13209194  0.90991346  1
  O  O244  1  0.74379288  0.37561239  0.17193448  1
  O  O245  1  0.74244343  0.37457821  0.41238407  1
  O  O246  1  0.74883312  0.37376763  0.65998243  1
  O  O247  1  0.74678388  0.37324962  0.91618877  1
  O  O248  1  0.74272395  0.62787620  0.16515731  1
  O  O249  1  0.74307200  0.62472530  0.41782908  1
  O  O250  1  0.74180013  0.62562483  0.66419260  1
  O  O251  1  0.73943959  0.61997889  0.91356819  1
  O  O252  1  0.75264519  0.87569432  0.16653350  1
  O  O253  1  0.74637746  0.87246677  0.41813129  1
  O  O254  1  0.73923363  0.88093370  0.66395336  1
  O  O255  1  0.74417814  0.87636028  0.91156847  1
  O  O256  1  0.12425934  0.12957669  0.03750841  1
  O  O257  1  0.12424736  0.11673086  0.28373840  1
  O  O258  1  0.13238388  0.12794088  0.54706123  1
  O  O259  1  0.12718675  0.13421050  0.78050151  1
  O  O260  1  0.12762852  0.37087487  0.03315607  1
  O  O261  1  0.12792329  0.37652231  0.29715125  1
  O  O262  1  0.13260471  0.37581290  0.53417276  1
  O  O263  1  0.13129505  0.37980587  0.78657731  1
  O  O264  1  0.12778915  0.62489797  0.04421609  1
  O  O265  1  0.12161910  0.62977424  0.30092149  1
  O  O266  1  0.12429477  0.62414356  0.55304121  1
  O  O267  1  0.12321498  0.61070962  0.77667439  1
  O  O268  1  0.12858692  0.87824567  0.03178021  1
  O  O269  1  0.12311176  0.86946825  0.30149360  1
  O  O270  1  0.13020273  0.87109894  0.54460228  1
  O  O271  1  0.13018529  0.87499810  0.77398506  1
  O  O272  1  0.38526423  0.12628121  0.03408843  1
  O  O273  1  0.37592796  0.12172557  0.29971296  1
  O  O274  1  0.37254341  0.12597366  0.54784357  1
  O  O275  1  0.38091216  0.13372557  0.79991192  1
  O  O276  1  0.37979721  0.37951542  0.05302555  1
  O  O277  1  0.37753049  0.37943856  0.28539978  1
  O  O278  1  0.37232896  0.37112134  0.54493564  1
  O  O279  1  0.38050883  0.37050312  0.79785200  1
  O  O280  1  0.38608760  0.62434862  0.03631224  1
  O  O281  1  0.36955700  0.62845341  0.28926730  1
  O  O282  1  0.38630588  0.62395474  0.54093977  1
  O  O283  1  0.38720255  0.61889184  0.77742704  1
  O  O284  1  0.37990789  0.87296268  0.04608986  1
  O  O285  1  0.37798225  0.87119838  0.29014700  1
  O  O286  1  0.37534282  0.88108074  0.54062364  1
  O  O287  1  0.38249066  0.87897788  0.77674197  1
  O  O288  1  0.62787802  0.12524363  0.05268970  1
  O  O289  1  0.62425941  0.12166584  0.30031778  1
  O  O290  1  0.61858123  0.12401015  0.54247745  1
  O  O291  1  0.62230173  0.13402674  0.79653488  1
  O  O292  1  0.62484260  0.37410332  0.05368578  1
  O  O293  1  0.62207327  0.37682998  0.30104948  1
  O  O294  1  0.62510610  0.37034039  0.53061448  1
  O  O295  1  0.62427260  0.37246886  0.79801214  1
  O  O296  1  0.62247219  0.62477984  0.05070897  1
  O  O297  1  0.62913883  0.63098153  0.30114944  1
  O  O298  1  0.62565338  0.62282370  0.54608252  1
  O  O299  1  0.62451197  0.61495910  0.79452105  1
  O  O300  1  0.62540232  0.87438339  0.04834064  1
  O  O301  1  0.62615873  0.87504478  0.30188936  1
  O  O302  1  0.62344846  0.87382606  0.55248890  1
  O  O303  1  0.62358007  0.88359819  0.77892035  1
  O  O304  1  0.86733364  0.12432821  0.05181036  1
  O  O305  1  0.87087050  0.11826026  0.29189928  1
  O  O306  1  0.87695610  0.11793169  0.53130385  1
  O  O307  1  0.87810151  0.13426225  0.77812031  1
  O  O308  1  0.86350861  0.37469124  0.04033806  1
  O  O309  1  0.87010904  0.37575950  0.28722993  1
  O  O310  1  0.87363134  0.37915694  0.52756509  1
  O  O311  1  0.86742408  0.37410988  0.79631534  1
  O  O312  1  0.86588537  0.62058668  0.03141588  1
  O  O313  1  0.87639930  0.63420119  0.28901587  1
  O  O314  1  0.87492580  0.62747294  0.54984129  1
  O  O315  1  0.86154089  0.62010975  0.78608074  1
  O  O316  1  0.86874403  0.88003418  0.04601200  1
  O  O317  1  0.87625002  0.87190310  0.30204169  1
  O  O318  1  0.86893510  0.87167403  0.54384403  1
  O  O319  1  0.86567167  0.87363982  0.77441982  1
