# generated using pymatgen
data_VFe(PbO3)2
_symmetry_space_group_name_H-M   'P 1'
_cell_length_a   15.38383153
_cell_length_b   15.37394714
_cell_length_c   18.58010593
_cell_angle_alpha   90.00904843
_cell_angle_beta   89.99239978
_cell_angle_gamma   90.00950813
_symmetry_Int_Tables_number   1
_chemical_formula_structural   VFe(PbO3)2
_chemical_formula_sum   'V32 Fe32 Pb64 O192'
_cell_volume   4394.38465382
_cell_formula_units_Z   32
loop_
 _symmetry_equiv_pos_site_id
 _symmetry_equiv_pos_as_xyz
  1  'x, y, z'
loop_
 _atom_site_type_symbol
 _atom_site_label
 _atom_site_symmetry_multiplicity
 _atom_site_fract_x
 _atom_site_fract_y
 _atom_site_fract_z
 _atom_site_occupancy
  V  V0  1  0.87490643  0.62517102  0.89013925  1
  V  V1  1  0.37137058  0.12139797  0.64172795  1
  V  V2  1  0.87532296  0.12315803  0.38923380  1
  V  V3  1  0.12477672  0.87731199  0.64282757  1
  V  V4  1  0.37009158  0.87525763  0.38797193  1
  V  V5  1  0.62591679  0.87522674  0.88816718  1
  V  V6  1  0.12352713  0.37504844  0.38704269  1
  V  V7  1  0.37258463  0.62677099  0.63884624  1
  V  V8  1  0.62662060  0.87359008  0.39131801  1
  V  V9  1  0.37695358  0.37314756  0.13923350  1
  V  V10  1  0.12431350  0.37323605  0.64105213  1
  V  V11  1  0.62089835  0.87509247  0.13965047  1
  V  V12  1  0.62586279  0.12466312  0.14348174  1
  V  V13  1  0.12574119  0.12416555  0.88810170  1
  V  V14  1  0.62338367  0.37505261  0.13927508  1
  V  V15  1  0.37732229  0.12389615  0.14309674  1
  V  V16  1  0.37315000  0.37821724  0.64420901  1
  V  V17  1  0.62444007  0.12723222  0.88557696  1
  V  V18  1  0.87508992  0.37432611  0.39054596  1
  V  V19  1  0.37545475  0.87499364  0.88982494  1
  V  V20  1  0.37615916  0.62138757  0.89128724  1
  V  V21  1  0.87685791  0.12630805  0.13505348  1
  V  V22  1  0.87725986  0.12454533  0.64271604  1
  V  V23  1  0.62450326  0.37144690  0.63935067  1
  V  V24  1  0.62316016  0.38409870  0.88515774  1
  V  V25  1  0.37803126  0.87760614  0.13943759  1
  V  V26  1  0.62536397  0.62163811  0.38743933  1
  V  V27  1  0.12275874  0.12694455  0.38948620  1
  V  V28  1  0.87291654  0.87185649  0.64278147  1
  V  V29  1  0.62557124  0.62433863  0.64068942  1
  V  V30  1  0.37298877  0.87146852  0.63788000  1
  V  V31  1  0.12645854  0.37625171  0.89117587  1
  Fe  Fe32  1  0.62674875  0.37518418  0.38377260  1
  Fe  Fe33  1  0.12684036  0.87427119  0.89327734  1
  Fe  Fe34  1  0.12597202  0.37056231  0.13094219  1
  Fe  Fe35  1  0.62216093  0.62543627  0.12867870  1
  Fe  Fe36  1  0.62241759  0.87597463  0.63564686  1
  Fe  Fe37  1  0.87496052  0.87507976  0.88485211  1
  Fe  Fe38  1  0.87150568  0.62326538  0.13675787  1
  Fe  Fe39  1  0.62693530  0.63099962  0.89292351  1
  Fe  Fe40  1  0.37646810  0.37262713  0.88240332  1
  Fe  Fe41  1  0.37433194  0.37494906  0.38316242  1
  Fe  Fe42  1  0.37644544  0.62694451  0.38204379  1
  Fe  Fe43  1  0.37557520  0.12387747  0.88318439  1
  Fe  Fe44  1  0.12475512  0.62567117  0.38050018  1
  Fe  Fe45  1  0.62633749  0.12345052  0.63404969  1
  Fe  Fe46  1  0.87535242  0.37622394  0.63988260  1
  Fe  Fe47  1  0.87136315  0.37099288  0.12906177  1
  Fe  Fe48  1  0.87489735  0.37273333  0.89165700  1
  Fe  Fe49  1  0.12236385  0.87652214  0.37941605  1
  Fe  Fe50  1  0.12420181  0.12605552  0.63829154  1
  Fe  Fe51  1  0.87589850  0.12475615  0.88577413  1
  Fe  Fe52  1  0.12765442  0.12702505  0.13233038  1
  Fe  Fe53  1  0.62636374  0.12627737  0.39166249  1
  Fe  Fe54  1  0.87679813  0.62505739  0.63673695  1
  Fe  Fe55  1  0.87447926  0.87608960  0.37820170  1
  Fe  Fe56  1  0.12633958  0.87894428  0.13160812  1
  Fe  Fe57  1  0.12570614  0.62484350  0.63733966  1
  Fe  Fe58  1  0.87383752  0.62429586  0.38021221  1
  Fe  Fe59  1  0.12511078  0.62477451  0.89678318  1
  Fe  Fe60  1  0.37986717  0.62441331  0.13760276  1
  Fe  Fe61  1  0.37469465  0.12482523  0.38574695  1
  Fe  Fe62  1  0.87061576  0.87856521  0.13958399  1
  Fe  Fe63  1  0.12740643  0.62244376  0.12713046  1
  Pb  Pb64  1  0.00007209  -0.00737715  -0.00015620  1
  Pb  Pb65  1  0.00426065  -0.01221175  0.24595631  1
  Pb  Pb66  1  0.00232410  -0.00100293  0.49693222  1
  Pb  Pb67  1  -0.00498117  -0.00658491  0.75696024  1
  Pb  Pb68  1  0.00731919  0.25112590  -0.00018208  1
  Pb  Pb69  1  0.00260378  0.25385207  0.24089608  1
  Pb  Pb70  1  -0.00415274  0.25578708  0.50388449  1
  Pb  Pb71  1  -0.00947597  0.25142329  0.75595599  1
  Pb  Pb72  1  -0.00190715  0.50351598  0.00330689  1
  Pb  Pb73  1  0.00099235  0.50414259  0.23646397  1
  Pb  Pb74  1  0.00024654  0.51288218  0.50015928  1
  Pb  Pb75  1  0.00016911  0.50627829  0.74987868  1
  Pb  Pb76  1  0.00160684  0.75700928  0.00198245  1
  Pb  Pb77  1  0.00427142  0.74846030  0.23565039  1
  Pb  Pb78  1  -0.00151393  0.74657236  0.48861249  1
  Pb  Pb79  1  0.00386935  0.75291748  0.75384741  1
  Pb  Pb80  1  0.24180033  0.00304942  0.00247806  1
  Pb  Pb81  1  0.24366823  -0.00259806  0.24946547  1
  Pb  Pb82  1  0.24245199  0.00605936  0.50015350  1
  Pb  Pb83  1  0.24461474  -0.00529170  0.75478442  1
  Pb  Pb84  1  0.24578050  0.24876745  -0.00020424  1
  Pb  Pb85  1  0.26049921  0.25051749  0.25106790  1
  Pb  Pb86  1  0.24854313  0.24754927  0.49867086  1
  Pb  Pb87  1  0.25690588  0.25078876  0.75316268  1
  Pb  Pb88  1  0.24490676  0.49782372  0.00400279  1
  Pb  Pb89  1  0.24617520  0.50877409  0.24561236  1
  Pb  Pb90  1  0.24735786  0.50680730  0.49437831  1
  Pb  Pb91  1  0.24428523  0.50613962  0.75426857  1
  Pb  Pb92  1  0.24542417  0.74740901  0.00309564  1
  Pb  Pb93  1  0.24001217  0.74086309  0.24488209  1
  Pb  Pb94  1  0.23997220  0.74378215  0.49464856  1
  Pb  Pb95  1  0.23616741  0.74877793  0.75870620  1
  Pb  Pb96  1  0.50036834  -0.00173353  -0.00175905  1
  Pb  Pb97  1  0.50086100  0.01142686  0.25876837  1
  Pb  Pb98  1  0.50560229  0.00149439  0.50090933  1
  Pb  Pb99  1  0.49924725  0.00268663  0.74627144  1
  Pb  Pb100  1  0.49775328  0.25013036  -0.00418551  1
  Pb  Pb101  1  0.50012835  0.25118857  0.25907338  1
  Pb  Pb102  1  0.50013129  0.24916076  0.49363322  1
  Pb  Pb103  1  0.49112865  0.24813961  0.75021820  1
  Pb  Pb104  1  0.49905869  0.51110826  0.00363102  1
  Pb  Pb105  1  0.49636682  0.49431877  0.25063050  1
  Pb  Pb106  1  0.49683043  0.49724196  0.49360943  1
  Pb  Pb107  1  0.50018809  0.50031764  0.75062993  1
  Pb  Pb108  1  0.49786634  0.74392812  0.00410698  1
  Pb  Pb109  1  0.49722136  0.74185321  0.24998455  1
  Pb  Pb110  1  0.50410177  0.75553915  0.49951955  1
  Pb  Pb111  1  0.50343791  0.74434490  0.75111007  1
  Pb  Pb112  1  0.75823368  -0.00542212  -0.00095869  1
  Pb  Pb113  1  0.74937263  0.00063624  0.25336900  1
  Pb  Pb114  1  0.74091830  -0.00236072  0.50483501  1
  Pb  Pb115  1  0.75580583  0.00044999  0.75055144  1
  Pb  Pb116  1  0.75425086  0.25118219  -0.00206236  1
  Pb  Pb117  1  0.73786411  0.24998719  0.25419172  1
  Pb  Pb118  1  0.74818146  0.25041625  0.50167570  1
  Pb  Pb119  1  0.76053467  0.24936127  0.75582125  1
  Pb  Pb120  1  0.76202347  0.50434874  0.00559047  1
  Pb  Pb121  1  0.75502756  0.50441503  0.24516009  1
  Pb  Pb122  1  0.76553899  0.49869875  0.50510483  1
  Pb  Pb123  1  0.75285594  0.49975702  0.75082437  1
  Pb  Pb124  1  0.76399664  0.74748477  0.00701386  1
  Pb  Pb125  1  0.76238195  0.74581575  0.24814697  1
  Pb  Pb126  1  0.75730110  0.74641184  0.49643393  1
  Pb  Pb127  1  0.74320715  0.74335438  0.75386110  1
  O  O128  1  0.12954662  0.00470491  0.16359813  1
  O  O129  1  0.12315189  0.00415743  0.41424177  1
  O  O130  1  0.12612551  -0.00417632  0.66888587  1
  O  O131  1  0.12791847  0.00652252  0.91102291  1
  O  O132  1  0.12836406  0.24783247  0.16759157  1
  O  O133  1  0.12087994  0.25296825  0.41753277  1
  O  O134  1  0.12784040  0.25572159  0.66479895  1
  O  O135  1  0.12764714  0.24965950  0.91185691  1
  O  O136  1  0.12988307  0.49513749  0.15854184  1
  O  O137  1  0.12257372  0.49173879  0.40898221  1
  O  O138  1  0.12752938  0.49305666  0.66775492  1
  O  O139  1  0.12728434  0.49334325  0.91398598  1
  O  O140  1  0.12928955  0.75201538  0.15192861  1
  O  O141  1  0.12495033  0.75218445  0.40986511  1
  O  O142  1  0.12574964  0.75772202  0.66563381  1
  O  O143  1  0.12858143  0.74948717  0.91956680  1
  O  O144  1  0.38154768  0.00307195  0.16748304  1
  O  O145  1  0.37734142  -0.00811864  0.41389568  1
  O  O146  1  0.37133633  0.00076838  0.66327056  1
  O  O147  1  0.37728671  -0.00492503  0.91260481  1
  O  O148  1  0.38117159  0.24626040  0.16444433  1
  O  O149  1  0.37157655  0.25052367  0.41789173  1
  O  O150  1  0.37477198  0.24823142  0.66379644  1
  O  O151  1  0.37914164  0.24847410  0.91453338  1
  O  O152  1  0.38242768  0.48971828  0.15830874  1
  O  O153  1  0.37571522  0.50124150  0.41353183  1
  O  O154  1  0.37541606  0.50257530  0.66880080  1
  O  O155  1  0.38030412  0.50307095  0.90853080  1
  O  O156  1  0.38346629  0.76168991  0.15785769  1
  O  O157  1  0.37813134  0.75778877  0.41493825  1
  O  O158  1  0.37306395  0.74956910  0.66521907  1
  O  O159  1  0.37745896  0.75349911  0.91498511  1
  O  O160  1  0.62123505  0.00534839  0.16879474  1
  O  O161  1  0.62625712  -0.00602041  0.41377289  1
  O  O162  1  0.62464940  0.00021026  0.66722998  1
  O  O163  1  0.62212855  -0.00468101  0.91254966  1
  O  O164  1  0.62119291  0.24538979  0.16598387  1
  O  O165  1  0.62953321  0.25194821  0.41875744  1
  O  O166  1  0.62101184  0.25445568  0.65697021  1
  O  O167  1  0.62270274  0.24246708  0.90707758  1
  O  O168  1  0.61856044  0.49060093  0.15593430  1
  O  O169  1  0.62398443  0.50600529  0.40909792  1
  O  O170  1  0.62344562  0.49930488  0.66833963  1
  O  O171  1  0.62057298  0.49792421  0.90210815  1
  O  O172  1  0.61829503  0.75956305  0.15494354  1
  O  O173  1  0.62587852  0.75054571  0.41519227  1
  O  O174  1  0.62407069  0.74863497  0.66607324  1
  O  O175  1  0.62141413  0.76103889  0.91625173  1
  O  O176  1  0.86635369  0.01191617  0.16321474  1
  O  O177  1  0.87588881  0.00731352  0.41007929  1
  O  O178  1  0.87829645  -0.00070103  0.66625076  1
  O  O179  1  0.87329223  0.00121009  0.91479823  1
  O  O180  1  0.86694085  0.24173855  0.16134831  1
  O  O181  1  0.87766576  0.25086330  0.41749482  1
  O  O182  1  0.87541223  0.24613217  0.66453859  1
  O  O183  1  0.87142868  0.24706334  0.91814232  1
  O  O184  1  0.86947911  0.49412793  0.16087513  1
  O  O185  1  0.87534386  0.49327004  0.41118832  1
  O  O186  1  0.87359734  0.49997331  0.67000567  1
  O  O187  1  0.87219681  0.50299034  0.91182778  1
  O  O188  1  0.86950957  0.75166726  0.15988323  1
  O  O189  1  0.87090312  0.75016444  0.40898579  1
  O  O190  1  0.87965203  0.75631874  0.66282131  1
  O  O191  1  0.87471850  0.74546768  0.91447910  1
  O  O192  1  -0.00762804  0.12730767  0.15205667  1
  O  O193  1  -0.00436822  0.12808727  0.41771872  1
  O  O194  1  -0.00433408  0.12462231  0.66647986  1
  O  O195  1  0.00782170  0.12735097  0.91058987  1
  O  O196  1  -0.00271001  0.36892526  0.15645204  1
  O  O197  1  -0.00036302  0.37251505  0.41600052  1
  O  O198  1  0.00693338  0.37427313  0.66474770  1
  O  O199  1  0.00683355  0.37239875  0.91264292  1
  O  O200  1  0.00075599  0.62303280  0.15387211  1
  O  O201  1  -0.00080503  0.62192995  0.40876822  1
  O  O202  1  0.00191122  0.62558364  0.66812857  1
  O  O203  1  -0.00730770  0.62253031  0.91468860  1
  O  O204  1  -0.00119239  0.88095256  0.15623996  1
  O  O205  1  -0.00219584  0.87841086  0.41117692  1
  O  O206  1  0.00278357  0.87759422  0.66636439  1
  O  O207  1  -0.00037402  0.87556279  0.91623513  1
  O  O208  1  0.26090821  0.12568373  0.16160583  1
  O  O209  1  0.24567208  0.12504383  0.41531021  1
  O  O210  1  0.25373679  0.12544586  0.66742091  1
  O  O211  1  0.24629548  0.12631787  0.91022763  1
  O  O212  1  0.26161749  0.36740899  0.15778016  1
  O  O213  1  0.24000386  0.37286454  0.41019718  1
  O  O214  1  0.24845986  0.37522606  0.66781699  1
  O  O215  1  0.24796264  0.37373720  0.91150218  1
  O  O216  1  0.25482313  0.62425522  0.15863086  1
  O  O217  1  0.25059946  0.62552455  0.41301503  1
  O  O218  1  0.25231615  0.62457665  0.66712649  1
  O  O219  1  0.26108121  0.62466818  0.91644350  1
  O  O220  1  0.26266689  0.88270806  0.15877245  1
  O  O221  1  0.25413554  0.87624701  0.40839485  1
  O  O222  1  0.24724655  0.87652243  0.66728492  1
  O  O223  1  0.26016475  0.87513142  0.91593803  1
  O  O224  1  0.50123743  0.12505269  0.16913739  1
  O  O225  1  0.49940128  0.12316923  0.41632624  1
  O  O226  1  0.49267920  0.12339295  0.66040838  1
  O  O227  1  0.50704274  0.11974435  0.91330931  1
  O  O228  1  0.50080975  0.36710153  0.16690642  1
  O  O229  1  0.50118087  0.37524056  0.41528178  1
  O  O230  1  0.50303012  0.37823040  0.66516192  1
  O  O231  1  0.50833754  0.37025893  0.91359665  1
  O  O232  1  0.50348053  0.62453774  0.16830745  1
  O  O233  1  0.50711513  0.62948736  0.41425685  1
  O  O234  1  0.49845632  0.62583116  0.66712953  1
  O  O235  1  0.49492003  0.62904850  0.91478190  1
  O  O236  1  0.50216228  0.88412533  0.17019491  1
  O  O237  1  0.50321982  0.87364225  0.41486851  1
  O  O238  1  0.49319747  0.87554734  0.66343339  1
  O  O239  1  0.49832333  0.87672316  0.91418394  1
  O  O240  1  0.74321502  0.12587891  0.16409635  1
  O  O241  1  0.75993656  0.12767646  0.41554266  1
  O  O242  1  0.75700817  0.12303726  0.66393345  1
  O  O243  1  0.73927018  0.12043230  0.91161634  1
  O  O244  1  0.73975227  0.36752238  0.15874786  1
  O  O245  1  0.75779466  0.37360017  0.41289123  1
  O  O246  1  0.74094441  0.37567519  0.66443935  1
  O  O247  1  0.73640231  0.37106135  0.91286324  1
  O  O248  1  0.74182300  0.62342513  0.16223369  1
  O  O249  1  0.74255436  0.62546548  0.41293260  1
  O  O250  1  0.74789651  0.62706090  0.66775175  1
  O  O251  1  0.75512376  0.62670460  0.91316872  1
  O  O252  1  0.73625853  0.88284610  0.16381284  1
  O  O253  1  0.74531697  0.87538381  0.41221027  1
  O  O254  1  0.75679266  0.87708949  0.66098453  1
  O  O255  1  0.74278663  0.87587409  0.90920404  1
  O  O256  1  0.13209835  0.12967715  0.03262877  1
  O  O257  1  0.12195448  0.12776625  0.29892396  1
  O  O258  1  0.12853981  0.12071575  0.53949225  1
  O  O259  1  0.12637951  0.12540067  0.79707424  1
  O  O260  1  0.13156710  0.36706568  0.03093392  1
  O  O261  1  0.11974127  0.36988340  0.29674727  1
  O  O262  1  0.12544299  0.37605380  0.55042995  1
  O  O263  1  0.12663309  0.37528358  0.80030094  1
  O  O264  1  0.13119635  0.61536873  0.02516644  1
  O  O265  1  0.13393710  0.62408134  0.28046926  1
  O  O266  1  0.12735604  0.62286412  0.53747802  1
  O  O267  1  0.13258252  0.62648163  0.79526377  1
  O  O268  1  0.13004058  0.88515694  0.02989523  1
  O  O269  1  0.12514408  0.88286353  0.27946653  1
  O  O270  1  0.12503214  0.87945123  0.55229110  1
  O  O271  1  0.13096625  0.87247606  0.79196482  1
  O  O272  1  0.38164081  0.12187860  0.05231330  1
  O  O273  1  0.37776069  0.12797666  0.28642684  1
  O  O274  1  0.36700739  0.12167490  0.55103078  1
  O  O275  1  0.37965219  0.12829355  0.78402703  1
  O  O276  1  0.38297993  0.36915922  0.04825171  1
  O  O277  1  0.37686878  0.37015330  0.28343813  1
  O  O278  1  0.37259185  0.37942480  0.55371936  1
  O  O279  1  0.37932837  0.36852224  0.78266229  1
  O  O280  1  0.38821317  0.62278864  0.03705062  1
  O  O281  1  0.37826545  0.62837565  0.28223289  1
  O  O282  1  0.37348083  0.62550432  0.54822393  1
  O  O283  1  0.37579236  0.62733970  0.80034329  1
  O  O284  1  0.38314128  0.88391460  0.04883887  1
  O  O285  1  0.37487315  0.87433795  0.29742297  1
  O  O286  1  0.36991584  0.87261623  0.54751843  1
  O  O287  1  0.37448491  0.87373211  0.79909484  1
  O  O288  1  0.62395741  0.12364094  0.05304833  1
  O  O289  1  0.62835939  0.12745236  0.29117952  1
  O  O290  1  0.63125133  0.11511382  0.53426150  1
  O  O291  1  0.62342375  0.12330839  0.79442698  1
  O  O292  1  0.61769000  0.36871542  0.04877384  1
  O  O293  1  0.62553051  0.36856178  0.28450999  1
  O  O294  1  0.62539096  0.37910179  0.54888995  1
  O  O295  1  0.62291528  0.37527112  0.79424795  1
  O  O296  1  0.61556999  0.62496425  0.02748784  1
  O  O297  1  0.62374061  0.62663999  0.29687507  1
  O  O298  1  0.62615934  0.62244672  0.55024410  1
  O  O299  1  0.62514813  0.63876258  0.79266114  1
  O  O300  1  0.61758177  0.88388276  0.04903284  1
  O  O301  1  0.62438860  0.87234361  0.30092820  1
  O  O302  1  0.62404763  0.87823582  0.53617976  1
  O  O303  1  0.62255009  0.87357365  0.79709144  1
  O  O304  1  0.86783866  0.12470280  0.04403681  1
  O  O305  1  0.87600204  0.12764128  0.29894550  1
  O  O306  1  0.87728396  0.12287399  0.55208622  1
  O  O307  1  0.87186172  0.12996437  0.78562031  1
  O  O308  1  0.86448720  0.37640928  0.02866678  1
  O  O309  1  0.87712621  0.37011093  0.30041197  1
  O  O310  1  0.87253143  0.37751886  0.54028704  1
  O  O311  1  0.87115173  0.36283854  0.79038072  1
  O  O312  1  0.86560621  0.62024256  0.03528807  1
  O  O313  1  0.86519026  0.62176653  0.28022658  1
  O  O314  1  0.87299653  0.61878959  0.53662061  1
  O  O315  1  0.87452854  0.62662485  0.79876319  1
  O  O316  1  0.86485094  0.87718872  0.03815155  1
  O  O317  1  0.86915929  0.88145692  0.27814199  1
  O  O318  1  0.87780308  0.87590566  0.55227691  1
  O  O319  1  0.87904497  0.87792554  0.78487462  1
