# generated using pymatgen
data_VFe(PbO3)2
_symmetry_space_group_name_H-M   'P 1'
_cell_length_a   15.37992067
_cell_length_b   15.37721527
_cell_length_c   18.51102736
_cell_angle_alpha   90.01134140
_cell_angle_beta   89.98453787
_cell_angle_gamma   89.99330477
_symmetry_Int_Tables_number   1
_chemical_formula_structural   VFe(PbO3)2
_chemical_formula_sum   'V32 Fe32 Pb64 O192'
_cell_volume   4377.86419234
_cell_formula_units_Z   32
loop_
 _symmetry_equiv_pos_site_id
 _symmetry_equiv_pos_as_xyz
  1  'x, y, z'
loop_
 _atom_site_type_symbol
 _atom_site_label
 _atom_site_symmetry_multiplicity
 _atom_site_fract_x
 _atom_site_fract_y
 _atom_site_fract_z
 _atom_site_occupancy
  V  V0  1  0.62570688  0.37572630  0.64403015  1
  V  V1  1  0.12287445  0.87723532  0.13853651  1
  V  V2  1  0.12651459  0.62695078  0.14318933  1
  V  V3  1  0.62584090  0.37403588  0.13664608  1
  V  V4  1  0.62013213  0.87518278  0.13400991  1
  V  V5  1  0.87469331  0.62359554  0.63521679  1
  V  V6  1  0.87350036  0.37483758  0.38571229  1
  V  V7  1  0.12156717  0.62762672  0.88821133  1
  V  V8  1  0.11856727  0.87546543  0.88981028  1
  V  V9  1  0.37593687  0.12702433  0.65182319  1
  V  V10  1  0.62201602  0.87659337  0.38925063  1
  V  V11  1  0.62594457  0.62572146  0.88850645  1
  V  V12  1  0.12746915  0.12460187  0.64051635  1
  V  V13  1  0.12880662  0.12580849  0.38995119  1
  V  V14  1  0.87463414  0.12725934  0.63873286  1
  V  V15  1  0.37295326  0.12655011  0.13463228  1
  V  V16  1  0.87410381  0.87580988  0.88946404  1
  V  V17  1  0.12869921  0.87468751  0.39166167  1
  V  V18  1  0.37329156  0.62887532  0.38984245  1
  V  V19  1  0.12786698  0.62626269  0.63732626  1
  V  V20  1  0.87606496  0.62662791  0.89023719  1
  V  V21  1  0.37327911  0.87474546  0.64327953  1
  V  V22  1  0.37439992  0.37536166  0.13472596  1
  V  V23  1  0.62496785  0.12283983  0.64631391  1
  V  V24  1  0.37738915  0.12089860  0.39144291  1
  V  V25  1  0.37772116  0.62385599  0.64309159  1
  V  V26  1  0.12520001  0.37302069  0.13947411  1
  V  V27  1  0.87456489  0.37456557  0.89371974  1
  V  V28  1  0.87070284  0.87499955  0.14101291  1
  V  V29  1  0.62198775  0.62375363  0.39166396  1
  V  V30  1  0.87388804  0.37514350  0.63648620  1
  V  V31  1  0.12098224  0.12934018  0.88749790  1
  Fe  Fe32  1  0.87694498  0.12531949  0.38391351  1
  Fe  Fe33  1  0.37406730  0.87523216  0.89036798  1
  Fe  Fe34  1  0.12805257  0.37445953  0.38473400  1
  Fe  Fe35  1  0.62389880  0.12399635  0.38019262  1
  Fe  Fe36  1  0.62316039  0.37353441  0.38261263  1
  Fe  Fe37  1  0.12865675  0.12438254  0.13397972  1
  Fe  Fe38  1  0.62624994  0.62368079  0.63476842  1
  Fe  Fe39  1  0.87518292  0.87673325  0.62955891  1
  Fe  Fe40  1  0.62336460  0.12414042  0.13991235  1
  Fe  Fe41  1  0.87533131  0.37553427  0.13444280  1
  Fe  Fe42  1  0.12748800  0.62405995  0.38316700  1
  Fe  Fe43  1  0.62391761  0.62588754  0.13432446  1
  Fe  Fe44  1  0.87876684  0.12640933  0.13964299  1
  Fe  Fe45  1  0.37276327  0.62591310  0.88455517  1
  Fe  Fe46  1  0.62872180  0.12487853  0.88131037  1
  Fe  Fe47  1  0.12012409  0.38094122  0.88059164  1
  Fe  Fe48  1  0.37326756  0.12348136  0.87571764  1
  Fe  Fe49  1  0.87559004  0.62522711  0.38195576  1
  Fe  Fe50  1  0.37542224  0.37441043  0.64566193  1
  Fe  Fe51  1  0.62870503  0.87308584  0.88094880  1
  Fe  Fe52  1  0.37578585  0.62311766  0.13017602  1
  Fe  Fe53  1  0.37150013  0.87501222  0.12906142  1
  Fe  Fe54  1  0.37684781  0.37464266  0.38815101  1
  Fe  Fe55  1  0.87773004  0.12362367  0.88601015  1
  Fe  Fe56  1  0.12264049  0.37429892  0.64300941  1
  Fe  Fe57  1  0.37660729  0.87532028  0.38686108  1
  Fe  Fe58  1  0.37346476  0.37635172  0.87830441  1
  Fe  Fe59  1  0.12474418  0.87585161  0.63572012  1
  Fe  Fe60  1  0.87433083  0.87507493  0.38953176  1
  Fe  Fe61  1  0.62788761  0.37806731  0.88512421  1
  Fe  Fe62  1  0.62464105  0.87299395  0.64414368  1
  Fe  Fe63  1  0.87435073  0.62394510  0.14548827  1
  Pb  Pb64  1  -0.00051506  0.01311335  0.00788691  1
  Pb  Pb65  1  -0.00647036  0.00122684  0.25407499  1
  Pb  Pb66  1  -0.00194026  -0.00594989  0.50029744  1
  Pb  Pb67  1  -0.00641919  0.00490738  0.74742873  1
  Pb  Pb68  1  -0.01039199  0.25173888  0.00609956  1
  Pb  Pb69  1  -0.00169814  0.24557585  0.24733010  1
  Pb  Pb70  1  0.00730008  0.25645473  0.49869820  1
  Pb  Pb71  1  -0.00582694  0.24711374  0.75202295  1
  Pb  Pb72  1  -0.00944664  0.49903712  0.00527469  1
  Pb  Pb73  1  0.00657775  0.50346678  0.25183745  1
  Pb  Pb74  1  0.00702309  0.49903241  0.49332965  1
  Pb  Pb75  1  0.00201590  0.49684707  0.74924410  1
  Pb  Pb76  1  -0.00574274  0.74665074  0.00530876  1
  Pb  Pb77  1  -0.00611766  0.75150636  0.25739624  1
  Pb  Pb78  1  -0.00551285  0.75042469  0.49528483  1
  Pb  Pb79  1  -0.00207121  0.75359563  0.74340268  1
  Pb  Pb80  1  0.24918981  0.00021507  -0.00325542  1
  Pb  Pb81  1  0.25780366  -0.00554059  0.24896560  1
  Pb  Pb82  1  0.24641263  -0.00119513  0.50493952  1
  Pb  Pb83  1  0.25563680  -0.00382184  0.75597386  1
  Pb  Pb84  1  0.24933177  0.25314615  -0.01191131  1
  Pb  Pb85  1  0.25332672  0.25971729  0.25205757  1
  Pb  Pb86  1  0.25444420  0.26140836  0.50765963  1
  Pb  Pb87  1  0.25049759  0.26022153  0.75213988  1
  Pb  Pb88  1  0.25303726  0.50210168  -0.00651113  1
  Pb  Pb89  1  0.24565310  0.49822189  0.25258438  1
  Pb  Pb90  1  0.24942580  0.48925857  0.50262752  1
  Pb  Pb91  1  0.25152879  0.49769441  0.75246146  1
  Pb  Pb92  1  0.25822485  0.74992010  0.00177858  1
  Pb  Pb93  1  0.25188134  0.74785310  0.24729666  1
  Pb  Pb94  1  0.24720081  0.75446210  0.50188322  1
  Pb  Pb95  1  0.25958512  0.75041833  0.75805896  1
  Pb  Pb96  1  0.50221634  0.00208175  -0.01260423  1
  Pb  Pb97  1  0.49785886  0.00046201  0.24559512  1
  Pb  Pb98  1  0.50760874  -0.00610314  0.50549186  1
  Pb  Pb99  1  0.49554447  -0.00390421  0.75842658  1
  Pb  Pb100  1  0.50216482  0.24818733  -0.01436437  1
  Pb  Pb101  1  0.50001223  0.25898725  0.25233682  1
  Pb  Pb102  1  0.49705568  0.25343749  0.50014061  1
  Pb  Pb103  1  0.50917921  0.24965512  0.75742670  1
  Pb  Pb104  1  0.49559979  0.50308340  -0.00630607  1
  Pb  Pb105  1  0.49904025  0.49329149  0.24719146  1
  Pb  Pb106  1  0.49456977  0.49542492  0.50158607  1
  Pb  Pb107  1  0.49904082  0.49306730  0.75573306  1
  Pb  Pb108  1  0.49351278  0.75134835  -0.00466112  1
  Pb  Pb109  1  0.49144220  0.74955127  0.24223977  1
  Pb  Pb110  1  0.51135625  0.75027978  0.50716071  1
  Pb  Pb111  1  0.49687380  0.75094618  0.75445437  1
  Pb  Pb112  1  0.74187211  0.01248073  0.00111863  1
  Pb  Pb113  1  0.75101376  0.00986885  0.25307782  1
  Pb  Pb114  1  0.75455530  -0.00241379  0.49755056  1
  Pb  Pb115  1  0.74615351  -0.00179572  0.75061637  1
  Pb  Pb116  1  0.74638431  0.24245778  0.00076826  1
  Pb  Pb117  1  0.74843966  0.24391132  0.24613707  1
  Pb  Pb118  1  0.74619496  0.24531969  0.49146712  1
  Pb  Pb119  1  0.74779822  0.24479101  0.75627348  1
  Pb  Pb120  1  0.75150875  0.50863744  0.00650811  1
  Pb  Pb121  1  0.75139793  0.50250101  0.24612016  1
  Pb  Pb122  1  0.74638523  0.50574003  0.49674075  1
  Pb  Pb123  1  0.74740730  0.49634782  0.75169253  1
  Pb  Pb124  1  0.74963334  0.73995057  0.00536493  1
  Pb  Pb125  1  0.75616576  0.75020782  0.25314918  1
  Pb  Pb126  1  0.74709257  0.75368657  0.50086802  1
  Pb  Pb127  1  0.74462814  0.75491827  0.74584160  1
  O  O128  1  0.12632512  -0.00768841  0.16165984  1
  O  O129  1  0.12986026  0.00013384  0.41611648  1
  O  O130  1  0.12283143  0.00653189  0.66504105  1
  O  O131  1  0.11818400  -0.00667506  0.91012408  1
  O  O132  1  0.12927138  0.25583627  0.16007806  1
  O  O133  1  0.12810402  0.24375703  0.41302209  1
  O  O134  1  0.12378556  0.24163330  0.66712963  1
  O  O135  1  0.12152477  0.24576770  0.90316103  1
  O  O136  1  0.13014353  0.49930932  0.16404234  1
  O  O137  1  0.12918426  0.49950964  0.41555982  1
  O  O138  1  0.12242997  0.50967697  0.66340223  1
  O  O139  1  0.11943777  0.51002515  0.91198442  1
  O  O140  1  0.12590643  0.74841465  0.16367722  1
  O  O141  1  0.12902374  0.75582497  0.41187497  1
  O  O142  1  0.12085522  0.74255025  0.66269650  1
  O  O143  1  0.11871613  0.74703670  0.91598199  1
  O  O144  1  0.37085353  0.00388168  0.15817494  1
  O  O145  1  0.37312128  0.00435040  0.41982562  1
  O  O146  1  0.37381408  -0.00734913  0.66702869  1
  O  O147  1  0.36880749  0.00158315  0.91139320  1
  O  O148  1  0.37464219  0.24701199  0.16073629  1
  O  O149  1  0.37419852  0.23902009  0.41725634  1
  O  O150  1  0.37642461  0.24769513  0.67016070  1
  O  O151  1  0.36832928  0.24838471  0.90311157  1
  O  O152  1  0.37465281  0.49484666  0.15848156  1
  O  O153  1  0.37788502  0.50952868  0.41507081  1
  O  O154  1  0.37267700  0.50788172  0.66317879  1
  O  O155  1  0.37306064  0.50159113  0.91114579  1
  O  O156  1  0.37218231  0.75043302  0.16079572  1
  O  O157  1  0.37855944  0.74578735  0.41663704  1
  O  O158  1  0.37170462  0.74960358  0.66645348  1
  O  O159  1  0.37132565  0.74902464  0.91424575  1
  O  O160  1  0.62696707  -0.01016981  0.16383254  1
  O  O161  1  0.62211193  -0.00510379  0.41329619  1
  O  O162  1  0.62530063  0.00558187  0.66489976  1
  O  O163  1  0.63066277  -0.00200018  0.91031778  1
  O  O164  1  0.62154113  0.25508508  0.16043378  1
  O  O165  1  0.62193345  0.24825924  0.41288031  1
  O  O166  1  0.62592189  0.25274381  0.66713903  1
  O  O167  1  0.63009394  0.25205119  0.91206523  1
  O  O168  1  0.62147810  0.49297765  0.16058151  1
  O  O169  1  0.62304625  0.50512000  0.41225074  1
  O  O170  1  0.62743765  0.49639509  0.66515626  1
  O  O171  1  0.62993174  0.50766866  0.91443087  1
  O  O172  1  0.62707892  0.76137354  0.16269323  1
  O  O173  1  0.62212290  0.75114539  0.41467499  1
  O  O174  1  0.62474601  0.74542635  0.66764690  1
  O  O175  1  0.63139406  0.74328070  0.91017701  1
  O  O176  1  0.88261088  -0.00855343  0.16351436  1
  O  O177  1  0.87705952  0.00128145  0.41612886  1
  O  O178  1  0.87441338  0.00668923  0.66007991  1
  O  O179  1  0.88204591  -0.00948375  0.90912224  1
  O  O180  1  0.87787369  0.25320436  0.16671836  1
  O  O181  1  0.87696748  0.25567805  0.41229006  1
  O  O182  1  0.87371727  0.25109284  0.66646291  1
  O  O183  1  0.87952251  0.25631822  0.91087835  1
  O  O184  1  0.87488717  0.49747213  0.16781590  1
  O  O185  1  0.87382685  0.49399454  0.41069561  1
  O  O186  1  0.87452586  0.50026158  0.66388139  1
  O  O187  1  0.87739758  0.50281900  0.91743371  1
  O  O188  1  0.87958332  0.75688084  0.16748517  1
  O  O189  1  0.87380220  0.74890445  0.41554785  1
  O  O190  1  0.87654011  0.74119023  0.65520045  1
  O  O191  1  0.87828025  0.75035162  0.91853144  1
  O  O192  1  0.00599926  0.12415351  0.16731071  1
  O  O193  1  0.01100416  0.12337933  0.41314177  1
  O  O194  1  0.00137927  0.12698158  0.66382179  1
  O  O195  1  0.00437225  0.12189376  0.91584966  1
  O  O196  1  0.00984887  0.37797690  0.16140133  1
  O  O197  1  -0.00390321  0.37437962  0.41126563  1
  O  O198  1  -0.00649314  0.37543667  0.66488471  1
  O  O199  1  -0.00409225  0.37959956  0.91625385  1
  O  O200  1  0.00823229  0.62303666  0.16580950  1
  O  O201  1  0.00137971  0.62481506  0.41140838  1
  O  O202  1  -0.00316311  0.62224726  0.66000078  1
  O  O203  1  -0.00027248  0.62730228  0.91852057  1
  O  O204  1  0.00605318  0.87142632  0.16604742  1
  O  O205  1  0.00967211  0.87728713  0.41242949  1
  O  O206  1  -0.00123742  0.87453784  0.66305376  1
  O  O207  1  0.00022263  0.86837589  0.91917534  1
  O  O208  1  0.25641410  0.12588211  0.16428355  1
  O  O209  1  0.24868811  0.12250256  0.41798928  1
  O  O210  1  0.24489480  0.12346567  0.66538969  1
  O  O211  1  0.23857669  0.11973365  0.90731227  1
  O  O212  1  0.25016066  0.37409138  0.16405781  1
  O  O213  1  0.25367033  0.37272541  0.41843067  1
  O  O214  1  0.24773746  0.37605107  0.66676321  1
  O  O215  1  0.24453392  0.37769724  0.90920766  1
  O  O216  1  0.24630318  0.62441166  0.16381289  1
  O  O217  1  0.25782216  0.62847808  0.41274322  1
  O  O218  1  0.24622293  0.62721982  0.66198497  1
  O  O219  1  0.23895905  0.62743967  0.90875334  1
  O  O220  1  0.24219973  0.87202040  0.16224069  1
  O  O221  1  0.24913534  0.87609766  0.41755834  1
  O  O222  1  0.25281240  0.87312177  0.66546242  1
  O  O223  1  0.23467842  0.87159015  0.91271423  1
  O  O224  1  0.49076662  0.12148052  0.15947557  1
  O  O225  1  0.49400412  0.12105773  0.41290084  1
  O  O226  1  0.50547207  0.12580909  0.66966881  1
  O  O227  1  0.49974515  0.12448351  0.90272311  1
  O  O228  1  0.49869054  0.37277531  0.16198439  1
  O  O229  1  0.49936518  0.37540219  0.42046522  1
  O  O230  1  0.50762226  0.37655635  0.66582759  1
  O  O231  1  0.50003310  0.37700633  0.90946887  1
  O  O232  1  0.50010190  0.62691371  0.16341620  1
  O  O233  1  0.50141122  0.62680564  0.41647820  1
  O  O234  1  0.49400642  0.62674300  0.66261327  1
  O  O235  1  0.50733790  0.62588256  0.90493623  1
  O  O236  1  0.50245424  0.87703196  0.15367222  1
  O  O237  1  0.50367586  0.87518168  0.41777719  1
  O  O238  1  0.49141084  0.87262439  0.66790372  1
  O  O239  1  0.50323322  0.87280294  0.90787542  1
  O  O240  1  0.75129339  0.12192094  0.16473032  1
  O  O241  1  0.74967104  0.12402869  0.41189644  1
  O  O242  1  0.74728934  0.12891872  0.66416270  1
  O  O243  1  0.75520081  0.12522067  0.91359771  1
  O  O244  1  0.74290725  0.37391335  0.15704033  1
  O  O245  1  0.75402519  0.37481671  0.40971700  1
  O  O246  1  0.74919192  0.37494484  0.66734385  1
  O  O247  1  0.75823969  0.37996413  0.91528202  1
  O  O248  1  0.74597804  0.62761639  0.16981339  1
  O  O249  1  0.74272984  0.62616304  0.41193069  1
  O  O250  1  0.75811670  0.62114717  0.66136849  1
  O  O251  1  0.75264003  0.62504266  0.91675681  1
  O  O252  1  0.75470415  0.87479279  0.15844284  1
  O  O253  1  0.74044744  0.87420204  0.41194763  1
  O  O254  1  0.75363564  0.87506041  0.66356889  1
  O  O255  1  0.76038738  0.87004989  0.90984498  1
  O  O256  1  0.12433292  0.11867531  0.03446622  1
  O  O257  1  0.13174080  0.12315457  0.29924679  1
  O  O258  1  0.12662998  0.12566057  0.54932598  1
  O  O259  1  0.11630708  0.12116504  0.79659637  1
  O  O260  1  0.12744905  0.37608647  0.04840071  1
  O  O261  1  0.13460545  0.37667888  0.28499884  1
  O  O262  1  0.12448343  0.37044194  0.54164694  1
  O  O263  1  0.11913108  0.38247396  0.78017222  1
  O  O264  1  0.12506176  0.62527318  0.05227395  1
  O  O265  1  0.13112751  0.61956271  0.28349434  1
  O  O266  1  0.12779087  0.62653923  0.54608627  1
  O  O267  1  0.11689385  0.62934295  0.79715111  1
  O  O268  1  0.12126483  0.87433481  0.04758728  1
  O  O269  1  0.13119604  0.87810203  0.30064690  1
  O  O270  1  0.13093675  0.87710666  0.53633850  1
  O  O271  1  0.11607596  0.87124690  0.79854217  1
  O  O272  1  0.36946753  0.12750750  0.04373311  1
  O  O273  1  0.37342564  0.11937456  0.30037925  1
  O  O274  1  0.37817719  0.12153295  0.56043691  1
  O  O275  1  0.37165043  0.11176470  0.77444904  1
  O  O276  1  0.37211013  0.37224618  0.04365022  1
  O  O277  1  0.37950235  0.36736718  0.28790097  1
  O  O278  1  0.37513197  0.37294098  0.54380703  1
  O  O279  1  0.37452052  0.38503081  0.77645704  1
  O  O280  1  0.37322431  0.62525689  0.02964331  1
  O  O281  1  0.37670118  0.62941129  0.29857868  1
  O  O282  1  0.37385359  0.62706553  0.55219569  1
  O  O283  1  0.36956226  0.63162595  0.78360515  1
  O  O284  1  0.36773294  0.87094469  0.02874523  1
  O  O285  1  0.37399438  0.88121370  0.28759075  1
  O  O286  1  0.37458898  0.87402312  0.55191827  1
  O  O287  1  0.36754428  0.87233794  0.78836000  1
  O  O288  1  0.63210839  0.12141756  0.03910434  1
  O  O289  1  0.62529629  0.11755332  0.27961657  1
  O  O290  1  0.62383224  0.12591515  0.55508515  1
  O  O291  1  0.63259289  0.13018710  0.78015896  1
  O  O292  1  0.62182130  0.37455905  0.04559175  1
  O  O293  1  0.61359922  0.37444167  0.28345814  1
  O  O294  1  0.62764762  0.37431150  0.55300426  1
  O  O295  1  0.62773930  0.38025721  0.78488213  1
  O  O296  1  0.63326756  0.62691272  0.03465916  1
  O  O297  1  0.61974034  0.62721284  0.30108952  1
  O  O298  1  0.62788499  0.62773706  0.53507788  1
  O  O299  1  0.63270097  0.62229244  0.79715143  1
  O  O300  1  0.62617157  0.87623454  0.04283346  1
  O  O301  1  0.61940020  0.87552711  0.29872347  1
  O  O302  1  0.61727815  0.87384567  0.54302509  1
  O  O303  1  0.63169697  0.87471703  0.77966825  1
  O  O304  1  0.88394894  0.12670946  0.03754516  1
  O  O305  1  0.87917198  0.12134269  0.28339151  1
  O  O306  1  0.87557398  0.13080265  0.54770413  1
  O  O307  1  0.88170814  0.12795094  0.78570825  1
  O  O308  1  0.88414988  0.37414555  0.03432088  1
  O  O309  1  0.87486154  0.37407011  0.29504293  1
  O  O310  1  0.87298089  0.37439845  0.54575541  1
  O  O311  1  0.87549125  0.37952468  0.80222211  1
  O  O312  1  0.87042415  0.62723207  0.04395184  1
  O  O313  1  0.87432261  0.63131473  0.28133050  1
  O  O314  1  0.87331289  0.61874673  0.54409630  1
  O  O315  1  0.87534330  0.62715440  0.79932876  1
  O  O316  1  0.87787695  0.87254584  0.05019188  1
  O  O317  1  0.87963672  0.87211666  0.28883190  1
  O  O318  1  0.87592195  0.87844565  0.52888019  1
  O  O319  1  0.87991236  0.87047671  0.79815842  1
