# generated using pymatgen
data_VFe(PbO3)2
_symmetry_space_group_name_H-M   'P 1'
_cell_length_a   15.38071032
_cell_length_b   15.38625126
_cell_length_c   18.48875437
_cell_angle_alpha   89.99405455
_cell_angle_beta   89.94687248
_cell_angle_gamma   90.01532448
_symmetry_Int_Tables_number   1
_chemical_formula_structural   VFe(PbO3)2
_chemical_formula_sum   'V32 Fe32 Pb64 O192'
_cell_volume   4375.38890535
_cell_formula_units_Z   32
loop_
 _symmetry_equiv_pos_site_id
 _symmetry_equiv_pos_as_xyz
  1  'x, y, z'
loop_
 _atom_site_type_symbol
 _atom_site_label
 _atom_site_symmetry_multiplicity
 _atom_site_fract_x
 _atom_site_fract_y
 _atom_site_fract_z
 _atom_site_occupancy
  V  V0  1  0.62473502  0.37562057  0.39514725  1
  V  V1  1  0.12369794  0.62593330  0.63897902  1
  V  V2  1  0.88102586  0.87826843  0.64412514  1
  V  V3  1  0.12517960  0.62435341  0.39435190  1
  V  V4  1  0.12586080  0.62443778  0.13890778  1
  V  V5  1  0.87554626  0.37519515  0.38861082  1
  V  V6  1  0.62259146  0.87569576  0.14028774  1
  V  V7  1  0.12024650  0.87493796  0.39622362  1
  V  V8  1  0.87362683  0.87300126  0.13794859  1
  V  V9  1  0.87497234  0.62403342  0.13776525  1
  V  V10  1  0.61883262  0.87530971  0.39265883  1
  V  V11  1  0.12593810  0.37522121  0.13986147  1
  V  V12  1  0.37406455  0.62486708  0.14391310  1
  V  V13  1  0.62308824  0.37155080  0.88289711  1
  V  V14  1  0.37504210  0.87452931  0.88787012  1
  V  V15  1  0.37326423  0.12447916  0.14281964  1
  V  V16  1  0.37637261  0.62314208  0.40306722  1
  V  V17  1  0.62297718  0.37536694  0.14215418  1
  V  V18  1  0.12299271  0.87171925  0.88504842  1
  V  V19  1  0.87188712  0.87422179  0.39091708  1
  V  V20  1  0.12587976  0.87422476  0.14051124  1
  V  V21  1  0.87643751  0.62526875  0.39565762  1
  V  V22  1  0.12356785  0.12168692  0.64039477  1
  V  V23  1  0.62282125  0.12630751  0.14039661  1
  V  V24  1  0.62678144  0.12948358  0.64010528  1
  V  V25  1  0.37569640  0.62481625  0.88561716  1
  V  V26  1  0.62783156  0.87698179  0.63980004  1
  V  V27  1  0.37183828  0.87694300  0.63600196  1
  V  V28  1  0.12433106  0.37040696  0.64207926  1
  V  V29  1  0.87477648  0.37412372  0.64198193  1
  V  V30  1  0.36966726  0.87380537  0.38950473  1
  V  V31  1  0.62336204  0.62333618  0.88716266  1
  Fe  Fe32  1  0.37632830  0.12534592  0.87743802  1
  Fe  Fe33  1  0.87576940  0.62520404  0.64348565  1
  Fe  Fe34  1  0.37558783  0.12232259  0.64121227  1
  Fe  Fe35  1  0.62189979  0.12429759  0.88026048  1
  Fe  Fe36  1  0.62629772  0.62512457  0.62782111  1
  Fe  Fe37  1  0.87421885  0.12357389  0.38258639  1
  Fe  Fe38  1  0.37543757  0.87407393  0.13979391  1
  Fe  Fe39  1  0.12561815  0.12435676  0.13560954  1
  Fe  Fe40  1  0.12785053  0.12434390  0.88696742  1
  Fe  Fe41  1  0.37624584  0.12266434  0.38768396  1
  Fe  Fe42  1  0.62162152  0.87230601  0.88086006  1
  Fe  Fe43  1  0.87333282  0.37653368  0.88410740  1
  Fe  Fe44  1  0.37357498  0.37509818  0.39016188  1
  Fe  Fe45  1  0.87581063  0.12448116  0.64582279  1
  Fe  Fe46  1  0.62297446  0.62422574  0.13735622  1
  Fe  Fe47  1  0.87535897  0.62636728  0.87606941  1
  Fe  Fe48  1  0.62693072  0.12389706  0.38616423  1
  Fe  Fe49  1  0.87354345  0.12355693  0.87882429  1
  Fe  Fe50  1  0.37441490  0.37422203  0.63200950  1
  Fe  Fe51  1  0.12134737  0.37703420  0.38751825  1
  Fe  Fe52  1  0.12803069  0.37789569  0.87879854  1
  Fe  Fe53  1  0.87224994  0.87227052  0.87924670  1
  Fe  Fe54  1  0.37804921  0.37747455  0.87851635  1
  Fe  Fe55  1  0.62765922  0.37394583  0.62975215  1
  Fe  Fe56  1  0.12531211  0.87598339  0.63145458  1
  Fe  Fe57  1  0.62614311  0.62699157  0.39953478  1
  Fe  Fe58  1  0.37629103  0.37495392  0.14246211  1
  Fe  Fe59  1  0.87136676  0.37758565  0.13379529  1
  Fe  Fe60  1  0.87426725  0.12557777  0.13963640  1
  Fe  Fe61  1  0.12361282  0.12534546  0.38206476  1
  Fe  Fe62  1  0.13076152  0.62592146  0.88180268  1
  Fe  Fe63  1  0.37497443  0.62707180  0.62659573  1
  Pb  Pb64  1  -0.00734072  0.01812251  0.00118766  1
  Pb  Pb65  1  -0.00060276  0.00828054  0.25041800  1
  Pb  Pb66  1  -0.00172373  0.00339619  0.50101492  1
  Pb  Pb67  1  0.00178174  0.00844576  0.75649476  1
  Pb  Pb68  1  0.00004657  0.25093665  -0.01017191  1
  Pb  Pb69  1  -0.00148436  0.24524103  0.24530119  1
  Pb  Pb70  1  -0.00162914  0.24063360  0.49702679  1
  Pb  Pb71  1  -0.00074229  0.25346818  0.75738196  1
  Pb  Pb72  1  0.00027513  0.49947012  -0.01290882  1
  Pb  Pb73  1  0.00409382  0.49458175  0.24907392  1
  Pb  Pb74  1  -0.00776800  0.50645890  0.50789930  1
  Pb  Pb75  1  0.00610852  0.49552530  0.75477693  1
  Pb  Pb76  1  -0.00268321  0.74602617  -0.00983103  1
  Pb  Pb77  1  -0.00185713  0.74995758  0.24898024  1
  Pb  Pb78  1  -0.00062719  0.75239115  0.50827731  1
  Pb  Pb79  1  -0.00720453  0.74889235  0.75270857  1
  Pb  Pb80  1  0.24686320  0.00521605  -0.00051867  1
  Pb  Pb81  1  0.24893761  0.01129378  0.25493347  1
  Pb  Pb82  1  0.25115482  0.00922204  0.50073512  1
  Pb  Pb83  1  0.24816578  0.01061976  0.75356410  1
  Pb  Pb84  1  0.25169412  0.25184127  -0.01068243  1
  Pb  Pb85  1  0.24646143  0.25443316  0.25460488  1
  Pb  Pb86  1  0.25198604  0.25029827  0.49332247  1
  Pb  Pb87  1  0.25761623  0.25162126  0.75004825  1
  Pb  Pb88  1  0.25376013  0.49137343  -0.00396092  1
  Pb  Pb89  1  0.25016384  0.48934560  0.25968317  1
  Pb  Pb90  1  0.25384759  0.49291572  0.50438499  1
  Pb  Pb91  1  0.24680322  0.49968907  0.74590756  1
  Pb  Pb92  1  0.25871488  0.75593423  0.00232157  1
  Pb  Pb93  1  0.24994564  0.74873641  0.25329815  1
  Pb  Pb94  1  0.24800510  0.75104683  0.50471667  1
  Pb  Pb95  1  0.24389433  0.74569675  0.74596533  1
  Pb  Pb96  1  0.50009109  0.00046510  -0.00631612  1
  Pb  Pb97  1  0.49924717  0.00797844  0.25551829  1
  Pb  Pb98  1  0.49636769  0.00991943  0.50512260  1
  Pb  Pb99  1  0.50770762  0.00075457  0.75246188  1
  Pb  Pb100  1  0.49088226  0.25344839  -0.00594333  1
  Pb  Pb101  1  0.49446524  0.24502181  0.25704621  1
  Pb  Pb102  1  0.48834921  0.24758215  0.50257281  1
  Pb  Pb103  1  0.49189587  0.25339578  0.74441777  1
  Pb  Pb104  1  0.50127633  0.49987593  0.00114543  1
  Pb  Pb105  1  0.49642942  0.49696960  0.25791866  1
  Pb  Pb106  1  0.50364862  0.48687382  0.50929094  1
  Pb  Pb107  1  0.49615794  0.49767995  0.73280539  1
  Pb  Pb108  1  0.50116430  0.74790936  0.00229586  1
  Pb  Pb109  1  0.50581959  0.74295105  0.25651767  1
  Pb  Pb110  1  0.50004857  0.74472142  0.50785905  1
  Pb  Pb111  1  0.50393210  0.75304696  0.74237163  1
  Pb  Pb112  1  0.75103608  0.00078986  -0.01262003  1
  Pb  Pb113  1  0.74890085  0.00545379  0.25030206  1
  Pb  Pb114  1  0.75825698  0.01088138  0.50506654  1
  Pb  Pb115  1  0.74431093  0.00205137  0.75519714  1
  Pb  Pb116  1  0.76513210  0.24273864  -0.00080492  1
  Pb  Pb117  1  0.75126846  0.24465858  0.24959960  1
  Pb  Pb118  1  0.75030193  0.24939125  0.49980054  1
  Pb  Pb119  1  0.75987737  0.24966697  0.75450632  1
  Pb  Pb120  1  0.75460999  0.49720066  -0.00378337  1
  Pb  Pb121  1  0.74245195  0.50585603  0.25215414  1
  Pb  Pb122  1  0.74619644  0.50246426  0.50672648  1
  Pb  Pb123  1  0.75187417  0.50398834  0.74372873  1
  Pb  Pb124  1  0.74736675  0.74851945  -0.00684572  1
  Pb  Pb125  1  0.74237420  0.74467298  0.25248846  1
  Pb  Pb126  1  0.75415932  0.74400149  0.50859087  1
  Pb  Pb127  1  0.75381345  0.75226513  0.74905163  1
  O  O128  1  0.12476789  -0.01009981  0.16246556  1
  O  O129  1  0.12205178  -0.00477217  0.41481783  1
  O  O130  1  0.12391384  0.00373073  0.66080053  1
  O  O131  1  0.13030743  -0.01478183  0.91340509  1
  O  O132  1  0.12741724  0.25698948  0.15900511  1
  O  O133  1  0.12133738  0.25108019  0.41377830  1
  O  O134  1  0.12248279  0.25118555  0.66189021  1
  O  O135  1  0.12848380  0.25165354  0.90858624  1
  O  O136  1  0.12629758  0.50092906  0.16664823  1
  O  O137  1  0.12299655  0.50657011  0.42074895  1
  O  O138  1  0.12475902  0.50118372  0.66027527  1
  O  O139  1  0.12951669  0.50303230  0.91462007  1
  O  O140  1  0.12444531  0.74911560  0.16946575  1
  O  O141  1  0.12261914  0.74815445  0.42150640  1
  O  O142  1  0.12535224  0.74663111  0.65932209  1
  O  O143  1  0.13351283  0.75547174  0.91372976  1
  O  O144  1  0.37558754  0.00396232  0.16469115  1
  O  O145  1  0.37662189  -0.01043454  0.41534002  1
  O  O146  1  0.37620111  -0.00839031  0.66404515  1
  O  O147  1  0.37647541  -0.00879128  0.90652275  1
  O  O148  1  0.37592589  0.24371173  0.16792137  1
  O  O149  1  0.37770214  0.24901508  0.41190127  1
  O  O150  1  0.37283091  0.24842498  0.65924725  1
  O  O151  1  0.37811044  0.25169711  0.90813628  1
  O  O152  1  0.37449980  0.50829869  0.16999359  1
  O  O153  1  0.37552375  0.50650248  0.41510492  1
  O  O154  1  0.37231567  0.50197776  0.65241973  1
  O  O155  1  0.37943006  0.50798394  0.90830742  1
  O  O156  1  0.37372795  0.74403549  0.17176339  1
  O  O157  1  0.37623015  0.75957008  0.41918363  1
  O  O158  1  0.37538520  0.75806799  0.65950757  1
  O  O159  1  0.37706591  0.74710926  0.91474151  1
  O  O160  1  0.62402749  -0.00390532  0.16265263  1
  O  O161  1  0.63227303  -0.01050406  0.41715938  1
  O  O162  1  0.62515097  -0.00345813  0.66395384  1
  O  O163  1  0.62033862  -0.00323613  0.91283501  1
  O  O164  1  0.62200104  0.25278226  0.16625076  1
  O  O165  1  0.63155289  0.25651460  0.41244014  1
  O  O166  1  0.62849123  0.24477914  0.65638473  1
  O  O167  1  0.61890220  0.25760770  0.90311426  1
  O  O168  1  0.62204425  0.49598538  0.16854775  1
  O  O169  1  0.62984758  0.49629704  0.41731185  1
  O  O170  1  0.62756776  0.49927743  0.65601905  1
  O  O171  1  0.62072510  0.50479325  0.91129486  1
  O  O172  1  0.62378855  0.75433382  0.16767423  1
  O  O173  1  0.62934772  0.76087948  0.42128388  1
  O  O174  1  0.62513661  0.75746140  0.65770675  1
  O  O175  1  0.61817657  0.74262706  0.91215668  1
  O  O176  1  0.87458396  -0.00860069  0.16409197  1
  O  O177  1  0.87550300  -0.00796493  0.41188709  1
  O  O178  1  0.87412561  -0.00596672  0.66738739  1
  O  O179  1  0.87475542  -0.00322957  0.90652528  1
  O  O180  1  0.87309434  0.25403665  0.16570446  1
  O  O181  1  0.87394159  0.25761872  0.40784198  1
  O  O182  1  0.87905570  0.25525139  0.66523061  1
  O  O183  1  0.87248553  0.24993734  0.91082620  1
  O  O184  1  0.87382057  0.50406847  0.16560861  1
  O  O185  1  0.87539368  0.50426933  0.41688721  1
  O  O186  1  0.87849901  0.49274910  0.66374234  1
  O  O187  1  0.86981133  0.50397199  0.90919161  1
  O  O188  1  0.87512019  0.74917543  0.16905140  1
  O  O189  1  0.87816770  0.74877603  0.41783730  1
  O  O190  1  0.87498946  0.75764084  0.66190428  1
  O  O191  1  0.87353966  0.74786624  0.91483936  1
  O  O192  1  0.00132516  0.12314919  0.16420646  1
  O  O193  1  -0.00261505  0.12290543  0.41326956  1
  O  O194  1  0.00712007  0.12545894  0.66728353  1
  O  O195  1  0.00061343  0.12240155  0.91026946  1
  O  O196  1  0.00603401  0.37904212  0.16024194  1
  O  O197  1  -0.00958139  0.38079841  0.41540682  1
  O  O198  1  0.00173629  0.37565108  0.66686844  1
  O  O199  1  0.00099528  0.37794822  0.90823354  1
  O  O200  1  0.00136950  0.62589613  0.16627187  1
  O  O201  1  -0.00230313  0.62645124  0.42068229  1
  O  O202  1  0.00732486  0.62448222  0.66352716  1
  O  O203  1  0.00269750  0.62854384  0.90602589  1
  O  O204  1  0.00265985  0.86962616  0.16472548  1
  O  O205  1  -0.00657486  0.87157308  0.41845537  1
  O  O206  1  -0.00208825  0.87573121  0.66260290  1
  O  O207  1  0.00777334  0.86663575  0.90203528  1
  O  O208  1  0.25423630  0.12346764  0.16300451  1
  O  O209  1  0.24918214  0.12047601  0.41338248  1
  O  O210  1  0.24160426  0.12446162  0.66165542  1
  O  O211  1  0.25438542  0.11986307  0.91423866  1
  O  O212  1  0.24613810  0.37813718  0.16775998  1
  O  O213  1  0.24738649  0.37888180  0.41638978  1
  O  O214  1  0.24223228  0.37481968  0.65703271  1
  O  O215  1  0.25437832  0.37929296  0.91023139  1
  O  O216  1  0.25152736  0.62686612  0.16867732  1
  O  O217  1  0.25043632  0.63053457  0.41933149  1
  O  O218  1  0.24536896  0.62664905  0.65803493  1
  O  O219  1  0.26111279  0.62698897  0.91250754  1
  O  O220  1  0.24345926  0.87015351  0.16702531  1
  O  O221  1  0.25212331  0.87305711  0.41189895  1
  O  O222  1  0.25445924  0.87514750  0.65690947  1
  O  O223  1  0.25629226  0.87034519  0.91350644  1
  O  O224  1  0.49820174  0.12390755  0.16899833  1
  O  O225  1  0.50393608  0.12019609  0.41690093  1
  O  O226  1  0.50830825  0.12033183  0.65950923  1
  O  O227  1  0.49750457  0.12314704  0.91403694  1
  O  O228  1  0.50506854  0.37564882  0.17270479  1
  O  O229  1  0.50683834  0.37833927  0.41090125  1
  O  O230  1  0.50214368  0.37238464  0.65611839  1
  O  O231  1  0.50638995  0.38175259  0.91221358  1
  O  O232  1  0.49363761  0.62604361  0.16933795  1
  O  O233  1  0.49507606  0.63255377  0.41723159  1
  O  O234  1  0.50034344  0.62957913  0.65252611  1
  O  O235  1  0.49669316  0.62618732  0.91512385  1
  O  O236  1  0.50590400  0.87362804  0.16682272  1
  O  O237  1  0.50258802  0.87474978  0.41013952  1
  O  O238  1  0.50026548  0.87577517  0.65945705  1
  O  O239  1  0.49295498  0.86932892  0.91355753  1
  O  O240  1  0.74480578  0.12373684  0.16462892  1
  O  O241  1  0.75158114  0.12402714  0.41723449  1
  O  O242  1  0.74421570  0.12021635  0.66437839  1
  O  O243  1  0.74686831  0.12487346  0.90903807  1
  O  O244  1  0.74001419  0.37648616  0.16639803  1
  O  O245  1  0.75760354  0.37963998  0.41663774  1
  O  O246  1  0.75692435  0.37256888  0.66045616  1
  O  O247  1  0.73731827  0.37999337  0.91055845  1
  O  O248  1  0.75166021  0.62622122  0.16615978  1
  O  O249  1  0.75903639  0.62841019  0.41733699  1
  O  O250  1  0.74891711  0.62700361  0.66126556  1
  O  O251  1  0.74061028  0.62695428  0.90543558  1
  O  O252  1  0.74515061  0.87263903  0.16399505  1
  O  O253  1  0.75843948  0.87044900  0.41637532  1
  O  O254  1  0.74774121  0.87649869  0.66151207  1
  O  O255  1  0.74611584  0.86933732  0.91054776  1
  O  O256  1  0.12492318  0.11366808  0.03554170  1
  O  O257  1  0.12769457  0.12121382  0.28080076  1
  O  O258  1  0.12076718  0.12436441  0.54865228  1
  O  O259  1  0.12776933  0.11314514  0.78632929  1
  O  O260  1  0.13091176  0.38150114  0.04926482  1
  O  O261  1  0.12578854  0.38109128  0.28704051  1
  O  O262  1  0.11829631  0.37319628  0.55109975  1
  O  O263  1  0.12545098  0.38439793  0.77758732  1
  O  O264  1  0.12838867  0.62610675  0.04845767  1
  O  O265  1  0.12346424  0.62511062  0.30312211  1
  O  O266  1  0.12237878  0.62503151  0.54721812  1
  O  O267  1  0.13701663  0.62463364  0.78180125  1
  O  O268  1  0.12686044  0.86923613  0.04994597  1
  O  O269  1  0.11939395  0.87048988  0.30480868  1
  O  O270  1  0.12064517  0.87298405  0.53226381  1
  O  O271  1  0.13105799  0.87216337  0.79335041  1
  O  O272  1  0.37818789  0.12664577  0.05186304  1
  O  O273  1  0.37771194  0.11734115  0.28691785  1
  O  O274  1  0.37796882  0.11581682  0.53913867  1
  O  O275  1  0.36974281  0.12481204  0.77572203  1
  O  O276  1  0.38068770  0.37829584  0.04301975  1
  O  O277  1  0.37193935  0.38127569  0.28793241  1
  O  O278  1  0.37936444  0.37578900  0.52876813  1
  O  O279  1  0.37812718  0.37135920  0.77793552  1
  O  O280  1  0.37445216  0.62585164  0.05283033  1
  O  O281  1  0.37292881  0.63141683  0.31135220  1
  O  O282  1  0.37284266  0.63584331  0.52524367  1
  O  O283  1  0.37630370  0.62868901  0.79451693  1
  O  O284  1  0.37254569  0.86746175  0.04100430  1
  O  O285  1  0.37176649  0.87226118  0.29810367  1
  O  O286  1  0.37538551  0.87888857  0.54446781  1
  O  O287  1  0.37464548  0.86984294  0.79695123  1
  O  O288  1  0.62019032  0.12763535  0.04967528  1
  O  O289  1  0.62426185  0.11907530  0.28576337  1
  O  O290  1  0.62940709  0.12138065  0.54782053  1
  O  O291  1  0.62270975  0.11679115  0.78013143  1
  O  O292  1  0.61953753  0.37769671  0.05149364  1
  O  O293  1  0.63077653  0.37926288  0.30371618  1
  O  O294  1  0.62901010  0.37642840  0.52903494  1
  O  O295  1  0.62352918  0.37740807  0.79160851  1
  O  O296  1  0.61833506  0.62429511  0.03869331  1
  O  O297  1  0.62741393  0.63163154  0.29790023  1
  O  O298  1  0.63154426  0.62985696  0.52508226  1
  O  O299  1  0.61812359  0.62397347  0.79623083  1
  O  O300  1  0.62126651  0.87198915  0.04943002  1
  O  O301  1  0.62587459  0.87294888  0.30108974  1
  O  O302  1  0.62784902  0.88034120  0.54880118  1
  O  O303  1  0.61804317  0.87556276  0.78069723  1
  O  O304  1  0.87545845  0.12544270  0.03865097  1
  O  O305  1  0.87253349  0.12061318  0.28168020  1
  O  O306  1  0.87631261  0.12163542  0.54443609  1
  O  O307  1  0.87569833  0.12873015  0.77624520  1
  O  O308  1  0.86264557  0.37678478  0.03414986  1
  O  O309  1  0.87505479  0.38102114  0.29760013  1
  O  O310  1  0.87917288  0.37406247  0.55046004  1
  O  O311  1  0.87236198  0.36913611  0.78359850  1
  O  O312  1  0.87575856  0.62725151  0.04676721  1
  O  O313  1  0.87891346  0.62543429  0.30469917  1
  O  O314  1  0.87965505  0.62452096  0.54181038  1
  O  O315  1  0.87398158  0.63274875  0.77466975  1
  O  O316  1  0.87490118  0.87022214  0.04719123  1
  O  O317  1  0.87399183  0.87104812  0.29985042  1
  O  O318  1  0.87784356  0.87919607  0.55193096  1
  O  O319  1  0.87473094  0.86363339  0.77919636  1
