# generated using pymatgen
data_VFe(PbO3)2
_symmetry_space_group_name_H-M   'P 1'
_cell_length_a   15.38779387
_cell_length_b   15.38180395
_cell_length_c   18.47464556
_cell_angle_alpha   90.01671609
_cell_angle_beta   89.99680672
_cell_angle_gamma   90.00743894
_symmetry_Int_Tables_number   1
_chemical_formula_structural   VFe(PbO3)2
_chemical_formula_sum   'V32 Fe32 Pb64 O192'
_cell_volume   4372.80110396
_cell_formula_units_Z   32
loop_
 _symmetry_equiv_pos_site_id
 _symmetry_equiv_pos_as_xyz
  1  'x, y, z'
loop_
 _atom_site_type_symbol
 _atom_site_label
 _atom_site_symmetry_multiplicity
 _atom_site_fract_x
 _atom_site_fract_y
 _atom_site_fract_z
 _atom_site_occupancy
  V  V0  1  0.87418300  0.62993748  0.88691475  1
  V  V1  1  0.12447416  0.87340556  0.88718417  1
  V  V2  1  0.87413691  0.37356889  0.13535277  1
  V  V3  1  0.87775130  0.87627458  0.63812499  1
  V  V4  1  0.12735484  0.37353099  0.63983137  1
  V  V5  1  0.87262427  0.87910391  0.39345302  1
  V  V6  1  0.62834544  0.62417305  0.39450243  1
  V  V7  1  0.37661113  0.37820607  0.64018210  1
  V  V8  1  0.87486932  0.62615760  0.39034527  1
  V  V9  1  0.87584516  0.87517824  0.14101997  1
  V  V10  1  0.12552944  0.62427840  0.63662742  1
  V  V11  1  0.12552050  0.37745868  0.14460514  1
  V  V12  1  0.62373340  0.12442027  0.14018008  1
  V  V13  1  0.37367123  0.87579646  0.14680702  1
  V  V14  1  0.87264694  0.37400974  0.39264298  1
  V  V15  1  0.62736700  0.37542287  0.64333480  1
  V  V16  1  0.87513444  0.12077939  0.88419199  1
  V  V17  1  0.37468868  0.87025329  0.88544585  1
  V  V18  1  0.87386460  0.62561742  0.13919347  1
  V  V19  1  0.12557493  0.12382936  0.14227487  1
  V  V20  1  0.11995493  0.12858101  0.39119907  1
  V  V21  1  0.62726195  0.12566520  0.39116411  1
  V  V22  1  0.62614306  0.87337800  0.88558104  1
  V  V23  1  0.37697471  0.62606140  0.14582453  1
  V  V24  1  0.62589942  0.37581145  0.13860183  1
  V  V25  1  0.12524003  0.87864001  0.14582318  1
  V  V26  1  0.37483487  0.12449508  0.14500767  1
  V  V27  1  0.37425576  0.12628916  0.63664907  1
  V  V28  1  0.62652643  0.37476252  0.38994383  1
  V  V29  1  0.37549239  0.62778911  0.88931839  1
  V  V30  1  0.87555857  0.62238902  0.63786847  1
  V  V31  1  0.12181864  0.87470276  0.39300692  1
  Fe  Fe32  1  0.37272964  0.87229893  0.62389736  1
  Fe  Fe33  1  0.87612995  0.37969655  0.87769247  1
  Fe  Fe34  1  0.87323177  0.12413314  0.39739871  1
  Fe  Fe35  1  0.62534592  0.12735107  0.64518490  1
  Fe  Fe36  1  0.62528873  0.37651096  0.88081413  1
  Fe  Fe37  1  0.11951819  0.62210984  0.37872918  1
  Fe  Fe38  1  0.62292079  0.12230335  0.87503331  1
  Fe  Fe39  1  0.62175645  0.62564921  0.88732989  1
  Fe  Fe40  1  0.87596946  0.87064684  0.88027743  1
  Fe  Fe41  1  0.87501485  0.12400747  0.13520146  1
  Fe  Fe42  1  0.37482222  0.37173195  0.37930223  1
  Fe  Fe43  1  0.12146419  0.37358911  0.37874420  1
  Fe  Fe44  1  0.37563627  0.12059950  0.88115613  1
  Fe  Fe45  1  0.12495024  0.37595046  0.88478165  1
  Fe  Fe46  1  0.12562657  0.12627445  0.63861304  1
  Fe  Fe47  1  0.37415192  0.37579862  0.88464193  1
  Fe  Fe48  1  0.37324524  0.62096785  0.62344278  1
  Fe  Fe49  1  0.87615682  0.12910214  0.63141930  1
  Fe  Fe50  1  0.12570150  0.63017485  0.14935864  1
  Fe  Fe51  1  0.12707335  0.12206111  0.87939595  1
  Fe  Fe52  1  0.62813753  0.87566464  0.39580063  1
  Fe  Fe53  1  0.62443696  0.87685407  0.14222357  1
  Fe  Fe54  1  0.37424190  0.62206123  0.39386556  1
  Fe  Fe55  1  0.12807436  0.62598023  0.88789302  1
  Fe  Fe56  1  0.62297810  0.87328632  0.62531147  1
  Fe  Fe57  1  0.37466133  0.12704360  0.38422716  1
  Fe  Fe58  1  0.62391497  0.62316123  0.63019716  1
  Fe  Fe59  1  0.87804794  0.37925980  0.64545833  1
  Fe  Fe60  1  0.37588810  0.37519678  0.14368459  1
  Fe  Fe61  1  0.37439505  0.87891046  0.39476663  1
  Fe  Fe62  1  0.62481744  0.62715643  0.13677359  1
  Fe  Fe63  1  0.12617571  0.87370454  0.62949352  1
  Pb  Pb64  1  -0.00643956  0.00264539  -0.00198535  1
  Pb  Pb65  1  -0.00756045  0.00820749  0.25611587  1
  Pb  Pb66  1  0.00853489  0.00391134  0.50882157  1
  Pb  Pb67  1  0.00675402  0.00649723  0.74469455  1
  Pb  Pb68  1  0.00120795  0.24910694  -0.00933980  1
  Pb  Pb69  1  0.00011383  0.25210777  0.25113377  1
  Pb  Pb70  1  -0.01108684  0.25112226  0.50727165  1
  Pb  Pb71  1  -0.00007959  0.25542572  0.74826479  1
  Pb  Pb72  1  0.00406184  0.50174580  -0.00373110  1
  Pb  Pb73  1  0.00538345  0.49830365  0.25157321  1
  Pb  Pb74  1  -0.00371511  0.49237420  0.49997253  1
  Pb  Pb75  1  0.01033636  0.50139434  0.75550224  1
  Pb  Pb76  1  0.00586581  0.74402206  0.00290957  1
  Pb  Pb77  1  0.00193028  0.74853723  0.25313308  1
  Pb  Pb78  1  0.00098737  0.75336786  0.50007922  1
  Pb  Pb79  1  -0.00187836  0.75168312  0.74993271  1
  Pb  Pb80  1  0.25127150  -0.00118821  -0.00591726  1
  Pb  Pb81  1  0.25880963  -0.00025929  0.26055672  1
  Pb  Pb82  1  0.24107589  0.00432093  0.50243685  1
  Pb  Pb83  1  0.24899754  0.00437342  0.74316065  1
  Pb  Pb84  1  0.25477231  0.25125733  -0.00673268  1
  Pb  Pb85  1  0.25142411  0.25321720  0.25275063  1
  Pb  Pb86  1  0.24723277  0.25011445  0.49398620  1
  Pb  Pb87  1  0.25665454  0.25322659  0.75517146  1
  Pb  Pb88  1  0.25159537  0.49439095  0.00203836  1
  Pb  Pb89  1  0.25561047  0.50835673  0.25941232  1
  Pb  Pb90  1  0.24858097  0.49855086  0.48559970  1
  Pb  Pb91  1  0.24442294  0.49793135  0.75290329  1
  Pb  Pb92  1  0.24569501  0.74332011  0.00632641  1
  Pb  Pb93  1  0.26244540  0.74950387  0.26226233  1
  Pb  Pb94  1  0.25488881  0.74733768  0.49406871  1
  Pb  Pb95  1  0.25279752  0.74868702  0.73839549  1
  Pb  Pb96  1  0.50380480  -0.00332160  -0.00571263  1
  Pb  Pb97  1  0.49443820  -0.00539702  0.26032831  1
  Pb  Pb98  1  0.49693282  -0.00537414  0.49891229  1
  Pb  Pb99  1  0.50025583  0.00200978  0.74023356  1
  Pb  Pb100  1  0.49685091  0.25049910  -0.00961703  1
  Pb  Pb101  1  0.49561991  0.24940429  0.25141091  1
  Pb  Pb102  1  0.50245293  0.24620441  0.50094816  1
  Pb  Pb103  1  0.49034393  0.25232323  0.75552665  1
  Pb  Pb104  1  0.49608110  0.49278158  -0.00060549  1
  Pb  Pb105  1  0.48913238  0.50512370  0.25829896  1
  Pb  Pb106  1  0.49875746  0.50446991  0.50047171  1
  Pb  Pb107  1  0.50536905  0.50348247  0.75117544  1
  Pb  Pb108  1  0.50920185  0.75235889  0.00560420  1
  Pb  Pb109  1  0.50394901  0.75979719  0.25995744  1
  Pb  Pb110  1  0.49239209  0.75564592  0.49911273  1
  Pb  Pb111  1  0.50044765  0.74556685  0.73216950  1
  Pb  Pb112  1  0.75292773  0.00177647  -0.00324420  1
  Pb  Pb113  1  0.75217325  0.00428192  0.25420930  1
  Pb  Pb114  1  0.73872903  0.01209838  0.51176589  1
  Pb  Pb115  1  0.74650614  0.00225210  0.74250244  1
  Pb  Pb116  1  0.74894373  0.24924518  -0.01271340  1
  Pb  Pb117  1  0.75629941  0.24260734  0.25101057  1
  Pb  Pb118  1  0.75002641  0.24607824  0.51087525  1
  Pb  Pb119  1  0.75519077  0.25327291  0.74843845  1
  Pb  Pb120  1  0.74557919  0.50273504  -0.00689967  1
  Pb  Pb121  1  0.75140143  0.50006212  0.24709629  1
  Pb  Pb122  1  0.75051810  0.49838228  0.50699365  1
  Pb  Pb123  1  0.73828793  0.50363072  0.75570906  1
  Pb  Pb124  1  0.74065551  0.75264388  0.00311294  1
  Pb  Pb125  1  0.74080708  0.75727014  0.25476363  1
  Pb  Pb126  1  0.74390882  0.74966088  0.50534532  1
  Pb  Pb127  1  0.74880171  0.75166094  0.74478495  1
  O  O128  1  0.12466563  0.00398103  0.17185517  1
  O  O129  1  0.12003560  0.00192397  0.41602597  1
  O  O130  1  0.12595007  -0.00225652  0.66119664  1
  O  O131  1  0.12528047  -0.00927124  0.91232638  1
  O  O132  1  0.12307175  0.24418980  0.16598786  1
  O  O133  1  0.11903608  0.24548436  0.41167021  1
  O  O134  1  0.12694739  0.25784822  0.65997320  1
  O  O135  1  0.12338603  0.24703127  0.91110492  1
  O  O136  1  0.12065802  0.49434503  0.16063968  1
  O  O137  1  0.11876763  0.49714660  0.40687294  1
  O  O138  1  0.12683869  0.50134247  0.66358278  1
  O  O139  1  0.12532600  0.50276272  0.91997753  1
  O  O140  1  0.12340919  0.76013935  0.17410402  1
  O  O141  1  0.11744441  0.75563793  0.40712718  1
  O  O142  1  0.12442264  0.74293865  0.65703743  1
  O  O143  1  0.12774899  0.75506361  0.91757952  1
  O  O144  1  0.37450627  0.00122116  0.17239198  1
  O  O145  1  0.37480385  0.00652313  0.41717006  1
  O  O146  1  0.37377006  0.00801384  0.64985854  1
  O  O147  1  0.37586266  -0.01031230  0.91434193  1
  O  O148  1  0.37469261  0.24613624  0.16643683  1
  O  O149  1  0.37852855  0.25011492  0.41484497  1
  O  O150  1  0.37364437  0.25548193  0.66580527  1
  O  O151  1  0.37494615  0.24740415  0.91228741  1
  O  O152  1  0.37589814  0.50567545  0.16648224  1
  O  O153  1  0.37783164  0.49326362  0.41200940  1
  O  O154  1  0.36959582  0.49422185  0.65820847  1
  O  O155  1  0.37430765  0.50957480  0.91228895  1
  O  O156  1  0.37435752  0.74910862  0.17185542  1
  O  O157  1  0.37448782  0.74921559  0.40914272  1
  O  O158  1  0.37170409  0.74529122  0.65288968  1
  O  O159  1  0.37435652  0.75080897  0.91795285  1
  O  O160  1  0.62487753  0.00746655  0.16574236  1
  O  O161  1  0.62929973  0.00890358  0.41256156  1
  O  O162  1  0.62705475  -0.00358053  0.65757228  1
  O  O163  1  0.62431840  -0.00853165  0.90933176  1
  O  O164  1  0.62753834  0.24727296  0.16561800  1
  O  O165  1  0.62979297  0.25418631  0.41517800  1
  O  O166  1  0.62179846  0.25990129  0.66636931  1
  O  O167  1  0.62742957  0.24760139  0.90529383  1
  O  O168  1  0.62982973  0.49369934  0.15938790  1
  O  O169  1  0.63250457  0.49413204  0.41584196  1
  O  O170  1  0.62318981  0.49644311  0.66435641  1
  O  O171  1  0.62474008  0.50233611  0.91693208  1
  O  O172  1  0.62513976  0.75042935  0.17260380  1
  O  O173  1  0.63172600  0.74038313  0.41112023  1
  O  O174  1  0.62707259  0.74884138  0.65587004  1
  O  O175  1  0.62364265  0.75491614  0.91450112  1
  O  O176  1  0.87501910  -0.00412907  0.16731077  1
  O  O177  1  0.87375147  -0.00683091  0.41828747  1
  O  O178  1  0.87561586  -0.00704887  0.65177870  1
  O  O179  1  0.87540502  -0.00173953  0.91185907  1
  O  O180  1  0.87402571  0.25176550  0.16322972  1
  O  O181  1  0.87219100  0.25682012  0.41513080  1
  O  O182  1  0.87690425  0.25283247  0.66513445  1
  O  O183  1  0.87486468  0.23965727  0.90416096  1
  O  O184  1  0.87348519  0.49752399  0.16401168  1
  O  O185  1  0.87293787  0.49711251  0.41632970  1
  O  O186  1  0.88056348  0.50965226  0.66523352  1
  O  O187  1  0.87652283  0.51045464  0.90947402  1
  O  O188  1  0.87709971  0.75578658  0.16419621  1
  O  O189  1  0.87620999  0.75127160  0.41595708  1
  O  O190  1  0.87975532  0.74235880  0.66376671  1
  O  O191  1  0.87553975  0.74668494  0.91573345  1
  O  O192  1  0.00495607  0.12339905  0.16507696  1
  O  O193  1  0.00281110  0.12384750  0.41597981  1
  O  O194  1  -0.00117681  0.12535434  0.66181903  1
  O  O195  1  -0.00471250  0.11817278  0.90883961  1
  O  O196  1  -0.00105497  0.37120591  0.16415938  1
  O  O197  1  -0.00883176  0.37387223  0.41309781  1
  O  O198  1  0.01069112  0.37987703  0.66457542  1
  O  O199  1  -0.00312266  0.37562949  0.91505075  1
  O  O200  1  -0.00781942  0.62648867  0.16808906  1
  O  O201  1  -0.00628447  0.62421849  0.41345724  1
  O  O202  1  0.00397433  0.62363715  0.66273149  1
  O  O203  1  -0.00411152  0.62988209  0.91501903  1
  O  O204  1  -0.00391864  0.87874502  0.16935177  1
  O  O205  1  -0.00384690  0.87628819  0.41900159  1
  O  O206  1  -0.00378931  0.86895473  0.66175513  1
  O  O207  1  0.00692289  0.87157189  0.91035389  1
  O  O208  1  0.24535442  0.12468565  0.16734999  1
  O  O209  1  0.24106109  0.12588698  0.41105443  1
  O  O210  1  0.25715645  0.13046436  0.66159693  1
  O  O211  1  0.25036009  0.11822096  0.91338675  1
  O  O212  1  0.24226724  0.37156574  0.16390254  1
  O  O213  1  0.24762040  0.37018895  0.40351507  1
  O  O214  1  0.24872048  0.37604386  0.66243847  1
  O  O215  1  0.25022956  0.37721715  0.91786151  1
  O  O216  1  0.25641021  0.62663287  0.17075355  1
  O  O217  1  0.24306393  0.62447135  0.40727316  1
  O  O218  1  0.24370210  0.62173150  0.65689921  1
  O  O219  1  0.25768646  0.62945248  0.91955914  1
  O  O220  1  0.24969395  0.87763120  0.17368289  1
  O  O221  1  0.23884512  0.87773933  0.40900803  1
  O  O222  1  0.25046404  0.87385315  0.65811974  1
  O  O223  1  0.24758487  0.87322957  0.91361193  1
  O  O224  1  0.50462384  0.12641246  0.16537366  1
  O  O225  1  0.50995164  0.12960804  0.41323653  1
  O  O226  1  0.49186378  0.13051808  0.66078780  1
  O  O227  1  0.50113210  0.11882194  0.91205594  1
  O  O228  1  0.51107331  0.37207615  0.16230672  1
  O  O229  1  0.51156691  0.37464201  0.41115572  1
  O  O230  1  0.49533644  0.37745027  0.66184008  1
  O  O231  1  0.49957926  0.37700100  0.91412221  1
  O  O232  1  0.49586781  0.62647989  0.16737944  1
  O  O233  1  0.51154201  0.61757444  0.40918540  1
  O  O234  1  0.49745246  0.61998119  0.65445252  1
  O  O235  1  0.49162056  0.62988857  0.91429277  1
  O  O236  1  0.49566224  0.87643128  0.17127430  1
  O  O237  1  0.50302953  0.87670228  0.41316976  1
  O  O238  1  0.49733874  0.87468633  0.65248775  1
  O  O239  1  0.50241920  0.87242295  0.91183030  1
  O  O240  1  0.74512157  0.12458970  0.16542466  1
  O  O241  1  0.74381876  0.12989750  0.41994603  1
  O  O242  1  0.75406636  0.12629635  0.66555831  1
  O  O243  1  0.75440540  0.11737613  0.90684996  1
  O  O244  1  0.74826686  0.37163240  0.16555694  1
  O  O245  1  0.75078754  0.37533691  0.41925322  1
  O  O246  1  0.74467327  0.37919517  0.66060590  1
  O  O247  1  0.75375641  0.37634147  0.91093249  1
  O  O248  1  0.75460814  0.62595248  0.16729664  1
  O  O249  1  0.75283932  0.62093310  0.42047069  1
  O  O250  1  0.75811416  0.62400368  0.65802130  1
  O  O251  1  0.75576056  0.62893988  0.91081242  1
  O  O252  1  0.75813409  0.87628069  0.16553554  1
  O  O253  1  0.75833116  0.87153634  0.41620908  1
  O  O254  1  0.75855950  0.86748544  0.65745211  1
  O  O255  1  0.74424062  0.87277043  0.90819158  1
  O  O256  1  0.12577171  0.12089705  0.05158645  1
  O  O257  1  0.11878276  0.12511045  0.29964719  1
  O  O258  1  0.12846391  0.12108132  0.53702749  1
  O  O259  1  0.12697772  0.11519453  0.77892472  1
  O  O260  1  0.12197575  0.37066733  0.05341735  1
  O  O261  1  0.11431297  0.36962500  0.27814628  1
  O  O262  1  0.12553101  0.37699499  0.54826423  1
  O  O263  1  0.12777437  0.38522187  0.78437144  1
  O  O264  1  0.12538952  0.63957057  0.04852345  1
  O  O265  1  0.11779210  0.62143039  0.27650862  1
  O  O266  1  0.12222675  0.62070691  0.54571197  1
  O  O267  1  0.12963836  0.62003046  0.78834527  1
  O  O268  1  0.12491062  0.87862213  0.05485172  1
  O  O269  1  0.11400182  0.88246612  0.30205962  1
  O  O270  1  0.11945983  0.87850682  0.52920992  1
  O  O271  1  0.12683687  0.87071632  0.79605489  1
  O  O272  1  0.37515797  0.11899466  0.05402930  1
  O  O273  1  0.37700194  0.12461368  0.28347523  1
  O  O274  1  0.37420223  0.13713805  0.54527357  1
  O  O275  1  0.37603095  0.12629229  0.78108403  1
  O  O276  1  0.37704461  0.37920512  0.04358557  1
  O  O277  1  0.38150536  0.37512567  0.27654456  1
  O  O278  1  0.37568665  0.37178486  0.54919427  1
  O  O279  1  0.37093440  0.37035254  0.78391447  1
  O  O280  1  0.37414774  0.62932651  0.05484061  1
  O  O281  1  0.37532821  0.61578990  0.29059186  1
  O  O282  1  0.37483042  0.62095892  0.52158786  1
  O  O283  1  0.37216541  0.63038876  0.79825816  1
  O  O284  1  0.37304557  0.87512499  0.05585368  1
  O  O285  1  0.37366599  0.88236476  0.29124709  1
  O  O286  1  0.37473363  0.86957451  0.52187645  1
  O  O287  1  0.37425454  0.87019439  0.79443861  1
  O  O288  1  0.62495725  0.12423033  0.04919547  1
  O  O289  1  0.63085655  0.12827223  0.29963671  1
  O  O290  1  0.63113394  0.13215606  0.54278813  1
  O  O291  1  0.62221722  0.11496919  0.77427360  1
  O  O292  1  0.62893217  0.37182266  0.04752860  1
  O  O293  1  0.63063930  0.37527564  0.29902733  1
  O  O294  1  0.62265233  0.37640919  0.55144529  1
  O  O295  1  0.62318138  0.38928324  0.78059580  1
  O  O296  1  0.62659590  0.63763257  0.03701717  1
  O  O297  1  0.63553614  0.61844594  0.30294583  1
  O  O298  1  0.63008185  0.61687053  0.52999464  1
  O  O299  1  0.62280707  0.61794767  0.78663748  1
  O  O300  1  0.62402285  0.86893473  0.04218180  1
  O  O301  1  0.62933064  0.87076592  0.29301492  1
  O  O302  1  0.63053841  0.87337276  0.52317776  1
  O  O303  1  0.62379437  0.87048007  0.79458167  1
  O  O304  1  0.87430240  0.11449076  0.03603013  1
  O  O305  1  0.86869547  0.12065929  0.29566246  1
  O  O306  1  0.87123404  0.13493071  0.52852600  1
  O  O307  1  0.87583831  0.11722019  0.79306241  1
  O  O308  1  0.87328904  0.37384615  0.04466645  1
  O  O309  1  0.86914999  0.37610369  0.30130374  1
  O  O310  1  0.88379726  0.37872146  0.54360625  1
  O  O311  1  0.87957552  0.37554714  0.77691781  1
  O  O312  1  0.87462445  0.62725563  0.04797563  1
  O  O313  1  0.87034043  0.62439971  0.29915257  1
  O  O314  1  0.87896680  0.62235558  0.54614026  1
  O  O315  1  0.87661857  0.63267291  0.79549883  1
  O  O316  1  0.87778601  0.87689980  0.04971937  1
  O  O317  1  0.87565864  0.87950711  0.30174192  1
  O  O318  1  0.88034034  0.86589353  0.54707941  1
  O  O319  1  0.87647710  0.86647807  0.78104103  1
