# generated using pymatgen
data_VFe(PbO3)2
_symmetry_space_group_name_H-M   'P 1'
_cell_length_a   15.37397675
_cell_length_b   15.38870250
_cell_length_c   18.52858998
_cell_angle_alpha   90.01372900
_cell_angle_beta   90.00234379
_cell_angle_gamma   90.01821219
_symmetry_Int_Tables_number   1
_chemical_formula_structural   VFe(PbO3)2
_chemical_formula_sum   'V32 Fe32 Pb64 O192'
_cell_volume   4383.59638432
_cell_formula_units_Z   32
loop_
 _symmetry_equiv_pos_site_id
 _symmetry_equiv_pos_as_xyz
  1  'x, y, z'
loop_
 _atom_site_type_symbol
 _atom_site_label
 _atom_site_symmetry_multiplicity
 _atom_site_fract_x
 _atom_site_fract_y
 _atom_site_fract_z
 _atom_site_occupancy
  V  V0  1  0.12301130  0.37684026  0.63345320  1
  V  V1  1  0.12184380  0.87187891  0.13930254  1
  V  V2  1  0.62534103  0.12422564  0.63965688  1
  V  V3  1  0.37814123  0.12104542  0.39074528  1
  V  V4  1  0.62252492  0.87572513  0.13062902  1
  V  V5  1  0.37614208  0.62375912  0.64047431  1
  V  V6  1  0.62397265  0.87616857  0.39317565  1
  V  V7  1  0.12462737  0.62030474  0.89144061  1
  V  V8  1  0.62337074  0.12888422  0.89102570  1
  V  V9  1  0.62273162  0.12810982  0.13655404  1
  V  V10  1  0.62413520  0.38104190  0.13678570  1
  V  V11  1  0.87840167  0.62349579  0.63953453  1
  V  V12  1  0.87490177  0.12452662  0.89323095  1
  V  V13  1  0.87796568  0.62321041  0.89007120  1
  V  V14  1  0.37274295  0.87697098  0.88826621  1
  V  V15  1  0.62485865  0.62511599  0.39115293  1
  V  V16  1  0.87909146  0.37355161  0.89421951  1
  V  V17  1  0.87425283  0.87449588  0.38846330  1
  V  V18  1  0.87314098  0.13210926  0.63704509  1
  V  V19  1  0.87546268  0.87716704  0.64227147  1
  V  V20  1  0.37581398  0.87342492  0.39064381  1
  V  V21  1  0.87735805  0.62717661  0.13989588  1
  V  V22  1  0.62614362  0.12505350  0.38840831  1
  V  V23  1  0.86967083  0.62925951  0.38839594  1
  V  V24  1  0.37512926  0.87640612  0.63924351  1
  V  V25  1  0.63049653  0.62653680  0.64617680  1
  V  V26  1  0.12566149  0.87554937  0.89243666  1
  V  V27  1  0.62577938  0.62797353  0.13250599  1
  V  V28  1  0.12382115  0.37036569  0.15054942  1
  V  V29  1  0.37238347  0.12547634  0.88996660  1
  V  V30  1  0.37279692  0.87341530  0.13910453  1
  V  V31  1  0.12833293  0.62436354  0.14314796  1
  Fe  Fe32  1  0.12707785  0.62731812  0.38618308  1
  Fe  Fe33  1  0.62454881  0.37428556  0.38487522  1
  Fe  Fe34  1  0.87547312  0.37764586  0.63228792  1
  Fe  Fe35  1  0.12537437  0.37530458  0.37369166  1
  Fe  Fe36  1  0.87747839  0.87557205  0.89423810  1
  Fe  Fe37  1  0.12563992  0.87475947  0.38739437  1
  Fe  Fe38  1  0.37680484  0.62713133  0.13943766  1
  Fe  Fe39  1  0.12364058  0.37239286  0.88923530  1
  Fe  Fe40  1  0.38114847  0.62863858  0.38294407  1
  Fe  Fe41  1  0.12569180  0.87208298  0.63232092  1
  Fe  Fe42  1  0.12687542  0.12150452  0.14551259  1
  Fe  Fe43  1  0.37399441  0.12521187  0.63112409  1
  Fe  Fe44  1  0.12333769  0.12523387  0.88823752  1
  Fe  Fe45  1  0.12249460  0.12475887  0.63301111  1
  Fe  Fe46  1  0.87273072  0.12332464  0.14049556  1
  Fe  Fe47  1  0.86975170  0.11988380  0.37913423  1
  Fe  Fe48  1  0.37647677  0.12323864  0.13631314  1
  Fe  Fe49  1  0.37762796  0.37589057  0.38156245  1
  Fe  Fe50  1  0.37124678  0.62455732  0.88335961  1
  Fe  Fe51  1  0.62900434  0.37488185  0.63695778  1
  Fe  Fe52  1  0.87291609  0.87161351  0.12667450  1
  Fe  Fe53  1  0.12319206  0.12263031  0.37702743  1
  Fe  Fe54  1  0.62309231  0.87664472  0.88170632  1
  Fe  Fe55  1  0.62505004  0.37309816  0.88714305  1
  Fe  Fe56  1  0.37146701  0.37408910  0.88231696  1
  Fe  Fe57  1  0.62545825  0.62216777  0.88289271  1
  Fe  Fe58  1  0.37484712  0.37527679  0.14140246  1
  Fe  Fe59  1  0.37599679  0.37364040  0.63451164  1
  Fe  Fe60  1  0.87133050  0.37453038  0.37674417  1
  Fe  Fe61  1  0.87512674  0.37710728  0.14874071  1
  Fe  Fe62  1  0.12486330  0.62589233  0.63088727  1
  Fe  Fe63  1  0.62502709  0.87403616  0.64958698  1
  Pb  Pb64  1  0.00195060  0.01193801  0.00964771  1
  Pb  Pb65  1  -0.00499110  0.00471947  0.24996695  1
  Pb  Pb66  1  0.01062823  0.00765716  0.49684869  1
  Pb  Pb67  1  0.00480461  0.00310310  0.75026850  1
  Pb  Pb68  1  0.00348130  0.24236953  0.01008590  1
  Pb  Pb69  1  -0.00692822  0.23929416  0.25083239  1
  Pb  Pb70  1  -0.00202789  0.24922380  0.48066576  1
  Pb  Pb71  1  0.01508067  0.25075824  0.75275855  1
  Pb  Pb72  1  -0.00292145  0.48955631  0.01143431  1
  Pb  Pb73  1  0.00552788  0.49996647  0.25743959  1
  Pb  Pb74  1  0.00208916  0.49701029  0.48847169  1
  Pb  Pb75  1  0.00998198  0.49255977  0.74925535  1
  Pb  Pb76  1  0.00051043  0.75271389  0.00125312  1
  Pb  Pb77  1  0.00900585  0.75217933  0.25585210  1
  Pb  Pb78  1  0.00856944  0.75110411  0.50153713  1
  Pb  Pb79  1  -0.00181390  0.75364039  0.75020358  1
  Pb  Pb80  1  0.24730217  0.01152087  0.00630602  1
  Pb  Pb81  1  0.24320476  -0.00085122  0.25275702  1
  Pb  Pb82  1  0.24157936  0.00626952  0.50130861  1
  Pb  Pb83  1  0.24180866  0.00905011  0.74413563  1
  Pb  Pb84  1  0.24899390  0.25331754  0.00219161  1
  Pb  Pb85  1  0.25616921  0.24870304  0.24844536  1
  Pb  Pb86  1  0.25032481  0.25123305  0.48946142  1
  Pb  Pb87  1  0.25051722  0.25416842  0.74467955  1
  Pb  Pb88  1  0.26328533  0.49094012  0.00353064  1
  Pb  Pb89  1  0.25366496  0.49660099  0.25472906  1
  Pb  Pb90  1  0.25323967  0.49906856  0.48689991  1
  Pb  Pb91  1  0.25748642  0.49590054  0.74875001  1
  Pb  Pb92  1  0.25489812  0.74503061  0.00264898  1
  Pb  Pb93  1  0.24196855  0.74874921  0.25810781  1
  Pb  Pb94  1  0.24159392  0.74525150  0.49944273  1
  Pb  Pb95  1  0.25192888  0.74495165  0.74715411  1
  Pb  Pb96  1  0.49396904  0.00566254  -0.00030784  1
  Pb  Pb97  1  0.50297812  -0.00242428  0.24755349  1
  Pb  Pb98  1  0.49707633  0.00389885  0.50622418  1
  Pb  Pb99  1  0.50424071  -0.00294291  0.74987229  1
  Pb  Pb100  1  0.49000331  0.25841159  0.00104710  1
  Pb  Pb101  1  0.49997710  0.25846013  0.25113794  1
  Pb  Pb102  1  0.49207450  0.25337889  0.50291797  1
  Pb  Pb103  1  0.49399536  0.26274598  0.74756619  1
  Pb  Pb104  1  0.49406266  0.50010328  -0.00840550  1
  Pb  Pb105  1  0.48913821  0.50190206  0.25145455  1
  Pb  Pb106  1  0.49431839  0.48656633  0.49962067  1
  Pb  Pb107  1  0.50408893  0.50015748  0.75183910  1
  Pb  Pb108  1  0.49718884  0.74045762  -0.00617838  1
  Pb  Pb109  1  0.49869217  0.74575778  0.24911315  1
  Pb  Pb110  1  0.50628742  0.75631222  0.50647862  1
  Pb  Pb111  1  0.49945560  0.73955906  0.75674105  1
  Pb  Pb112  1  0.75498812  -0.00103547  -0.00003486  1
  Pb  Pb113  1  0.75505894  -0.00147815  0.24361198  1
  Pb  Pb114  1  0.74400300  -0.00448819  0.50368948  1
  Pb  Pb115  1  0.75463370  -0.00818847  0.75717039  1
  Pb  Pb116  1  0.76488901  0.24947702  0.00944205  1
  Pb  Pb117  1  0.74940578  0.25544458  0.25169228  1
  Pb  Pb118  1  0.75300159  0.26224939  0.49705285  1
  Pb  Pb119  1  0.74749953  0.25782726  0.75138592  1
  Pb  Pb120  1  0.75200546  0.49592635  0.00028850  1
  Pb  Pb121  1  0.74511786  0.49325565  0.25297402  1
  Pb  Pb122  1  0.74945539  0.48969669  0.50245012  1
  Pb  Pb123  1  0.74361174  0.49723460  0.75385276  1
  Pb  Pb124  1  0.74818186  0.75654550  -0.00788192  1
  Pb  Pb125  1  0.74767982  0.75071831  0.24372332  1
  Pb  Pb126  1  0.74504128  0.75599425  0.50739657  1
  Pb  Pb127  1  0.75384718  0.75498053  0.75904664  1
  O  O128  1  0.12842564  -0.01364931  0.16181706  1
  O  O129  1  0.12712085  -0.00098070  0.41161339  1
  O  O130  1  0.12043904  -0.00351298  0.66419385  1
  O  O131  1  0.12506559  -0.00610708  0.91640613  1
  O  O132  1  0.12449021  0.25362547  0.16296115  1
  O  O133  1  0.12497945  0.24849709  0.40081831  1
  O  O134  1  0.11979124  0.25600759  0.65763805  1
  O  O135  1  0.12194894  0.24811119  0.91998012  1
  O  O136  1  0.12149705  0.51061594  0.16485274  1
  O  O137  1  0.12283475  0.50170577  0.40713516  1
  O  O138  1  0.12411196  0.49717834  0.65983820  1
  O  O139  1  0.12224238  0.50683802  0.91580804  1
  O  O140  1  0.12613565  0.75072801  0.16797359  1
  O  O141  1  0.12375094  0.75181955  0.41620191  1
  O  O142  1  0.12567027  0.74867274  0.66507341  1
  O  O143  1  0.12586392  0.75165347  0.91645694  1
  O  O144  1  0.37693802  -0.01011757  0.16621065  1
  O  O145  1  0.38131317  -0.00197213  0.41755374  1
  O  O146  1  0.37670802  -0.00513048  0.66081168  1
  O  O147  1  0.37375602  0.00008552  0.91526074  1
  O  O148  1  0.37653857  0.24856092  0.16651751  1
  O  O149  1  0.38013658  0.24070368  0.40805620  1
  O  O150  1  0.37523231  0.24825244  0.66355115  1
  O  O151  1  0.37260893  0.24182035  0.91173597  1
  O  O152  1  0.37669633  0.50221430  0.16398330  1
  O  O153  1  0.38116678  0.50303855  0.41011217  1
  O  O154  1  0.37548642  0.50532818  0.66018921  1
  O  O155  1  0.37055650  0.50016866  0.91060823  1
  O  O156  1  0.37870859  0.75733199  0.16590488  1
  O  O157  1  0.38359084  0.75853429  0.41343517  1
  O  O158  1  0.37703570  0.75002644  0.66552789  1
  O  O159  1  0.37107014  0.75870067  0.91026926  1
  O  O160  1  0.62186897  -0.00062155  0.15908542  1
  O  O161  1  0.62296803  -0.00037392  0.42007694  1
  O  O162  1  0.63070636  0.00683190  0.66862273  1
  O  O163  1  0.62597084  0.01126316  0.91472257  1
  O  O164  1  0.62378145  0.24620766  0.15905043  1
  O  O165  1  0.62534323  0.23980375  0.40801135  1
  O  O166  1  0.63334991  0.24009571  0.66434557  1
  O  O167  1  0.62703638  0.24329276  0.91913823  1
  O  O168  1  0.62674557  0.49866381  0.15488711  1
  O  O169  1  0.62714426  0.50992297  0.40906708  1
  O  O170  1  0.62646239  0.50668223  0.66484692  1
  O  O171  1  0.62835766  0.49768415  0.91617400  1
  O  O172  1  0.62381092  0.75160416  0.15949022  1
  O  O173  1  0.62525477  0.75243908  0.42147236  1
  O  O174  1  0.62449652  0.74366523  0.67094461  1
  O  O175  1  0.62608621  0.75037698  0.90610757  1
  O  O176  1  0.87213837  -0.00670889  0.15895668  1
  O  O177  1  0.86738931  -0.01052795  0.41231642  1
  O  O178  1  0.87439201  -0.00656967  0.66230990  1
  O  O179  1  0.87462885  0.00749340  0.91272864  1
  O  O180  1  0.87267547  0.24962620  0.16614906  1
  O  O181  1  0.86944967  0.24725977  0.40064467  1
  O  O182  1  0.87382000  0.24617372  0.65574080  1
  O  O183  1  0.87774539  0.25189974  0.91789431  1
  O  O184  1  0.87302422  0.51323172  0.16783793  1
  O  O185  1  0.86747307  0.51254872  0.40585493  1
  O  O186  1  0.87317661  0.50845035  0.66316851  1
  O  O187  1  0.88117986  0.50079059  0.91729922  1
  O  O188  1  0.87028275  0.74576482  0.16311711  1
  O  O189  1  0.86688896  0.75418307  0.41808558  1
  O  O190  1  0.87277180  0.74622181  0.66842653  1
  O  O191  1  0.87846245  0.74113459  0.91318024  1
  O  O192  1  -0.00019769  0.12055205  0.16521235  1
  O  O193  1  -0.00424838  0.11948335  0.40525136  1
  O  O194  1  -0.01098803  0.12043677  0.66328198  1
  O  O195  1  -0.00613679  0.12536632  0.91918975  1
  O  O196  1  0.00551563  0.38202577  0.16921240  1
  O  O197  1  -0.00332979  0.37878726  0.40097235  1
  O  O198  1  0.00294363  0.37853059  0.66127280  1
  O  O199  1  -0.00443028  0.37586619  0.92333011  1
  O  O200  1  -0.00312212  0.63131130  0.16366193  1
  O  O201  1  -0.01372684  0.63183282  0.40859047  1
  O  O202  1  -0.00574165  0.62719540  0.66134141  1
  O  O203  1  0.00245050  0.62686003  0.91848385  1
  O  O204  1  0.00477309  0.86756125  0.15466630  1
  O  O205  1  -0.01020983  0.87170129  0.40592346  1
  O  O206  1  -0.00680344  0.86904389  0.66370832  1
  O  O207  1  0.00862680  0.87333707  0.91562162  1
  O  O208  1  0.25335770  0.12004982  0.16741482  1
  O  O209  1  0.25934043  0.12033328  0.40576140  1
  O  O210  1  0.24821691  0.12355014  0.65989832  1
  O  O211  1  0.25459302  0.12064086  0.91197485  1
  O  O212  1  0.24357972  0.38063145  0.16646326  1
  O  O213  1  0.25164640  0.37387496  0.40595872  1
  O  O214  1  0.24175028  0.37531260  0.65728555  1
  O  O215  1  0.24761733  0.37300997  0.91868867  1
  O  O216  1  0.24457347  0.63007697  0.16182710  1
  O  O217  1  0.25526579  0.63039808  0.40864744  1
  O  O218  1  0.25619211  0.62611563  0.65974769  1
  O  O219  1  0.24148498  0.62899007  0.91400746  1
  O  O220  1  0.25345461  0.87007675  0.16267010  1
  O  O221  1  0.26080609  0.87613088  0.41041107  1
  O  O222  1  0.25772786  0.87339997  0.66230165  1
  O  O223  1  0.25023378  0.87705392  0.91789772  1
  O  O224  1  0.50600482  0.12168784  0.16576950  1
  O  O225  1  0.50353719  0.12003494  0.41767019  1
  O  O226  1  0.50916883  0.12295145  0.65876158  1
  O  O227  1  0.49859930  0.12458697  0.91220311  1
  O  O228  1  0.50880759  0.37278597  0.16089702  1
  O  O229  1  0.50188474  0.37251876  0.41350585  1
  O  O230  1  0.50349536  0.37458032  0.66168762  1
  O  O231  1  0.49789616  0.37036082  0.91105497  1
  O  O232  1  0.50832244  0.62703426  0.16293186  1
  O  O233  1  0.51013666  0.63174758  0.41728217  1
  O  O234  1  0.49908385  0.62591408  0.66565843  1
  O  O235  1  0.49756293  0.62625946  0.91058230  1
  O  O236  1  0.49923001  0.87456877  0.16234299  1
  O  O237  1  0.50038691  0.87737216  0.42127274  1
  O  O238  1  0.49346864  0.87432795  0.66861342  1
  O  O239  1  0.49138587  0.87988846  0.90826110  1
  O  O240  1  0.73859026  0.12199332  0.16182119  1
  O  O241  1  0.74159945  0.11619714  0.41013742  1
  O  O242  1  0.75751127  0.12005453  0.66764242  1
  O  O243  1  0.75331929  0.12899045  0.91508233  1
  O  O244  1  0.74035996  0.37438460  0.16393163  1
  O  O245  1  0.74855541  0.37808655  0.41256675  1
  O  O246  1  0.75369384  0.37635556  0.66866331  1
  O  O247  1  0.76155250  0.37514726  0.91730304  1
  O  O248  1  0.74787634  0.62775360  0.16293947  1
  O  O249  1  0.74596678  0.63335035  0.41832386  1
  O  O250  1  0.75039221  0.62708223  0.66637689  1
  O  O251  1  0.76085081  0.62103773  0.91053887  1
  O  O252  1  0.74345713  0.87267005  0.15600165  1
  O  O253  1  0.74756870  0.87402633  0.42044663  1
  O  O254  1  0.75707488  0.87098445  0.67086759  1
  O  O255  1  0.74807819  0.87857582  0.91297252  1
  O  O256  1  0.12250597  0.11646518  0.04270457  1
  O  O257  1  0.12372989  0.11330342  0.27568730  1
  O  O258  1  0.12182243  0.11763542  0.53290114  1
  O  O259  1  0.11640941  0.12460917  0.78770802  1
  O  O260  1  0.12270484  0.38040292  0.05845326  1
  O  O261  1  0.12742634  0.38774681  0.27285278  1
  O  O262  1  0.12014747  0.37785436  0.54275463  1
  O  O263  1  0.11622131  0.37342650  0.78905490  1
  O  O264  1  0.12350089  0.62782846  0.05219496  1
  O  O265  1  0.12052156  0.63692596  0.28458884  1
  O  O266  1  0.12193257  0.63169971  0.53098933  1
  O  O267  1  0.12282123  0.62098587  0.80029875  1
  O  O268  1  0.12905057  0.86825214  0.04834518  1
  O  O269  1  0.12838996  0.86613231  0.28620901  1
  O  O270  1  0.12389394  0.87370524  0.53200678  1
  O  O271  1  0.12746645  0.87441066  0.80158365  1
  O  O272  1  0.37782630  0.11764893  0.03606666  1
  O  O273  1  0.38607093  0.11495101  0.30003768  1
  O  O274  1  0.37898545  0.12632369  0.53136964  1
  O  O275  1  0.37507461  0.12292883  0.79932600  1
  O  O276  1  0.37081117  0.37199392  0.03981233  1
  O  O277  1  0.38068699  0.37712298  0.27964896  1
  O  O278  1  0.37957694  0.37169643  0.53361366  1
  O  O279  1  0.36632171  0.37118983  0.78111574  1
  O  O280  1  0.37596437  0.63434882  0.03855606  1
  O  O281  1  0.38954234  0.62892257  0.28228833  1
  O  O282  1  0.38035713  0.62808650  0.54998074  1
  O  O283  1  0.37115019  0.62650265  0.78338049  1
  O  O284  1  0.37364832  0.87425107  0.04804658  1
  O  O285  1  0.38139846  0.87675111  0.29972061  1
  O  O286  1  0.37763975  0.87273116  0.54839544  1
  O  O287  1  0.36812474  0.88010826  0.79800472  1
  O  O288  1  0.62102738  0.12705446  0.04579793  1
  O  O289  1  0.62135944  0.11900023  0.29753854  1
  O  O290  1  0.63196384  0.12306362  0.54869445  1
  O  O291  1  0.62456288  0.13042052  0.80040732  1
  O  O292  1  0.62643531  0.37519994  0.04575771  1
  O  O293  1  0.62821184  0.37389129  0.28441878  1
  O  O294  1  0.63576315  0.37539518  0.53618828  1
  O  O295  1  0.63374442  0.37190210  0.78693091  1
  O  O296  1  0.62460038  0.62893580  0.04134335  1
  O  O297  1  0.62609869  0.63239292  0.30011251  1
  O  O298  1  0.62878480  0.62918617  0.55534583  1
  O  O299  1  0.62186580  0.61598265  0.78272467  1
  O  O300  1  0.62088284  0.87604138  0.03956582  1
  O  O301  1  0.62390770  0.87607211  0.30232416  1
  O  O302  1  0.62857932  0.87275056  0.54911195  1
  O  O303  1  0.62627411  0.88431081  0.78028852  1
  O  O304  1  0.87378260  0.12814826  0.03840758  1
  O  O305  1  0.87186788  0.11100521  0.27824042  1
  O  O306  1  0.87133839  0.12434553  0.54627626  1
  O  O307  1  0.87719106  0.12956586  0.80264129  1
  O  O308  1  0.87527068  0.38220160  0.04739570  1
  O  O309  1  0.86218427  0.38204688  0.27480229  1
  O  O310  1  0.86760882  0.37825421  0.53272999  1
  O  O311  1  0.88204716  0.37455698  0.80352447  1
  O  O312  1  0.87667125  0.62516668  0.04885190  1
  O  O313  1  0.86400263  0.63618764  0.29771220  1
  O  O314  1  0.87496283  0.62555155  0.54890775  1
  O  O315  1  0.88220103  0.62080010  0.79952983  1
  O  O316  1  0.87277900  0.87067280  0.02579077  1
  O  O317  1  0.86614406  0.87140346  0.29732538  1
  O  O318  1  0.87165841  0.87310919  0.55144130  1
  O  O319  1  0.87536258  0.87049902  0.79361076  1
