# generated using pymatgen
data_VFe(PbO3)2
_symmetry_space_group_name_H-M   'P 1'
_cell_length_a   15.39950591
_cell_length_b   15.39833295
_cell_length_c   18.49231615
_cell_angle_alpha   89.97502407
_cell_angle_beta   89.98116818
_cell_angle_gamma   90.01099574
_symmetry_Int_Tables_number   1
_chemical_formula_structural   VFe(PbO3)2
_chemical_formula_sum   'V32 Fe32 Pb64 O192'
_cell_volume   4385.02152697
_cell_formula_units_Z   32
loop_
 _symmetry_equiv_pos_site_id
 _symmetry_equiv_pos_as_xyz
  1  'x, y, z'
loop_
 _atom_site_type_symbol
 _atom_site_label
 _atom_site_symmetry_multiplicity
 _atom_site_fract_x
 _atom_site_fract_y
 _atom_site_fract_z
 _atom_site_occupancy
  V  V0  1  0.12744379  0.37211402  0.64099152  1
  V  V1  1  0.87348307  0.12592918  0.64067518  1
  V  V2  1  0.12724037  0.37938076  0.89147598  1
  V  V3  1  0.12653229  0.87598138  0.39251989  1
  V  V4  1  0.62918145  0.62195036  0.63520070  1
  V  V5  1  0.37729217  0.12296536  0.89144512  1
  V  V6  1  0.37356277  0.12779623  0.63929915  1
  V  V7  1  0.11884348  0.37253194  0.38334981  1
  V  V8  1  0.37291545  0.37227051  0.38716160  1
  V  V9  1  0.37359184  0.87396031  0.14498957  1
  V  V10  1  0.12641042  0.37558416  0.13765685  1
  V  V11  1  0.62333592  0.87287746  0.89301850  1
  V  V12  1  0.63238780  0.87162390  0.15815326  1
  V  V13  1  0.62389692  0.12874540  0.38232480  1
  V  V14  1  0.87280459  0.37276086  0.64309445  1
  V  V15  1  0.63342319  0.12048173  0.13141532  1
  V  V16  1  0.37000808  0.12563868  0.13608039  1
  V  V17  1  0.87658471  0.62606675  0.14390697  1
  V  V18  1  0.12459772  0.12409919  0.89113585  1
  V  V19  1  0.37445913  0.37517716  0.89522378  1
  V  V20  1  0.62197476  0.37362786  0.38159298  1
  V  V21  1  0.37448727  0.87391144  0.88782383  1
  V  V22  1  0.62705590  0.37269478  0.89895870  1
  V  V23  1  0.87558922  0.62562450  0.89238132  1
  V  V24  1  0.62560955  0.12725432  0.64234059  1
  V  V25  1  0.12669951  0.87336453  0.14512966  1
  V  V26  1  0.12324760  0.62800867  0.88797809  1
  V  V27  1  0.12578630  0.87312784  0.88526939  1
  V  V28  1  0.62575300  0.62552801  0.89586666  1
  V  V29  1  0.87498180  0.87096043  0.89147786  1
  V  V30  1  0.37674841  0.12631869  0.38938952  1
  V  V31  1  0.12653045  0.62664115  0.14583238  1
  Fe  Fe32  1  0.12069425  0.13049098  0.63610913  1
  Fe  Fe33  1  0.12525028  0.62288867  0.39670178  1
  Fe  Fe34  1  0.37087157  0.37623262  0.13108071  1
  Fe  Fe35  1  0.12756858  0.12863331  0.38558690  1
  Fe  Fe36  1  0.87664571  0.37890922  0.89962454  1
  Fe  Fe37  1  0.62474955  0.62563940  0.14665210  1
  Fe  Fe38  1  0.87449957  0.13000952  0.38018262  1
  Fe  Fe39  1  0.62262483  0.87730093  0.36970699  1
  Fe  Fe40  1  0.62762050  0.37436147  0.63774609  1
  Fe  Fe41  1  0.37168378  0.62668187  0.13696355  1
  Fe  Fe42  1  0.37364000  0.87867371  0.39450746  1
  Fe  Fe43  1  0.87207292  0.37095448  0.37581887  1
  Fe  Fe44  1  0.37920541  0.87643360  0.62579894  1
  Fe  Fe45  1  0.88254625  0.87381744  0.14986374  1
  Fe  Fe46  1  0.12221891  0.87926373  0.62905139  1
  Fe  Fe47  1  0.87895970  0.37668507  0.13373097  1
  Fe  Fe48  1  0.37971571  0.37265478  0.63723403  1
  Fe  Fe49  1  0.62293593  0.62273439  0.37072736  1
  Fe  Fe50  1  0.88211684  0.12313245  0.13007798  1
  Fe  Fe51  1  0.37737200  0.62292195  0.38894910  1
  Fe  Fe52  1  0.62690942  0.87574980  0.63255526  1
  Fe  Fe53  1  0.87385623  0.12262213  0.89879343  1
  Fe  Fe54  1  0.87553319  0.87983462  0.37938359  1
  Fe  Fe55  1  0.13003094  0.12126020  0.13660261  1
  Fe  Fe56  1  0.37708561  0.62121771  0.62884692  1
  Fe  Fe57  1  0.62467320  0.12180285  0.89467980  1
  Fe  Fe58  1  0.87351071  0.62068451  0.38711175  1
  Fe  Fe59  1  0.12238048  0.62263625  0.62590551  1
  Fe  Fe60  1  0.87016920  0.87666167  0.62906122  1
  Fe  Fe61  1  0.87263459  0.62262308  0.62890830  1
  Fe  Fe62  1  0.62261354  0.37259199  0.12984476  1
  Fe  Fe63  1  0.37529908  0.62674999  0.88953509  1
  Pb  Pb64  1  -0.00481242  -0.00325341  0.00533239  1
  Pb  Pb65  1  0.00055000  0.00780662  0.25076911  1
  Pb  Pb66  1  -0.00222955  -0.00042274  0.49433193  1
  Pb  Pb67  1  -0.00186037  -0.00078355  0.74527294  1
  Pb  Pb68  1  -0.00366975  0.24705101  0.00358234  1
  Pb  Pb69  1  -0.00249311  0.24358498  0.24454373  1
  Pb  Pb70  1  -0.00117625  0.24335373  0.49332844  1
  Pb  Pb71  1  -0.01489337  0.25255675  0.76126625  1
  Pb  Pb72  1  -0.00212834  0.49817190  0.00466492  1
  Pb  Pb73  1  0.00112843  0.50608316  0.25688088  1
  Pb  Pb74  1  -0.00737616  0.50871679  0.49945548  1
  Pb  Pb75  1  -0.00418019  0.49697097  0.74859625  1
  Pb  Pb76  1  -0.00427410  0.75746061  0.00490630  1
  Pb  Pb77  1  0.00517420  0.73805641  0.26420806  1
  Pb  Pb78  1  -0.00986212  0.75246851  0.49422101  1
  Pb  Pb79  1  -0.00033758  0.74859201  0.73262884  1
  Pb  Pb80  1  0.24339787  0.00150225  -0.00032234  1
  Pb  Pb81  1  0.25254400  -0.00681854  0.25859289  1
  Pb  Pb82  1  0.23669616  0.00204714  0.50477445  1
  Pb  Pb83  1  0.24737700  -0.00398949  0.74196236  1
  Pb  Pb84  1  0.24356869  0.24436870  0.00241186  1
  Pb  Pb85  1  0.24179313  0.24610345  0.25024535  1
  Pb  Pb86  1  0.25160730  0.25235862  0.50191374  1
  Pb  Pb87  1  0.24739682  0.25110139  0.75180626  1
  Pb  Pb88  1  0.25920819  0.50414480  0.00285076  1
  Pb  Pb89  1  0.25397857  0.50867672  0.25322337  1
  Pb  Pb90  1  0.25263683  0.50643755  0.50118649  1
  Pb  Pb91  1  0.26041666  0.51265228  0.74836408  1
  Pb  Pb92  1  0.25462213  0.74655975  -0.00044285  1
  Pb  Pb93  1  0.25877029  0.74671268  0.26414731  1
  Pb  Pb94  1  0.25823328  0.74730012  0.49801265  1
  Pb  Pb95  1  0.25186707  0.74851297  0.73296097  1
  Pb  Pb96  1  0.50100645  -0.00673376  0.00528422  1
  Pb  Pb97  1  0.49336891  -0.00562566  0.25379435  1
  Pb  Pb98  1  0.50535602  -0.00866214  0.49722319  1
  Pb  Pb99  1  0.50469007  0.00040752  0.74764582  1
  Pb  Pb100  1  0.49689287  0.25810130  0.00400120  1
  Pb  Pb101  1  0.49790922  0.25145861  0.24164517  1
  Pb  Pb102  1  0.50134281  0.26006177  0.50359088  1
  Pb  Pb103  1  0.50661146  0.25099932  0.75349516  1
  Pb  Pb104  1  0.49982737  0.49669524  0.00728994  1
  Pb  Pb105  1  0.49845321  0.50291427  0.24006788  1
  Pb  Pb106  1  0.49622301  0.49984145  0.49664455  1
  Pb  Pb107  1  0.49810055  0.50305833  0.74855997  1
  Pb  Pb108  1  0.50195451  0.73676040  0.01030885  1
  Pb  Pb109  1  0.49393092  0.73760842  0.25677217  1
  Pb  Pb110  1  0.50512981  0.75411849  0.48579944  1
  Pb  Pb111  1  0.49487084  0.74738330  0.74008901  1
  Pb  Pb112  1  0.75966248  -0.00568873  0.00657635  1
  Pb  Pb113  1  0.76764307  0.00268863  0.25431758  1
  Pb  Pb114  1  0.75166623  -0.01156978  0.49215261  1
  Pb  Pb115  1  0.75067614  0.00831670  0.75633588  1
  Pb  Pb116  1  0.75994640  0.24928885  0.00362966  1
  Pb  Pb117  1  0.76576439  0.25456515  0.24216302  1
  Pb  Pb118  1  0.74380955  0.25526781  0.49556844  1
  Pb  Pb119  1  0.75230818  0.23998913  0.76483249  1
  Pb  Pb120  1  0.73988162  0.50254624  0.00966053  1
  Pb  Pb121  1  0.74853448  0.49418018  0.24220117  1
  Pb  Pb122  1  0.75108130  0.50430981  0.49037493  1
  Pb  Pb123  1  0.75387789  0.49343675  0.75326605  1
  Pb  Pb124  1  0.74591399  0.74762274  0.01007841  1
  Pb  Pb125  1  0.76895287  0.74282600  0.26300740  1
  Pb  Pb126  1  0.74637894  0.75541956  0.48236335  1
  Pb  Pb127  1  0.75286967  0.75322088  0.74115182  1
  O  O128  1  0.13015306  -0.00906519  0.16398898  1
  O  O129  1  0.12742747  0.00053548  0.41108920  1
  O  O130  1  0.12291366  0.00664817  0.66715024  1
  O  O131  1  0.12779167  -0.00382593  0.91292718  1
  O  O132  1  0.12930445  0.25745910  0.15591171  1
  O  O133  1  0.13244122  0.25930810  0.41639337  1
  O  O134  1  0.11998858  0.25521142  0.67381722  1
  O  O135  1  0.12920626  0.25301290  0.91391826  1
  O  O136  1  0.12554371  0.50552470  0.16574556  1
  O  O137  1  0.12794232  0.48317753  0.41273110  1
  O  O138  1  0.12003849  0.48675445  0.66328808  1
  O  O139  1  0.12672124  0.49920212  0.91424100  1
  O  O140  1  0.12543765  0.74616084  0.17096871  1
  O  O141  1  0.12500058  0.75753806  0.41442519  1
  O  O142  1  0.12350361  0.75037477  0.65275511  1
  O  O143  1  0.12451824  0.75056649  0.91447785  1
  O  O144  1  0.36334702  -0.00423247  0.16531807  1
  O  O145  1  0.37667253  0.01280154  0.41215476  1
  O  O146  1  0.37929974  0.01133826  0.66251405  1
  O  O147  1  0.37434675  -0.00430372  0.91655249  1
  O  O148  1  0.36780618  0.24379455  0.15372513  1
  O  O149  1  0.37816451  0.25158955  0.41629575  1
  O  O150  1  0.37845666  0.24382326  0.67065876  1
  O  O151  1  0.37359426  0.24896134  0.91730855  1
  O  O152  1  0.37108915  0.50055980  0.16073955  1
  O  O153  1  0.38043681  0.48848991  0.40772497  1
  O  O154  1  0.37727206  0.49740140  0.66648220  1
  O  O155  1  0.37356817  0.49803629  0.91592239  1
  O  O156  1  0.36840788  0.75667462  0.16840737  1
  O  O157  1  0.37473715  0.75059595  0.41172990  1
  O  O158  1  0.37754313  0.74875644  0.65422962  1
  O  O159  1  0.37521173  0.75580921  0.91625252  1
  O  O160  1  0.61841614  0.01516333  0.17053579  1
  O  O161  1  0.61838703  0.01288897  0.39859298  1
  O  O162  1  0.62722774  0.01026137  0.66639695  1
  O  O163  1  0.62433137  -0.01177758  0.91927791  1
  O  O164  1  0.61490779  0.23425883  0.15448946  1
  O  O165  1  0.61901109  0.25012157  0.41458873  1
  O  O166  1  0.62863830  0.24360782  0.67052202  1
  O  O167  1  0.62255930  0.25519436  0.91564542  1
  O  O168  1  0.62412014  0.49724783  0.15829818  1
  O  O169  1  0.61996661  0.48841229  0.39830537  1
  O  O170  1  0.62837516  0.50390158  0.66552772  1
  O  O171  1  0.62542129  0.50175619  0.91976318  1
  O  O172  1  0.62362285  0.75820027  0.16491004  1
  O  O173  1  0.62443858  0.75149920  0.39213934  1
  O  O174  1  0.62672261  0.74188561  0.65889497  1
  O  O175  1  0.62594382  0.75450948  0.92336936  1
  O  O176  1  0.87918907  0.00166387  0.16597472  1
  O  O177  1  0.87337308  0.00563761  0.40449988  1
  O  O178  1  0.87110637  0.00998853  0.66175272  1
  O  O179  1  0.87617100  -0.00939047  0.91822130  1
  O  O180  1  0.87950776  0.24907241  0.15313130  1
  O  O181  1  0.87058549  0.25208014  0.41548806  1
  O  O182  1  0.87182019  0.25004344  0.67091077  1
  O  O183  1  0.87767256  0.25144575  0.91941278  1
  O  O184  1  0.88022692  0.50666863  0.16127339  1
  O  O185  1  0.87330734  0.49108436  0.40951947  1
  O  O186  1  0.87347757  0.49192346  0.66503946  1
  O  O187  1  0.87556976  0.50824595  0.92157311  1
  O  O188  1  0.88038457  0.74402932  0.17063512  1
  O  O189  1  0.87332651  0.75238099  0.40463202  1
  O  O190  1  0.87230201  0.74865338  0.65675637  1
  O  O191  1  0.87582371  0.74918433  0.92316919  1
  O  O192  1  0.00674080  0.12356538  0.16015498  1
  O  O193  1  0.00135240  0.13186684  0.40860359  1
  O  O194  1  -0.00973692  0.12996050  0.66465120  1
  O  O195  1  0.00758110  0.12324851  0.91288789  1
  O  O196  1  0.01091769  0.38012756  0.16242905  1
  O  O197  1  0.00415696  0.36610845  0.39640515  1
  O  O198  1  -0.00629326  0.37064953  0.66871410  1
  O  O199  1  0.01160200  0.37678355  0.91775442  1
  O  O200  1  0.00342515  0.62556613  0.16972074  1
  O  O201  1  -0.00107586  0.62165463  0.41569935  1
  O  O202  1  -0.00185217  0.61903382  0.65827447  1
  O  O203  1  0.00194151  0.62607828  0.91729177  1
  O  O204  1  0.01330112  0.87189358  0.17190285  1
  O  O205  1  0.00465098  0.87942930  0.40851954  1
  O  O206  1  -0.00456947  0.88062608  0.66253894  1
  O  O207  1  0.00161340  0.87217633  0.91511637  1
  O  O208  1  0.25463196  0.12245329  0.16834718  1
  O  O209  1  0.25901075  0.13240050  0.41386584  1
  O  O210  1  0.25583308  0.12952614  0.66304080  1
  O  O211  1  0.25141581  0.12295754  0.91805891  1
  O  O212  1  0.24266452  0.38025040  0.16411968  1
  O  O213  1  0.25791552  0.37109088  0.40796968  1
  O  O214  1  0.24460985  0.36827477  0.66147568  1
  O  O215  1  0.24533105  0.37621073  0.91711337  1
  O  O216  1  0.24377328  0.62737034  0.16826502  1
  O  O217  1  0.25135302  0.61910165  0.41370118  1
  O  O218  1  0.24782317  0.62016934  0.65743152  1
  O  O219  1  0.24407769  0.62666299  0.91516342  1
  O  O220  1  0.24532198  0.87007590  0.17297428  1
  O  O221  1  0.24420102  0.87914421  0.41809881  1
  O  O222  1  0.25288074  0.88116077  0.65625847  1
  O  O223  1  0.24943446  0.87303711  0.91166696  1
  O  O224  1  0.48181331  0.11837145  0.16113491  1
  O  O225  1  0.49804892  0.13218443  0.41292793  1
  O  O226  1  0.50352771  0.12811400  0.66385893  1
  O  O227  1  0.49561833  0.12155977  0.91833049  1
  O  O228  1  0.49671578  0.36964927  0.15962039  1
  O  O229  1  0.50037583  0.36872599  0.41121648  1
  O  O230  1  0.50422497  0.37133206  0.67202443  1
  O  O231  1  0.50119823  0.37726958  0.91645626  1
  O  O232  1  0.49599581  0.63133138  0.16073578  1
  O  O233  1  0.50366300  0.62097865  0.40974355  1
  O  O234  1  0.50887130  0.62165773  0.66015547  1
  O  O235  1  0.50454202  0.62845000  0.91819743  1
  O  O236  1  0.48720412  0.87968945  0.16623003  1
  O  O237  1  0.50282778  0.88140547  0.40737447  1
  O  O238  1  0.50261339  0.87900045  0.66415535  1
  O  O239  1  0.50321447  0.87246917  0.91618874  1
  O  O240  1  0.74782536  0.12178623  0.13805968  1
  O  O241  1  0.73818872  0.13217685  0.40556054  1
  O  O242  1  0.75116913  0.12828681  0.66912631  1
  O  O243  1  0.74674410  0.12230172  0.92589183  1
  O  O244  1  0.74921877  0.37318048  0.15263766  1
  O  O245  1  0.73868981  0.36824982  0.40276203  1
  O  O246  1  0.75540037  0.37284535  0.66987910  1
  O  O247  1  0.74427491  0.37806638  0.91887360  1
  O  O248  1  0.75958345  0.62705420  0.16217241  1
  O  O249  1  0.74480448  0.61957615  0.40579245  1
  O  O250  1  0.74611081  0.62099549  0.66410698  1
  O  O251  1  0.75051817  0.62882225  0.92352649  1
  O  O252  1  0.74753053  0.87984364  0.16346632  1
  O  O253  1  0.74541973  0.88181068  0.40009112  1
  O  O254  1  0.74839919  0.87799896  0.66713387  1
  O  O255  1  0.74713403  0.87135923  0.91778418  1
  O  O256  1  0.13729134  0.12176648  0.03586932  1
  O  O257  1  0.12936209  0.13641912  0.28498490  1
  O  O258  1  0.12668150  0.13252046  0.53664244  1
  O  O259  1  0.12964139  0.12628585  0.79982153  1
  O  O260  1  0.12661625  0.38116281  0.04629904  1
  O  O261  1  0.13092066  0.37044205  0.29207495  1
  O  O262  1  0.12234908  0.36754025  0.55039694  1
  O  O263  1  0.12723952  0.37801563  0.80059861  1
  O  O264  1  0.12479264  0.62848261  0.05481339  1
  O  O265  1  0.11801977  0.61993040  0.29368923  1
  O  O266  1  0.12555242  0.61164355  0.52541393  1
  O  O267  1  0.12342739  0.62661272  0.79714098  1
  O  O268  1  0.12656982  0.86870779  0.05377952  1
  O  O269  1  0.13103469  0.87620505  0.30094322  1
  O  O270  1  0.11832185  0.89171920  0.53002154  1
  O  O271  1  0.12451250  0.87433895  0.79445929  1
  O  O272  1  0.36717495  0.11826118  0.04451462  1
  O  O273  1  0.37562571  0.12964799  0.29791358  1
  O  O274  1  0.37439552  0.13127885  0.54866747  1
  O  O275  1  0.37497159  0.12294586  0.80052549  1
  O  O276  1  0.37583648  0.37866362  0.03063272  1
  O  O277  1  0.37624011  0.36782448  0.29578546  1
  O  O278  1  0.38340779  0.37181741  0.53774571  1
  O  O279  1  0.37225124  0.37253047  0.80387893  1
  O  O280  1  0.36726971  0.63221234  0.03517034  1
  O  O281  1  0.37281105  0.62769221  0.28573951  1
  O  O282  1  0.37697588  0.61122366  0.52853268  1
  O  O283  1  0.37306154  0.62317689  0.78944609  1
  O  O284  1  0.36991189  0.87254308  0.05354318  1
  O  O285  1  0.36527425  0.88200528  0.29240597  1
  O  O286  1  0.38351539  0.88071162  0.52529295  1
  O  O287  1  0.37741378  0.87456905  0.79690623  1
  O  O288  1  0.61230440  0.11190866  0.04091475  1
  O  O289  1  0.62181043  0.13860686  0.29175772  1
  O  O290  1  0.62837497  0.12793726  0.55174237  1
  O  O291  1  0.63210408  0.12122027  0.79420094  1
  O  O292  1  0.61624677  0.37717423  0.02894653  1
  O  O293  1  0.61784915  0.36348097  0.29039721  1
  O  O294  1  0.62651041  0.36860009  0.53842272  1
  O  O295  1  0.62659259  0.37782112  0.80732917  1
  O  O296  1  0.62985068  0.63392881  0.04318806  1
  O  O297  1  0.62149801  0.62086471  0.26902128  1
  O  O298  1  0.63122643  0.61943172  0.54438247  1
  O  O299  1  0.62935227  0.62753512  0.80528446  1
  O  O300  1  0.61743869  0.88700477  0.06668336  1
  O  O301  1  0.61518707  0.88699210  0.26617778  1
  O  O302  1  0.62727094  0.88463751  0.53269556  1
  O  O303  1  0.62391736  0.87142992  0.80229709  1
  O  O304  1  0.88542309  0.11739822  0.02730244  1
  O  O305  1  0.87189874  0.13253084  0.27828053  1
  O  O306  1  0.87142523  0.13109226  0.55001376  1
  O  O307  1  0.86572253  0.12593888  0.79686608  1
  O  O308  1  0.88628844  0.37946273  0.03144722  1
  O  O309  1  0.86754212  0.36672077  0.27470894  1
  O  O310  1  0.87314356  0.36996729  0.55256233  1
  O  O311  1  0.87969802  0.37931465  0.79829322  1
  O  O312  1  0.88232548  0.63126494  0.05255839  1
  O  O313  1  0.88064642  0.62500052  0.28485781  1
  O  O314  1  0.87121714  0.61364500  0.52874310  1
  O  O315  1  0.87337577  0.62597035  0.80143095  1
  O  O316  1  0.88650298  0.87372327  0.04772962  1
  O  O317  1  0.87233388  0.87805215  0.27627531  1
  O  O318  1  0.86736059  0.88266782  0.52858252  1
  O  O319  1  0.87331653  0.86931687  0.80066449  1
