# generated using pymatgen
data_VFe(PbO3)2
_symmetry_space_group_name_H-M   'P 1'
_cell_length_a   15.39727416
_cell_length_b   15.38330557
_cell_length_c   18.46127603
_cell_angle_alpha   89.99273326
_cell_angle_beta   89.99143470
_cell_angle_gamma   89.99878128
_symmetry_Int_Tables_number   1
_chemical_formula_structural   VFe(PbO3)2
_chemical_formula_sum   'V32 Fe32 Pb64 O192'
_cell_volume   4372.75572441
_cell_formula_units_Z   32
loop_
 _symmetry_equiv_pos_site_id
 _symmetry_equiv_pos_as_xyz
  1  'x, y, z'
loop_
 _atom_site_type_symbol
 _atom_site_label
 _atom_site_symmetry_multiplicity
 _atom_site_fract_x
 _atom_site_fract_y
 _atom_site_fract_z
 _atom_site_occupancy
  V  V0  1  0.37453675  0.87165365  0.88828006  1
  V  V1  1  0.37570320  0.62587829  0.38887410  1
  V  V2  1  0.12684522  0.12262409  0.38996502  1
  V  V3  1  0.87623235  0.87510201  0.64076444  1
  V  V4  1  0.11980868  0.62522227  0.64260689  1
  V  V5  1  0.87293697  0.12598944  0.64575228  1
  V  V6  1  0.12267154  0.87953196  0.89558896  1
  V  V7  1  0.62514260  0.12398836  0.88564894  1
  V  V8  1  0.38736600  0.62629637  0.65940937  1
  V  V9  1  0.12510997  0.12623748  0.13546233  1
  V  V10  1  0.37434187  0.87395477  0.39386248  1
  V  V11  1  0.87139083  0.87432628  0.38551561  1
  V  V12  1  0.62404642  0.12727488  0.13337743  1
  V  V13  1  0.12351893  0.37549801  0.13919424  1
  V  V14  1  0.12873605  0.62625133  0.38905771  1
  V  V15  1  0.12492662  0.62566430  0.89224165  1
  V  V16  1  0.87623470  0.37487610  0.63589735  1
  V  V17  1  0.62745514  0.37483995  0.64211188  1
  V  V18  1  0.87106904  0.37204736  0.14077824  1
  V  V19  1  0.12308209  0.87520101  0.64119961  1
  V  V20  1  0.37513441  0.62279398  0.13219599  1
  V  V21  1  0.62394362  0.62578513  0.38819915  1
  V  V22  1  0.12657431  0.87461226  0.38917058  1
  V  V23  1  0.37481055  0.37761571  0.64986511  1
  V  V24  1  0.62164471  0.62468289  0.88999344  1
  V  V25  1  0.87723860  0.37667419  0.89071030  1
  V  V26  1  0.12439097  0.37318229  0.64566244  1
  V  V27  1  0.37458785  0.12381456  0.39264533  1
  V  V28  1  0.12398961  0.12999636  0.88699187  1
  V  V29  1  0.12275179  0.12322640  0.64347301  1
  V  V30  1  0.37580846  0.37565138  0.39193684  1
  V  V31  1  0.87485426  0.62721733  0.89401276  1
  Fe  Fe32  1  0.62134366  0.87432201  0.38662239  1
  Fe  Fe33  1  0.87615095  0.62306225  0.13663348  1
  Fe  Fe34  1  0.37140997  0.87305688  0.63783591  1
  Fe  Fe35  1  0.87544345  0.87656714  0.12622722  1
  Fe  Fe36  1  0.37318060  0.12271661  0.88696057  1
  Fe  Fe37  1  0.62398933  0.37439008  0.12475217  1
  Fe  Fe38  1  0.87529455  0.12669785  0.88480112  1
  Fe  Fe39  1  0.62503220  0.87392635  0.63498998  1
  Fe  Fe40  1  0.63009855  0.37385501  0.89754646  1
  Fe  Fe41  1  0.62654574  0.87643590  0.89579216  1
  Fe  Fe42  1  0.37512831  0.87704755  0.12952091  1
  Fe  Fe43  1  0.37380089  0.12533408  0.64478803  1
  Fe  Fe44  1  0.37401766  0.62723961  0.87653193  1
  Fe  Fe45  1  0.63087902  0.62420476  0.64057910  1
  Fe  Fe46  1  0.87565421  0.12805709  0.14485563  1
  Fe  Fe47  1  0.87613129  0.87504415  0.89788343  1
  Fe  Fe48  1  0.87654547  0.12155580  0.37670069  1
  Fe  Fe49  1  0.62191567  0.37461434  0.38529927  1
  Fe  Fe50  1  0.37518932  0.12741265  0.12672746  1
  Fe  Fe51  1  0.37357478  0.37374815  0.12689956  1
  Fe  Fe52  1  0.62277250  0.87544840  0.12572365  1
  Fe  Fe53  1  0.12650421  0.62280702  0.13092028  1
  Fe  Fe54  1  0.37234697  0.37670273  0.88675178  1
  Fe  Fe55  1  0.62422462  0.12414685  0.38555983  1
  Fe  Fe56  1  0.87568842  0.37518804  0.38198251  1
  Fe  Fe57  1  0.62552903  0.12445354  0.63665548  1
  Fe  Fe58  1  0.87628734  0.62318284  0.63570777  1
  Fe  Fe59  1  0.13086443  0.37501787  0.38703950  1
  Fe  Fe60  1  0.12643498  0.87497217  0.12892836  1
  Fe  Fe61  1  0.11964072  0.37673677  0.88170007  1
  Fe  Fe62  1  0.87427446  0.62738496  0.38202542  1
  Fe  Fe63  1  0.62358879  0.62314878  0.12801429  1
  Pb  Pb64  1  -0.00994969  0.00087680  0.00583961  1
  Pb  Pb65  1  -0.00509937  -0.00129652  0.24233255  1
  Pb  Pb66  1  0.00014353  -0.00363392  0.49733291  1
  Pb  Pb67  1  -0.01539671  -0.00143087  0.76144675  1
  Pb  Pb68  1  -0.00778153  0.24434199  0.00432954  1
  Pb  Pb69  1  -0.00292999  0.25709649  0.25563458  1
  Pb  Pb70  1  -0.00278230  0.25249989  0.49249039  1
  Pb  Pb71  1  -0.00022768  0.24959598  0.75260435  1
  Pb  Pb72  1  -0.00088910  0.50921254  0.00552959  1
  Pb  Pb73  1  -0.00616498  0.50150062  0.25332982  1
  Pb  Pb74  1  -0.00448609  0.50122392  0.49564462  1
  Pb  Pb75  1  0.00260591  0.49529214  0.75171470  1
  Pb  Pb76  1  0.00217949  0.74727746  0.00788932  1
  Pb  Pb77  1  -0.00232084  0.74739614  0.23722755  1
  Pb  Pb78  1  -0.00530802  0.74378384  0.49927939  1
  Pb  Pb79  1  -0.00767794  0.75750918  0.75661504  1
  Pb  Pb80  1  0.25258492  -0.00481054  0.00187644  1
  Pb  Pb81  1  0.25567047  -0.00064263  0.24097982  1
  Pb  Pb82  1  0.26135026  -0.00000928  0.50941703  1
  Pb  Pb83  1  0.25402217  0.00447804  0.75305062  1
  Pb  Pb84  1  0.25833089  0.25347553  -0.00523521  1
  Pb  Pb85  1  0.24986949  0.25406460  0.24551611  1
  Pb  Pb86  1  0.25631609  0.24275882  0.50656876  1
  Pb  Pb87  1  0.25721634  0.25149499  0.75939980  1
  Pb  Pb88  1  0.25427954  0.49656805  -0.00714961  1
  Pb  Pb89  1  0.24848685  0.49455413  0.24630166  1
  Pb  Pb90  1  0.25305962  0.50200634  0.50362330  1
  Pb  Pb91  1  0.25218213  0.49803742  0.75829433  1
  Pb  Pb92  1  0.24481376  0.75306145  0.00134388  1
  Pb  Pb93  1  0.24987039  0.75031804  0.23985238  1
  Pb  Pb94  1  0.25578754  0.75476950  0.50531466  1
  Pb  Pb95  1  0.24707274  0.74539765  0.75407851  1
  Pb  Pb96  1  0.49266433  -0.00160014  -0.00149344  1
  Pb  Pb97  1  0.50704636  -0.00131275  0.24428941  1
  Pb  Pb98  1  0.50637817  0.00017628  0.50543599  1
  Pb  Pb99  1  0.50090538  0.00036529  0.74411856  1
  Pb  Pb100  1  0.49502834  0.25293610  -0.00700942  1
  Pb  Pb101  1  0.50327923  0.25260179  0.24294337  1
  Pb  Pb102  1  0.50494904  0.24185696  0.50346321  1
  Pb  Pb103  1  0.49565702  0.24791467  0.75617140  1
  Pb  Pb104  1  0.49874372  0.49119915  -0.00477151  1
  Pb  Pb105  1  0.50631474  0.49151257  0.23831839  1
  Pb  Pb106  1  0.50375786  0.50642758  0.50270667  1
  Pb  Pb107  1  0.50621360  0.48055446  0.76677076  1
  Pb  Pb108  1  0.50329702  0.75269491  0.00004888  1
  Pb  Pb109  1  0.50770378  0.75833867  0.24288856  1
  Pb  Pb110  1  0.50451078  0.75341782  0.50679832  1
  Pb  Pb111  1  0.51487357  0.76490481  0.75511049  1
  Pb  Pb112  1  0.75690890  -0.00275638  -0.00157312  1
  Pb  Pb113  1  0.74737402  0.00162193  0.24113782  1
  Pb  Pb114  1  0.74102206  0.00522755  0.49686447  1
  Pb  Pb115  1  0.74472601  -0.00772928  0.75429606  1
  Pb  Pb116  1  0.75180779  0.24418376  0.00099646  1
  Pb  Pb117  1  0.73597452  0.24878304  0.25458232  1
  Pb  Pb118  1  0.74959375  0.24547755  0.48978514  1
  Pb  Pb119  1  0.74877399  0.24946831  0.75310006  1
  Pb  Pb120  1  0.75108179  0.50938743  0.00623170  1
  Pb  Pb121  1  0.75231110  0.50102351  0.24542403  1
  Pb  Pb122  1  0.75530337  0.50160074  0.49376510  1
  Pb  Pb123  1  0.74698268  0.49765129  0.75290595  1
  Pb  Pb124  1  0.74550852  0.75076530  0.00447202  1
  Pb  Pb125  1  0.74908806  0.75220568  0.23456973  1
  Pb  Pb126  1  0.73699737  0.74638010  0.50446855  1
  Pb  Pb127  1  0.74819078  0.75507169  0.75411968  1
  O  O128  1  0.12634496  0.00824186  0.15592481  1
  O  O129  1  0.12934409  0.00184616  0.41739597  1
  O  O130  1  0.12314705  0.00421354  0.66468969  1
  O  O131  1  0.12575753  -0.00307811  0.91221569  1
  O  O132  1  0.12662970  0.25185769  0.16452069  1
  O  O133  1  0.12941703  0.24053801  0.41504190  1
  O  O134  1  0.12346119  0.24763919  0.66776846  1
  O  O135  1  0.12297684  0.24555433  0.90546825  1
  O  O136  1  0.12727614  0.49317514  0.16087238  1
  O  O137  1  0.13033460  0.50840554  0.41493989  1
  O  O138  1  0.11863695  0.50242243  0.66496861  1
  O  O139  1  0.12035151  0.50694777  0.91022979  1
  O  O140  1  0.12875096  0.74835222  0.16059380  1
  O  O141  1  0.12946420  0.74724443  0.41517546  1
  O  O142  1  0.11760566  0.74922295  0.66642018  1
  O  O143  1  0.12293591  0.74781529  0.91524409  1
  O  O144  1  0.37447805  0.00469638  0.16097101  1
  O  O145  1  0.37011150  0.00312065  0.41664568  1
  O  O146  1  0.36916105  -0.00198208  0.66715134  1
  O  O147  1  0.37053160  -0.00744901  0.90923215  1
  O  O148  1  0.37153997  0.25000901  0.15902130  1
  O  O149  1  0.37222522  0.24624582  0.41627686  1
  O  O150  1  0.37257227  0.25781680  0.66842479  1
  O  O151  1  0.37119325  0.24851730  0.90851418  1
  O  O152  1  0.37299979  0.50263468  0.15806129  1
  O  O153  1  0.37415454  0.50284769  0.42113144  1
  O  O154  1  0.37283931  0.49923188  0.67415385  1
  O  O155  1  0.37283751  0.50590574  0.90819132  1
  O  O156  1  0.37322382  0.74238812  0.15594450  1
  O  O157  1  0.37225698  0.74784747  0.41920212  1
  O  O158  1  0.36811364  0.74372679  0.66862014  1
  O  O159  1  0.37157896  0.75280219  0.90945605  1
  O  O160  1  0.62275174  0.00682263  0.15497062  1
  O  O161  1  0.62121653  -0.00151118  0.41669777  1
  O  O162  1  0.62811653  -0.00161309  0.66461341  1
  O  O163  1  0.62490424  0.00809169  0.91257698  1
  O  O164  1  0.62648880  0.24763031  0.15903554  1
  O  O165  1  0.62062485  0.24937109  0.41723021  1
  O  O166  1  0.62401573  0.25850775  0.66647235  1
  O  O167  1  0.62753877  0.24165117  0.91222081  1
  O  O168  1  0.62436299  0.49783585  0.15683386  1
  O  O169  1  0.62038386  0.50731848  0.41377417  1
  O  O170  1  0.62496045  0.49280942  0.66922788  1
  O  O171  1  0.63069918  0.50856082  0.91346557  1
  O  O172  1  0.62175465  0.74856104  0.15742870  1
  O  O173  1  0.62143594  0.74471664  0.41493826  1
  O  O174  1  0.62965160  0.75040638  0.67060708  1
  O  O175  1  0.62885366  0.74206907  0.91295516  1
  O  O176  1  0.87739975  0.00122069  0.16029517  1
  O  O177  1  0.88123253  -0.00807608  0.41281691  1
  O  O178  1  0.87788584  -0.00237822  0.66819099  1
  O  O179  1  0.87937806  0.00420595  0.91573810  1
  O  O180  1  0.88010609  0.25734858  0.16746710  1
  O  O181  1  0.87998508  0.24649323  0.40912823  1
  O  O182  1  0.87471502  0.25309638  0.66801867  1
  O  O183  1  0.87847705  0.25504806  0.91325259  1
  O  O184  1  0.87963374  0.49014208  0.16319555  1
  O  O185  1  0.87743417  0.50324421  0.41387112  1
  O  O186  1  0.87641663  0.49268109  0.66306125  1
  O  O187  1  0.87759551  0.49991744  0.91521895  1
  O  O188  1  0.87590167  0.75132195  0.15613216  1
  O  O189  1  0.88163422  0.75665635  0.41001798  1
  O  O190  1  0.88067828  0.75782477  0.66244678  1
  O  O191  1  0.87857430  0.74224978  0.91492230  1
  O  O192  1  0.01077482  0.13070883  0.16506561  1
  O  O193  1  0.00861208  0.12073832  0.40990196  1
  O  O194  1  0.00337400  0.12720855  0.66869285  1
  O  O195  1  0.00834966  0.12290147  0.91469486  1
  O  O196  1  0.00572440  0.37272628  0.16395804  1
  O  O197  1  0.00568397  0.37507765  0.41479419  1
  O  O198  1  -0.00162048  0.37211712  0.66518756  1
  O  O199  1  -0.00589055  0.37700480  0.91631536  1
  O  O200  1  0.00283180  0.62076204  0.16293409  1
  O  O201  1  0.01007324  0.62753808  0.40962809  1
  O  O202  1  0.00219424  0.62500583  0.66945829  1
  O  O203  1  -0.00128018  0.62466348  0.91695330  1
  O  O204  1  0.00246405  0.87655879  0.15720432  1
  O  O205  1  0.00398552  0.87518676  0.41574883  1
  O  O206  1  -0.00048545  0.87869371  0.67047567  1
  O  O207  1  0.00817781  0.87253115  0.91699585  1
  O  O208  1  0.24252860  0.12837114  0.16028103  1
  O  O209  1  0.25061507  0.12390064  0.41947458  1
  O  O210  1  0.23972534  0.12764953  0.66862703  1
  O  O211  1  0.23947559  0.12065484  0.91187131  1
  O  O212  1  0.24533300  0.37411870  0.16128184  1
  O  O213  1  0.25585678  0.37596266  0.42325621  1
  O  O214  1  0.25166805  0.37820876  0.66855635  1
  O  O215  1  0.24341193  0.37736982  0.90834744  1
  O  O216  1  0.25582107  0.62167588  0.16093437  1
  O  O217  1  0.25050827  0.62598682  0.41915711  1
  O  O218  1  0.23210976  0.62392940  0.67197757  1
  O  O219  1  0.24307147  0.62776285  0.90673605  1
  O  O220  1  0.25104201  0.87661221  0.16284860  1
  O  O221  1  0.24875118  0.87362654  0.42105309  1
  O  O222  1  0.24057328  0.87268540  0.66733844  1
  O  O223  1  0.24825174  0.87174536  0.91282120  1
  O  O224  1  0.50607135  0.12865998  0.15577224  1
  O  O225  1  0.49024438  0.12291681  0.41486237  1
  O  O226  1  0.50067088  0.12803677  0.66684069  1
  O  O227  1  0.50481387  0.12473344  0.90566253  1
  O  O228  1  0.49879120  0.37289345  0.15493401  1
  O  O229  1  0.49331556  0.37628501  0.42113771  1
  O  O230  1  0.49915298  0.37710687  0.66864247  1
  O  O231  1  0.50078289  0.37716939  0.90931274  1
  O  O232  1  0.49171100  0.62223928  0.15678892  1
  O  O233  1  0.49929169  0.62658342  0.41792528  1
  O  O234  1  0.50088150  0.62443096  0.66951092  1
  O  O235  1  0.50398484  0.62691299  0.89955074  1
  O  O236  1  0.49865871  0.87664133  0.16019512  1
  O  O237  1  0.49280744  0.87397152  0.41702064  1
  O  O238  1  0.49779743  0.87156285  0.66289715  1
  O  O239  1  0.49240476  0.87287039  0.90756762  1
  O  O240  1  0.74316828  0.12734792  0.16051107  1
  O  O241  1  0.75305554  0.12114452  0.41018382  1
  O  O242  1  0.75265634  0.12786120  0.66694427  1
  O  O243  1  0.74657700  0.12572384  0.91169830  1
  O  O244  1  0.75475991  0.37375640  0.15457985  1
  O  O245  1  0.74836506  0.37689414  0.41320420  1
  O  O246  1  0.74784142  0.37415893  0.66193733  1
  O  O247  1  0.76216548  0.37593930  0.91772495  1
  O  O248  1  0.74955917  0.62098873  0.16082067  1
  O  O249  1  0.74286290  0.62715786  0.40725327  1
  O  O250  1  0.75464140  0.62391274  0.66871332  1
  O  O251  1  0.75664466  0.62359879  0.91463258  1
  O  O252  1  0.74779830  0.87770274  0.15178541  1
  O  O253  1  0.75707209  0.87381915  0.40638875  1
  O  O254  1  0.75973913  0.87596581  0.66134351  1
  O  O255  1  0.75061349  0.87489650  0.91686215  1
  O  O256  1  0.12286990  0.13136299  0.04410901  1
  O  O257  1  0.13163463  0.12184051  0.29948350  1
  O  O258  1  0.12306362  0.12536667  0.55220242  1
  O  O259  1  0.12245873  0.12430732  0.79548034  1
  O  O260  1  0.12289504  0.37259381  0.04805347  1
  O  O261  1  0.13447091  0.37438534  0.28772296  1
  O  O262  1  0.12665901  0.37361947  0.55435738  1
  O  O263  1  0.11558776  0.37884301  0.78122757  1
  O  O264  1  0.12132261  0.62615790  0.03078439  1
  O  O265  1  0.13382102  0.62553349  0.29831032  1
  O  O266  1  0.12209610  0.62688879  0.55106646  1
  O  O267  1  0.11718843  0.62848682  0.80082791  1
  O  O268  1  0.13355880  0.87211549  0.02837360  1
  O  O269  1  0.12825804  0.87615414  0.29855952  1
  O  O270  1  0.12096419  0.87510197  0.54980288  1
  O  O271  1  0.12303978  0.87531424  0.80370659  1
  O  O272  1  0.37340358  0.12232243  0.02558709  1
  O  O273  1  0.37223540  0.12373367  0.30199711  1
  O  O274  1  0.36617383  0.12638923  0.54349276  1
  O  O275  1  0.36529993  0.12751094  0.78449495  1
  O  O276  1  0.36988562  0.37642378  0.02558032  1
  O  O277  1  0.37385005  0.37751390  0.30062605  1
  O  O278  1  0.37558987  0.38078087  0.55878925  1
  O  O279  1  0.37706532  0.37499105  0.78401921  1
  O  O280  1  0.37270327  0.62208279  0.04072645  1
  O  O281  1  0.37584062  0.62414428  0.29861455  1
  O  O282  1  0.37161274  0.61930363  0.56829843  1
  O  O283  1  0.36191675  0.62536624  0.77410532  1
  O  O284  1  0.37427566  0.87871273  0.02904419  1
  O  O285  1  0.37152461  0.87483252  0.30274720  1
  O  O286  1  0.36544682  0.87348659  0.53727900  1
  O  O287  1  0.36969911  0.87238977  0.79672640  1
  O  O288  1  0.62656881  0.12916785  0.04212174  1
  O  O289  1  0.62388428  0.13007785  0.28524731  1
  O  O290  1  0.62294094  0.12210765  0.53568229  1
  O  O291  1  0.62976293  0.12485874  0.79369185  1
  O  O292  1  0.62434115  0.37311145  0.02313952  1
  O  O293  1  0.61967860  0.36885268  0.28524243  1
  O  O294  1  0.62272240  0.37732568  0.55135469  1
  O  O295  1  0.63156666  0.37892315  0.79499774  1
  O  O296  1  0.62781429  0.62817399  0.02769364  1
  O  O297  1  0.61812058  0.62608963  0.29756860  1
  O  O298  1  0.62590121  0.63147802  0.54032572  1
  O  O299  1  0.63561127  0.62403308  0.79836611  1
  O  O300  1  0.61484883  0.86946599  0.02318067  1
  O  O301  1  0.61462619  0.87494224  0.28668250  1
  O  O302  1  0.62640448  0.86519278  0.53344685  1
  O  O303  1  0.62939882  0.87069664  0.79275087  1
  O  O304  1  0.88163948  0.13387602  0.04228522  1
  O  O305  1  0.87820797  0.12100063  0.27622010  1
  O  O306  1  0.87801015  0.12342329  0.55454675  1
  O  O307  1  0.87952423  0.12574225  0.78418585  1
  O  O308  1  0.88064946  0.36934327  0.04932186  1
  O  O309  1  0.88013947  0.37849613  0.28213807  1
  O  O310  1  0.87753589  0.37329169  0.54437509  1
  O  O311  1  0.87587440  0.37743342  0.79904258  1
  O  O312  1  0.87846664  0.61544244  0.03477363  1
  O  O313  1  0.87717257  0.61837951  0.28223822  1
  O  O314  1  0.88183516  0.62681588  0.53537708  1
  O  O315  1  0.87690983  0.62484267  0.80243673  1
  O  O316  1  0.88004904  0.87973259  0.02416933  1
  O  O317  1  0.87737758  0.87712321  0.29447405  1
  O  O318  1  0.88137945  0.87908574  0.54982439  1
  O  O319  1  0.88279185  0.87556147  0.79502568  1
