# generated using pymatgen
data_VFe(PbO3)2
_symmetry_space_group_name_H-M   'P 1'
_cell_length_a   15.40349893
_cell_length_b   15.38765565
_cell_length_c   18.49557583
_cell_angle_alpha   89.98481409
_cell_angle_beta   90.03176331
_cell_angle_gamma   90.00531303
_symmetry_Int_Tables_number   1
_chemical_formula_structural   VFe(PbO3)2
_chemical_formula_sum   'V32 Fe32 Pb64 O192'
_cell_volume   4383.88966123
_cell_formula_units_Z   32
loop_
 _symmetry_equiv_pos_site_id
 _symmetry_equiv_pos_as_xyz
  1  'x, y, z'
loop_
 _atom_site_type_symbol
 _atom_site_label
 _atom_site_symmetry_multiplicity
 _atom_site_fract_x
 _atom_site_fract_y
 _atom_site_fract_z
 _atom_site_occupancy
  V  V0  1  0.86957847  0.62255756  0.63931531  1
  V  V1  1  0.87743646  0.12721506  0.64176829  1
  V  V2  1  0.12175138  0.62321105  0.64167598  1
  V  V3  1  0.62514981  0.12019965  0.65114198  1
  V  V4  1  0.62377296  0.62731102  0.38930010  1
  V  V5  1  0.87361994  0.37390709  0.13500806  1
  V  V6  1  0.62548875  0.12549329  0.13450511  1
  V  V7  1  0.12560639  0.87402239  0.64228959  1
  V  V8  1  0.62524988  0.37539427  0.64311018  1
  V  V9  1  0.37719669  0.62480658  0.13637016  1
  V  V10  1  0.37591393  0.12474982  0.39562126  1
  V  V11  1  0.12605962  0.12458416  0.39251342  1
  V  V12  1  0.37621707  0.87591492  0.13578584  1
  V  V13  1  0.12658224  0.37442651  0.38761809  1
  V  V14  1  0.87347206  0.62674663  0.38781234  1
  V  V15  1  0.36578968  0.62091850  0.64370918  1
  V  V16  1  0.63041176  0.12325431  0.39463912  1
  V  V17  1  0.87617877  0.87881411  0.39436060  1
  V  V18  1  0.12301088  0.62785264  0.38910743  1
  V  V19  1  0.13185840  0.62493031  0.88831465  1
  V  V20  1  0.37576007  0.37641942  0.64581984  1
  V  V21  1  0.61468613  0.62048828  0.63897730  1
  V  V22  1  0.38659081  0.62659973  0.88608282  1
  V  V23  1  0.87316498  0.12488311  0.88202059  1
  V  V24  1  0.63263526  0.62433463  0.88659983  1
  V  V25  1  0.87278905  0.87700137  0.13381291  1
  V  V26  1  0.88150850  0.62534737  0.88882909  1
  V  V27  1  0.37162737  0.87727877  0.39667343  1
  V  V28  1  0.37372279  0.62617690  0.38735798  1
  V  V29  1  0.37362084  0.11969594  0.65689403  1
  V  V30  1  0.37812414  0.12169053  0.13250391  1
  V  V31  1  0.12623498  0.37560771  0.64661482  1
  Fe  Fe32  1  0.87243908  0.62778338  0.13396137  1
  Fe  Fe33  1  0.62286788  0.87639372  0.39521807  1
  Fe  Fe34  1  0.37522635  0.86944568  0.87791549  1
  Fe  Fe35  1  0.62090413  0.37316445  0.38739134  1
  Fe  Fe36  1  0.87583677  0.37566973  0.64601768  1
  Fe  Fe37  1  0.12501935  0.12541277  0.12608827  1
  Fe  Fe38  1  0.62795462  0.87172996  0.88043559  1
  Fe  Fe39  1  0.62901319  0.37690881  0.89046383  1
  Fe  Fe40  1  0.12481836  0.87709209  0.12925227  1
  Fe  Fe41  1  0.87689697  0.87403204  0.64478234  1
  Fe  Fe42  1  0.37511574  0.37848603  0.89304266  1
  Fe  Fe43  1  0.12601050  0.12736765  0.65077288  1
  Fe  Fe44  1  0.12560323  0.87531508  0.38833769  1
  Fe  Fe45  1  0.87470883  0.37278487  0.38664812  1
  Fe  Fe46  1  0.87518547  0.37719945  0.88014899  1
  Fe  Fe47  1  0.12096356  0.37718908  0.88962352  1
  Fe  Fe48  1  0.12409768  0.12454596  0.87714224  1
  Fe  Fe49  1  0.62502090  0.62754418  0.13545401  1
  Fe  Fe50  1  0.37673345  0.37159243  0.12623699  1
  Fe  Fe51  1  0.87569130  0.12416824  0.38666740  1
  Fe  Fe52  1  0.37446746  0.87021745  0.64767006  1
  Fe  Fe53  1  0.87553478  0.87239592  0.87853281  1
  Fe  Fe54  1  0.87347628  0.12431711  0.12939074  1
  Fe  Fe55  1  0.37271863  0.37171949  0.38630851  1
  Fe  Fe56  1  0.62429748  0.87837817  0.13438256  1
  Fe  Fe57  1  0.62520792  0.37298609  0.13056320  1
  Fe  Fe58  1  0.12218282  0.87241136  0.88825284  1
  Fe  Fe59  1  0.62594870  0.12530036  0.87374655  1
  Fe  Fe60  1  0.12417135  0.62616343  0.13307541  1
  Fe  Fe61  1  0.12514783  0.37340136  0.12773958  1
  Fe  Fe62  1  0.62601991  0.86960038  0.63980835  1
  Fe  Fe63  1  0.37710682  0.12348986  0.87350124  1
  Pb  Pb64  1  0.00163580  0.00557996  -0.00773238  1
  Pb  Pb65  1  0.00086194  0.00531709  0.24176648  1
  Pb  Pb66  1  0.00414877  0.00504415  0.50429771  1
  Pb  Pb67  1  0.00353217  -0.00017727  0.75394244  1
  Pb  Pb68  1  0.00280498  0.24394769  -0.00708896  1
  Pb  Pb69  1  -0.00266301  0.24589397  0.24244299  1
  Pb  Pb70  1  -0.00279711  0.25169560  0.50200568  1
  Pb  Pb71  1  0.00625355  0.25944360  0.75809462  1
  Pb  Pb72  1  0.00365369  0.49913243  0.00089535  1
  Pb  Pb73  1  -0.00067635  0.49900687  0.24108748  1
  Pb  Pb74  1  -0.00584519  0.49616171  0.49885423  1
  Pb  Pb75  1  0.00307703  0.49528654  0.75652710  1
  Pb  Pb76  1  0.00251249  0.74912473  0.00042023  1
  Pb  Pb77  1  0.00429636  0.75501262  0.24321842  1
  Pb  Pb78  1  -0.00656021  0.75332988  0.50259479  1
  Pb  Pb79  1  0.00122234  0.75408694  0.75386163  1
  Pb  Pb80  1  0.24587598  -0.00016707  -0.01643254  1
  Pb  Pb81  1  0.24295336  -0.00137455  0.24521391  1
  Pb  Pb82  1  0.24495421  0.00523693  0.51114441  1
  Pb  Pb83  1  0.23656748  -0.00500807  0.76236144  1
  Pb  Pb84  1  0.24568208  0.24669612  -0.01519972  1
  Pb  Pb85  1  0.25302792  0.25295766  0.23839479  1
  Pb  Pb86  1  0.24168689  0.24369067  0.50896139  1
  Pb  Pb87  1  0.25986007  0.25377611  0.76145328  1
  Pb  Pb88  1  0.24784410  0.49042349  0.00198175  1
  Pb  Pb89  1  0.25285382  0.49476820  0.24001667  1
  Pb  Pb90  1  0.24806284  0.50088422  0.49536550  1
  Pb  Pb91  1  0.25079086  0.48925203  0.76211197  1
  Pb  Pb92  1  0.24230044  0.75263879  -0.00043024  1
  Pb  Pb93  1  0.24408622  0.75723951  0.24678890  1
  Pb  Pb94  1  0.25244261  0.75523903  0.50395900  1
  Pb  Pb95  1  0.24599704  0.75696053  0.75693244  1
  Pb  Pb96  1  0.50282979  -0.00375845  -0.01947677  1
  Pb  Pb97  1  0.50560840  -0.00110433  0.25166725  1
  Pb  Pb98  1  0.49587518  -0.00718623  0.51185274  1
  Pb  Pb99  1  0.50087090  -0.01133026  0.75522905  1
  Pb  Pb100  1  0.50039364  0.25148494  -0.01390321  1
  Pb  Pb101  1  0.50008508  0.25893762  0.24806910  1
  Pb  Pb102  1  0.49814704  0.24884672  0.50488865  1
  Pb  Pb103  1  0.50229216  0.24621539  0.76015175  1
  Pb  Pb104  1  0.50484843  0.49004555  0.00468535  1
  Pb  Pb105  1  0.50492533  0.48890964  0.24632362  1
  Pb  Pb106  1  0.49779365  0.50005971  0.49466180  1
  Pb  Pb107  1  0.50153642  0.48540353  0.76266959  1
  Pb  Pb108  1  0.51389610  0.75422163  0.00065958  1
  Pb  Pb109  1  0.50561855  0.75776982  0.25065582  1
  Pb  Pb110  1  0.49490034  0.75738698  0.50667165  1
  Pb  Pb111  1  0.50307735  0.75664726  0.75314824  1
  Pb  Pb112  1  0.74915135  -0.00391019  -0.01197334  1
  Pb  Pb113  1  0.75226168  0.00389066  0.24860909  1
  Pb  Pb114  1  0.75061932  -0.01265595  0.51175736  1
  Pb  Pb115  1  0.75169248  -0.00822401  0.75173479  1
  Pb  Pb116  1  0.75021896  0.25035601  -0.00881655  1
  Pb  Pb117  1  0.76122266  0.25303057  0.25301900  1
  Pb  Pb118  1  0.75885398  0.25706271  0.50370682  1
  Pb  Pb119  1  0.74636393  0.25042137  0.75447935  1
  Pb  Pb120  1  0.75030159  0.50359905  0.00186676  1
  Pb  Pb121  1  0.74583115  0.49518218  0.24448025  1
  Pb  Pb122  1  0.75384017  0.49458480  0.49713681  1
  Pb  Pb123  1  0.74928068  0.49204517  0.75612415  1
  Pb  Pb124  1  0.75008590  0.74663117  0.00062157  1
  Pb  Pb125  1  0.74408450  0.75399332  0.24715059  1
  Pb  Pb126  1  0.74839171  0.75587668  0.50509002  1
  Pb  Pb127  1  0.75206883  0.75731785  0.75121648  1
  O  O128  1  0.12743884  0.00102397  0.16106430  1
  O  O129  1  0.12674904  0.00246647  0.42196941  1
  O  O130  1  0.12723667  -0.00794072  0.66450010  1
  O  O131  1  0.12332150  -0.00012580  0.90462026  1
  O  O132  1  0.12741952  0.24911911  0.15941060  1
  O  O133  1  0.12729627  0.24942281  0.41969584  1
  O  O134  1  0.12907423  0.25851848  0.66913633  1
  O  O135  1  0.12133979  0.24883786  0.90282275  1
  O  O136  1  0.12612757  0.49932350  0.16314406  1
  O  O137  1  0.12442986  0.50067008  0.41522536  1
  O  O138  1  0.12647372  0.49857698  0.66806518  1
  O  O139  1  0.12005828  0.50976688  0.91325685  1
  O  O140  1  0.12674445  0.75293602  0.16415394  1
  O  O141  1  0.12322572  0.74735804  0.41792361  1
  O  O142  1  0.12650531  0.74920030  0.66548761  1
  O  O143  1  0.12027510  0.74161397  0.91300928  1
  O  O144  1  0.37682714  -0.00127531  0.16346236  1
  O  O145  1  0.37212243  0.00401094  0.42434779  1
  O  O146  1  0.38061140  0.00329864  0.66507697  1
  O  O147  1  0.37606367  -0.00385647  0.89868388  1
  O  O148  1  0.37785572  0.24029852  0.15350507  1
  O  O149  1  0.37166716  0.24169047  0.42024569  1
  O  O150  1  0.37780225  0.25985293  0.67060366  1
  O  O151  1  0.37569750  0.24969758  0.90516593  1
  O  O152  1  0.37652412  0.50721725  0.15528675  1
  O  O153  1  0.37200649  0.50359463  0.41312140  1
  O  O154  1  0.37462700  0.50366658  0.67186980  1
  O  O155  1  0.37304519  0.51547977  0.91679881  1
  O  O156  1  0.37540707  0.75784226  0.16103593  1
  O  O157  1  0.37327545  0.75025333  0.42008764  1
  O  O158  1  0.37575773  0.73531133  0.66586061  1
  O  O159  1  0.37242837  0.73884517  0.91382570  1
  O  O160  1  0.62136495  0.00624886  0.16600220  1
  O  O161  1  0.61977717  0.00817053  0.42451196  1
  O  O162  1  0.62484454  0.00295514  0.66229341  1
  O  O163  1  0.62744334  -0.00043202  0.89963991  1
  O  O164  1  0.62041378  0.24040907  0.15752120  1
  O  O165  1  0.61886214  0.23922869  0.42057239  1
  O  O166  1  0.62494402  0.26130729  0.66429082  1
  O  O167  1  0.62773820  0.24887954  0.90674376  1
  O  O168  1  0.62299347  0.50021441  0.16190912  1
  O  O169  1  0.62239859  0.50567289  0.41477236  1
  O  O170  1  0.62926508  0.50484224  0.66827739  1
  O  O171  1  0.62674283  0.51095375  0.91435037  1
  O  O172  1  0.62227430  0.75417052  0.16829868  1
  O  O173  1  0.62357195  0.74614094  0.41854175  1
  O  O174  1  0.62807867  0.73551035  0.66183794  1
  O  O175  1  0.62637494  0.74120054  0.91080975  1
  O  O176  1  0.87255501  -0.00469173  0.16248719  1
  O  O177  1  0.87485750  -0.00415784  0.41808968  1
  O  O178  1  0.87187598  0.00804063  0.66525077  1
  O  O179  1  0.87352464  0.00413660  0.90354222  1
  O  O180  1  0.87240631  0.25350385  0.16037525  1
  O  O181  1  0.87574968  0.24750642  0.42050474  1
  O  O182  1  0.87287842  0.24421406  0.66664245  1
  O  O183  1  0.87433685  0.24485761  0.90417899  1
  O  O184  1  0.87264904  0.49297084  0.15954282  1
  O  O185  1  0.87567355  0.50290395  0.41429022  1
  O  O186  1  0.88194452  0.50782532  0.66543354  1
  O  O187  1  0.87235063  0.50906149  0.91214063  1
  O  O188  1  0.87317947  0.76072296  0.16151656  1
  O  O189  1  0.87516167  0.75321447  0.41795707  1
  O  O190  1  0.88141642  0.73903217  0.66457544  1
  O  O191  1  0.87306555  0.74205840  0.91087182  1
  O  O192  1  -0.00147928  0.12440777  0.16018681  1
  O  O193  1  0.00408717  0.12354049  0.41733299  1
  O  O194  1  -0.00655348  0.12518285  0.66290484  1
  O  O195  1  -0.00709730  0.12373489  0.90437455  1
  O  O196  1  -0.00665510  0.37352702  0.15787625  1
  O  O197  1  0.00555622  0.37399994  0.41630844  1
  O  O198  1  0.00697562  0.37562360  0.66558476  1
  O  O199  1  -0.00495203  0.37989878  0.91355070  1
  O  O200  1  -0.00266810  0.62645144  0.16570286  1
  O  O201  1  -0.00171824  0.62583991  0.41768943  1
  O  O202  1  0.00559865  0.62403612  0.66703500  1
  O  O203  1  -0.00231403  0.62550867  0.90980040  1
  O  O204  1  -0.00671293  0.87785140  0.15674338  1
  O  O205  1  -0.00458794  0.87584720  0.41769901  1
  O  O206  1  0.00721085  0.87314503  0.66418670  1
  O  O207  1  -0.00369174  0.87061470  0.91019642  1
  O  O208  1  0.26065446  0.12143832  0.15620893  1
  O  O209  1  0.25218084  0.12352309  0.42417436  1
  O  O210  1  0.25774960  0.12838810  0.67042998  1
  O  O211  1  0.25125893  0.12436715  0.89786264  1
  O  O212  1  0.25384775  0.37468067  0.15805227  1
  O  O213  1  0.24575908  0.37444694  0.41738322  1
  O  O214  1  0.24919282  0.37951043  0.67112069  1
  O  O215  1  0.24805269  0.38249209  0.91053030  1
  O  O216  1  0.25917714  0.62934500  0.16278434  1
  O  O217  1  0.24861285  0.62625638  0.41666207  1
  O  O218  1  0.24937266  0.62164083  0.66734738  1
  O  O219  1  0.24530437  0.62633115  0.90553141  1
  O  O220  1  0.25789765  0.87790803  0.16106731  1
  O  O221  1  0.25172599  0.87525656  0.42270631  1
  O  O222  1  0.24462994  0.87095241  0.66622557  1
  O  O223  1  0.25102101  0.86729119  0.90841178  1
  O  O224  1  0.49768940  0.12061843  0.16209197  1
  O  O225  1  0.49205181  0.12278871  0.42133618  1
  O  O226  1  0.50569076  0.13193539  0.66755025  1
  O  O227  1  0.50160189  0.12404753  0.90178585  1
  O  O228  1  0.49880844  0.37254761  0.16081439  1
  O  O229  1  0.49678284  0.37206632  0.42039080  1
  O  O230  1  0.50473387  0.38505926  0.66610873  1
  O  O231  1  0.50205232  0.38340839  0.91128179  1
  O  O232  1  0.49155609  0.63150079  0.16467852  1
  O  O233  1  0.49654120  0.62638199  0.41627684  1
  O  O234  1  0.50140580  0.61905414  0.65878688  1
  O  O235  1  0.50220446  0.62678589  0.90256443  1
  O  O236  1  0.49352434  0.87825913  0.16480945  1
  O  O237  1  0.49381296  0.87718004  0.42386200  1
  O  O238  1  0.50219100  0.86972479  0.66528146  1
  O  O239  1  0.50085753  0.86659980  0.90516016  1
  O  O240  1  0.74186702  0.12233102  0.15846564  1
  O  O241  1  0.74459585  0.12320525  0.41289874  1
  O  O242  1  0.74862129  0.12890283  0.66751818  1
  O  O243  1  0.75439213  0.12486951  0.90524364  1
  O  O244  1  0.75296723  0.37259954  0.15963279  1
  O  O245  1  0.74633571  0.37319354  0.41691045  1
  O  O246  1  0.74455075  0.38101090  0.66444715  1
  O  O247  1  0.75464233  0.37900262  0.91432017  1
  O  O248  1  0.75028130  0.62754806  0.16949552  1
  O  O249  1  0.75089017  0.62649338  0.41474902  1
  O  O250  1  0.75572156  0.62203551  0.65713898  1
  O  O251  1  0.74964590  0.62579836  0.90898893  1
  O  O252  1  0.75372617  0.87864432  0.16187088  1
  O  O253  1  0.75455191  0.87581763  0.41884101  1
  O  O254  1  0.75052074  0.87135091  0.66490483  1
  O  O255  1  0.75223462  0.87074501  0.90838507  1
  O  O256  1  0.12015634  0.12420715  0.02571209  1
  O  O257  1  0.13076973  0.12459530  0.30147963  1
  O  O258  1  0.13260598  0.12550231  0.54921858  1
  O  O259  1  0.12065253  0.11635225  0.77311673  1
  O  O260  1  0.12433832  0.38055274  0.02730625  1
  O  O261  1  0.12734724  0.37265658  0.29678014  1
  O  O262  1  0.12883783  0.37614374  0.55542938  1
  O  O263  1  0.11946353  0.38273822  0.78699969  1
  O  O264  1  0.12171422  0.63036848  0.03360016  1
  O  O265  1  0.12348058  0.62825169  0.29828025  1
  O  O266  1  0.12310396  0.62307813  0.55081234  1
  O  O267  1  0.12440796  0.62586118  0.79638834  1
  O  O268  1  0.12895449  0.86897484  0.02908618  1
  O  O269  1  0.13184085  0.87599700  0.28911310  1
  O  O270  1  0.12585340  0.87310040  0.55058919  1
  O  O271  1  0.12792285  0.87103348  0.78537283  1
  O  O272  1  0.38087515  0.11689930  0.04217768  1
  O  O273  1  0.37357801  0.12272951  0.30513840  1
  O  O274  1  0.37720053  0.13127969  0.56490029  1
  O  O275  1  0.38295704  0.13369752  0.77034517  1
  O  O276  1  0.37756765  0.38107393  0.02570181  1
  O  O277  1  0.37667273  0.36695706  0.28693623  1
  O  O278  1  0.37249231  0.37801846  0.55466089  1
  O  O279  1  0.37445747  0.38626375  0.78961195  1
  O  O280  1  0.37850949  0.62942708  0.04573741  1
  O  O281  1  0.37345317  0.62895632  0.29684775  1
  O  O282  1  0.36668367  0.61818723  0.55255091  1
  O  O283  1  0.37753527  0.62487225  0.79478633  1
  O  O284  1  0.37729319  0.87681629  0.04520729  1
  O  O285  1  0.37274098  0.87902096  0.30563987  1
  O  O286  1  0.37520135  0.86728573  0.54604998  1
  O  O287  1  0.37773266  0.86471691  0.77474202  1
  O  O288  1  0.62335792  0.12130840  0.04375874  1
  O  O289  1  0.62186403  0.12146577  0.30356765  1
  O  O290  1  0.62702159  0.13039877  0.55997883  1
  O  O291  1  0.62707700  0.13550063  0.77162342  1
  O  O292  1  0.62321845  0.37847938  0.03021528  1
  O  O293  1  0.61546921  0.37151420  0.28742473  1
  O  O294  1  0.62299156  0.37859581  0.55181358  1
  O  O295  1  0.62935488  0.38686470  0.78816819  1
  O  O296  1  0.62828168  0.63392129  0.03548853  1
  O  O297  1  0.62248649  0.62921129  0.29817720  1
  O  O298  1  0.62022901  0.61808017  0.54796729  1
  O  O299  1  0.63180181  0.62205448  0.79505219  1
  O  O300  1  0.62100885  0.87180258  0.03470800  1
  O  O301  1  0.61718637  0.87924174  0.29544148  1
  O  O302  1  0.62961676  0.87384024  0.53720920  1
  O  O303  1  0.62660286  0.86461162  0.77811643  1
  O  O304  1  0.87500920  0.12339985  0.03040567  1
  O  O305  1  0.86996344  0.12672411  0.28680424  1
  O  O306  1  0.87411056  0.12699861  0.54998737  1
  O  O307  1  0.87285973  0.12515244  0.79058939  1
  O  O308  1  0.87236684  0.37312645  0.04408465  1
  O  O309  1  0.87063992  0.36590767  0.28733138  1
  O  O310  1  0.87407986  0.37506745  0.54491746  1
  O  O311  1  0.87836930  0.38010259  0.77744235  1
  O  O312  1  0.86799575  0.62909428  0.03441990  1
  O  O313  1  0.87606307  0.62899555  0.29733956  1
  O  O314  1  0.87756668  0.62249475  0.54755568  1
  O  O315  1  0.87909218  0.62505457  0.79713693  1
  O  O316  1  0.87013446  0.87798864  0.04277910  1
  O  O317  1  0.87512629  0.87801658  0.30375630  1
  O  O318  1  0.87239107  0.87267650  0.54360399  1
  O  O319  1  0.87502180  0.86988976  0.77562468  1
