# generated using pymatgen
data_VFe(PbO3)2
_symmetry_space_group_name_H-M   'P 1'
_cell_length_a   15.37615949
_cell_length_b   15.38573744
_cell_length_c   18.50928837
_cell_angle_alpha   89.99616846
_cell_angle_beta   89.98369754
_cell_angle_gamma   89.99127083
_symmetry_Int_Tables_number   1
_chemical_formula_structural   VFe(PbO3)2
_chemical_formula_sum   'V32 Fe32 Pb64 O192'
_cell_volume   4378.80786923
_cell_formula_units_Z   32
loop_
 _symmetry_equiv_pos_site_id
 _symmetry_equiv_pos_as_xyz
  1  'x, y, z'
loop_
 _atom_site_type_symbol
 _atom_site_label
 _atom_site_symmetry_multiplicity
 _atom_site_fract_x
 _atom_site_fract_y
 _atom_site_fract_z
 _atom_site_occupancy
  V  V0  1  0.12589137  0.87821880  0.63986518  1
  V  V1  1  0.87703167  0.12661682  0.38498305  1
  V  V2  1  0.12314075  0.87096240  0.89238394  1
  V  V3  1  0.12558768  0.37638389  0.89843614  1
  V  V4  1  0.87571369  0.62446696  0.89663875  1
  V  V5  1  0.37866744  0.37411391  0.64401921  1
  V  V6  1  0.62608574  0.62039125  0.63790302  1
  V  V7  1  0.37727399  0.11582555  0.13839440  1
  V  V8  1  0.87236898  0.12445384  0.13731642  1
  V  V9  1  0.12385691  0.37576123  0.63879156  1
  V  V10  1  0.37553760  0.62152395  0.13883544  1
  V  V11  1  0.37456700  0.62621499  0.38771415  1
  V  V12  1  0.37202323  0.36446569  0.13418236  1
  V  V13  1  0.37470714  0.62333044  0.89182509  1
  V  V14  1  0.12655348  0.62401619  0.63685781  1
  V  V15  1  0.37456576  0.87069184  0.14152318  1
  V  V16  1  0.37479973  0.87491248  0.88542384  1
  V  V17  1  0.87325797  0.37464871  0.64008779  1
  V  V18  1  0.12415057  0.87653352  0.38738338  1
  V  V19  1  0.87619608  0.62506867  0.38393709  1
  V  V20  1  0.87662728  0.87631181  0.14166687  1
  V  V21  1  0.37505547  0.62359663  0.63752330  1
  V  V22  1  0.87324134  0.87492677  0.88642136  1
  V  V23  1  0.62320798  0.37744941  0.89207898  1
  V  V24  1  0.12411968  0.62385460  0.89185933  1
  V  V25  1  0.87403234  0.37566852  0.89692894  1
  V  V26  1  0.12319547  0.63040996  0.14303774  1
  V  V27  1  0.12554885  0.13035889  0.64252298  1
  V  V28  1  0.62439957  0.87685631  0.14243477  1
  V  V29  1  0.37242849  0.37611792  0.38547731  1
  V  V30  1  0.62534603  0.13015533  0.63720027  1
  V  V31  1  0.12244046  0.37468962  0.38501970  1
  Fe  Fe32  1  0.62626156  0.87152576  0.88058806  1
  Fe  Fe33  1  0.62707770  0.62374041  0.89020459  1
  Fe  Fe34  1  0.12664415  0.62683895  0.38396170  1
  Fe  Fe35  1  0.12228098  0.12459033  0.89106525  1
  Fe  Fe36  1  0.62167087  0.62856697  0.14082639  1
  Fe  Fe37  1  0.87636663  0.37676849  0.14214827  1
  Fe  Fe38  1  0.87854161  0.87558260  0.38804369  1
  Fe  Fe39  1  0.37256382  0.87492785  0.38826235  1
  Fe  Fe40  1  0.37340495  0.87414202  0.63443610  1
  Fe  Fe41  1  0.62550071  0.87398687  0.39037887  1
  Fe  Fe42  1  0.62490005  0.87619612  0.63389936  1
  Fe  Fe43  1  0.62724036  0.12334035  0.88561577  1
  Fe  Fe44  1  0.12782034  0.87640306  0.13298007  1
  Fe  Fe45  1  0.62423105  0.62558924  0.38021220  1
  Fe  Fe46  1  0.37525481  0.37641785  0.88733467  1
  Fe  Fe47  1  0.87694866  0.62255726  0.63359144  1
  Fe  Fe48  1  0.12533275  0.12429194  0.38388118  1
  Fe  Fe49  1  0.62661890  0.37460505  0.63362868  1
  Fe  Fe50  1  0.37458204  0.12506879  0.64150695  1
  Fe  Fe51  1  0.37504337  0.12726873  0.88195995  1
  Fe  Fe52  1  0.62559302  0.37522546  0.38001611  1
  Fe  Fe53  1  0.87636035  0.12627651  0.64006719  1
  Fe  Fe54  1  0.37117020  0.12688078  0.38347800  1
  Fe  Fe55  1  0.62486772  0.12603821  0.37715173  1
  Fe  Fe56  1  0.87511292  0.12521102  0.88566644  1
  Fe  Fe57  1  0.87664712  0.87530075  0.63277619  1
  Fe  Fe58  1  0.87195828  0.63063749  0.13325960  1
  Fe  Fe59  1  0.12972347  0.37378088  0.13190673  1
  Fe  Fe60  1  0.87804685  0.37493778  0.37281592  1
  Fe  Fe61  1  0.62140859  0.37443420  0.14015507  1
  Fe  Fe62  1  0.62419033  0.12084577  0.14719669  1
  Fe  Fe63  1  0.12554391  0.12063442  0.13317031  1
  Pb  Pb64  1  0.00579317  0.00193814  -0.00066972  1
  Pb  Pb65  1  0.00397932  0.00065088  0.24879185  1
  Pb  Pb66  1  -0.00963746  0.00240097  0.50293736  1
  Pb  Pb67  1  -0.00023405  0.00708334  0.75351381  1
  Pb  Pb68  1  -0.00069890  0.25375443  0.00559625  1
  Pb  Pb69  1  0.00528441  0.25212814  0.24094208  1
  Pb  Pb70  1  -0.00875137  0.24436240  0.49925627  1
  Pb  Pb71  1  0.00143537  0.24203072  0.75855134  1
  Pb  Pb72  1  -0.00640235  0.49388716  0.01136688  1
  Pb  Pb73  1  -0.00350338  0.49831745  0.24464221  1
  Pb  Pb74  1  -0.00637098  0.50483097  0.49490643  1
  Pb  Pb75  1  0.00105348  0.49786362  0.74940237  1
  Pb  Pb76  1  -0.00546004  0.74759008  0.00378066  1
  Pb  Pb77  1  -0.00485823  0.75674303  0.25358990  1
  Pb  Pb78  1  -0.00704727  0.74920632  0.50028459  1
  Pb  Pb79  1  -0.00373895  0.74847454  0.74594955  1
  Pb  Pb80  1  0.24311685  -0.00080127  -0.00062056  1
  Pb  Pb81  1  0.25107903  0.00576052  0.25335793  1
  Pb  Pb82  1  0.26225478  0.00508186  0.50098496  1
  Pb  Pb83  1  0.25115343  0.00737493  0.75246674  1
  Pb  Pb84  1  0.24937787  0.24057214  -0.00224194  1
  Pb  Pb85  1  0.24739950  0.23686223  0.24968803  1
  Pb  Pb86  1  0.25350445  0.24371212  0.50120787  1
  Pb  Pb87  1  0.25719900  0.25160964  0.75823737  1
  Pb  Pb88  1  0.24659656  0.49713439  0.00426032  1
  Pb  Pb89  1  0.24609754  0.50636318  0.25034357  1
  Pb  Pb90  1  0.24850064  0.49815494  0.49682653  1
  Pb  Pb91  1  0.25445976  0.49283170  0.75303256  1
  Pb  Pb92  1  0.24748251  0.75315214  0.00255888  1
  Pb  Pb93  1  0.24853377  0.75150311  0.25379617  1
  Pb  Pb94  1  0.25173216  0.75627761  0.49987772  1
  Pb  Pb95  1  0.25099531  0.74760489  0.74805988  1
  Pb  Pb96  1  0.50829100  0.00749333  -0.00217399  1
  Pb  Pb97  1  0.49560246  -0.01010145  0.26105209  1
  Pb  Pb98  1  0.49984046  0.00144322  0.49201205  1
  Pb  Pb99  1  0.50298335  -0.00295573  0.74362997  1
  Pb  Pb100  1  0.50466476  0.24616084  -0.00201141  1
  Pb  Pb101  1  0.50865475  0.24663452  0.25391507  1
  Pb  Pb102  1  0.50204566  0.24532897  0.49318587  1
  Pb  Pb103  1  0.50195294  0.24116864  0.75540174  1
  Pb  Pb104  1  0.51532955  0.50012768  0.01024997  1
  Pb  Pb105  1  0.50909813  0.50030126  0.25109136  1
  Pb  Pb106  1  0.50784746  0.49479812  0.49643993  1
  Pb  Pb107  1  0.50402363  0.50420130  0.75377258  1
  Pb  Pb108  1  0.50602155  0.74511713  -0.00076007  1
  Pb  Pb109  1  0.50248212  0.75726201  0.25891844  1
  Pb  Pb110  1  0.50663907  0.76215574  0.50151882  1
  Pb  Pb111  1  0.50776848  0.75253204  0.74827679  1
  Pb  Pb112  1  0.74202780  0.00959695  -0.00061692  1
  Pb  Pb113  1  0.75037383  -0.01132345  0.25774803  1
  Pb  Pb114  1  0.74865737  -0.00386616  0.49555728  1
  Pb  Pb115  1  0.74835595  -0.00123851  0.74359722  1
  Pb  Pb116  1  0.74522982  0.25533987  0.00627390  1
  Pb  Pb117  1  0.74291418  0.25321591  0.24647176  1
  Pb  Pb118  1  0.74740822  0.25378297  0.49068386  1
  Pb  Pb119  1  0.74951045  0.23995960  0.75460627  1
  Pb  Pb120  1  0.75073541  0.49268971  0.01268195  1
  Pb  Pb121  1  0.74881022  0.49795496  0.24080093  1
  Pb  Pb122  1  0.74842063  0.49477384  0.48926617  1
  Pb  Pb123  1  0.74459532  0.50534662  0.75295876  1
  Pb  Pb124  1  0.74846692  0.74305453  0.00122119  1
  Pb  Pb125  1  0.74047850  0.74939864  0.25330718  1
  Pb  Pb126  1  0.75036769  0.75526929  0.49698047  1
  Pb  Pb127  1  0.74735732  0.75423438  0.74527559  1
  O  O128  1  0.12640533  -0.00248024  0.16580182  1
  O  O129  1  0.12496081  -0.00662264  0.40888570  1
  O  O130  1  0.12558158  -0.00077645  0.66370053  1
  O  O131  1  0.12577380  -0.00741999  0.91311364  1
  O  O132  1  0.12759280  0.24722590  0.15606231  1
  O  O133  1  0.12689298  0.25999906  0.41074041  1
  O  O134  1  0.12455683  0.24886195  0.66488058  1
  O  O135  1  0.12051864  0.25803384  0.91594390  1
  O  O136  1  0.13184352  0.51063501  0.16175573  1
  O  O137  1  0.12752454  0.49407042  0.41270680  1
  O  O138  1  0.12559767  0.49886890  0.66639982  1
  O  O139  1  0.12307958  0.50020962  0.92003440  1
  O  O140  1  0.13023357  0.74994387  0.16622177  1
  O  O141  1  0.12501358  0.75412172  0.41429384  1
  O  O142  1  0.12644536  0.74981395  0.66216159  1
  O  O143  1  0.12482876  0.74696070  0.91918470  1
  O  O144  1  0.37695268  -0.00181963  0.16355031  1
  O  O145  1  0.37099221  0.00108061  0.41259071  1
  O  O146  1  0.37119842  -0.00078704  0.66612639  1
  O  O147  1  0.37125084  -0.00988030  0.90250792  1
  O  O148  1  0.37006255  0.24958687  0.14865117  1
  O  O149  1  0.36980151  0.25971249  0.41185316  1
  O  O150  1  0.37051280  0.25760757  0.66529534  1
  O  O151  1  0.37610155  0.25228018  0.91678169  1
  O  O152  1  0.37167530  0.50789105  0.15860598  1
  O  O153  1  0.37157429  0.49698600  0.41315551  1
  O  O154  1  0.37170901  0.49805682  0.66868187  1
  O  O155  1  0.36941173  0.50640378  0.91422991  1
  O  O156  1  0.37495425  0.75452013  0.16289083  1
  O  O157  1  0.37046568  0.74178015  0.40948833  1
  O  O158  1  0.37251308  0.74375394  0.66455035  1
  O  O159  1  0.37127263  0.74460922  0.91689409  1
  O  O160  1  0.62201023  -0.00871151  0.17017242  1
  O  O161  1  0.62704354  0.00361459  0.41055111  1
  O  O162  1  0.62569428  0.00877473  0.65776458  1
  O  O163  1  0.62544949  -0.00535528  0.91224570  1
  O  O164  1  0.62065850  0.24845057  0.16227056  1
  O  O165  1  0.62614114  0.25060192  0.41062093  1
  O  O166  1  0.62555048  0.24929306  0.66366628  1
  O  O167  1  0.62800303  0.25845619  0.91462564  1
  O  O168  1  0.61655356  0.50166294  0.16225203  1
  O  O169  1  0.62308694  0.50107125  0.41022991  1
  O  O170  1  0.62409189  0.50078059  0.66811007  1
  O  O171  1  0.62817653  0.49562989  0.91914233  1
  O  O172  1  0.62017382  0.75970601  0.16519718  1
  O  O173  1  0.62507521  0.74492765  0.41685536  1
  O  O174  1  0.62290862  0.73809835  0.65834381  1
  O  O175  1  0.62348343  0.74969151  0.91598559  1
  O  O176  1  0.87242513  -0.00474420  0.16748133  1
  O  O177  1  0.87923089  0.00762365  0.41188339  1
  O  O178  1  0.87852157  0.00014351  0.66452912  1
  O  O179  1  0.87727175  -0.00934260  0.90571841  1
  O  O180  1  0.87651212  0.24054601  0.15605977  1
  O  O181  1  0.87967755  0.24742337  0.40761154  1
  O  O182  1  0.87996955  0.25915582  0.66629908  1
  O  O183  1  0.87520398  0.25855734  0.91745546  1
  O  O184  1  0.87832727  0.50687547  0.16104108  1
  O  O185  1  0.87963180  0.50402826  0.40502002  1
  O  O186  1  0.87949414  0.49402313  0.66700178  1
  O  O187  1  0.87569657  0.49765007  0.92108400  1
  O  O188  1  0.87415615  0.75899977  0.16508146  1
  O  O189  1  0.87989442  0.74337084  0.41026694  1
  O  O190  1  0.87856340  0.74772714  0.66378998  1
  O  O191  1  0.87878412  0.75241535  0.91761505  1
  O  O192  1  -0.00822999  0.11736612  0.15969202  1
  O  O193  1  -0.00145771  0.12765551  0.41297526  1
  O  O194  1  0.00788081  0.12610627  0.66814963  1
  O  O195  1  -0.00352538  0.12513666  0.91980537  1
  O  O196  1  0.00651546  0.37706055  0.16165475  1
  O  O197  1  0.00568334  0.37725427  0.40481277  1
  O  O198  1  0.00161984  0.37607854  0.66894375  1
  O  O199  1  -0.00219617  0.37881327  0.91949618  1
  O  O200  1  0.00720296  0.63242677  0.15972192  1
  O  O201  1  -0.00140546  0.62320500  0.41107390  1
  O  O202  1  0.00622775  0.62231346  0.66637283  1
  O  O203  1  0.00214979  0.62440037  0.92072889  1
  O  O204  1  -0.00421134  0.87551070  0.15971676  1
  O  O205  1  0.00697884  0.87390384  0.41475026  1
  O  O206  1  0.00999846  0.87381271  0.66579701  1
  O  O207  1  -0.00235803  0.87117061  0.91436476  1
  O  O208  1  0.25815782  0.12160350  0.16087150  1
  O  O209  1  0.24623976  0.12893075  0.41878039  1
  O  O210  1  0.24157699  0.12638196  0.66713578  1
  O  O211  1  0.25028472  0.12531887  0.91231897  1
  O  O212  1  0.25811115  0.38056289  0.16211199  1
  O  O213  1  0.25036643  0.37829552  0.41282116  1
  O  O214  1  0.24793157  0.37618612  0.66782538  1
  O  O215  1  0.24363621  0.37757354  0.91555711  1
  O  O216  1  0.25547975  0.63267344  0.16680769  1
  O  O217  1  0.25522394  0.62040029  0.41669624  1
  O  O218  1  0.24960294  0.62227064  0.66619826  1
  O  O219  1  0.24862871  0.62495042  0.91838281  1
  O  O220  1  0.25786305  0.87623859  0.16189535  1
  O  O221  1  0.24261102  0.87171396  0.41302700  1
  O  O222  1  0.24197089  0.87343037  0.66834329  1
  O  O223  1  0.25346006  0.86769002  0.91419254  1
  O  O224  1  0.48994880  0.12488815  0.16426909  1
  O  O225  1  0.49780851  0.12963505  0.40766751  1
  O  O226  1  0.50567349  0.12976199  0.66192541  1
  O  O227  1  0.50050990  0.12449799  0.91398276  1
  O  O228  1  0.48379978  0.37734382  0.16374747  1
  O  O229  1  0.49064779  0.37609247  0.40798095  1
  O  O230  1  0.49464084  0.37745045  0.66304315  1
  O  O231  1  0.50634708  0.37817590  0.91004118  1
  O  O232  1  0.48889460  0.63197372  0.16486691  1
  O  O233  1  0.48976858  0.62058783  0.40979374  1
  O  O234  1  0.50064999  0.61889163  0.66421913  1
  O  O235  1  0.49177241  0.62369928  0.91358777  1
  O  O236  1  0.49773715  0.87682751  0.16674174  1
  O  O237  1  0.49790639  0.87338020  0.41525828  1
  O  O238  1  0.49968496  0.87254524  0.66249488  1
  O  O239  1  0.48991903  0.86770866  0.90652451  1
  O  O240  1  0.75777578  0.11863905  0.16594282  1
  O  O241  1  0.75919319  0.12717390  0.40676692  1
  O  O242  1  0.74595764  0.12980751  0.66175259  1
  O  O243  1  0.75178599  0.12643835  0.91778331  1
  O  O244  1  0.74893024  0.37573440  0.16080428  1
  O  O245  1  0.75430203  0.37595332  0.40434330  1
  O  O246  1  0.75731943  0.37741096  0.66167036  1
  O  O247  1  0.75160913  0.37780261  0.91923314  1
  O  O248  1  0.74782443  0.63108360  0.16126634  1
  O  O249  1  0.75825202  0.62378390  0.40369708  1
  O  O250  1  0.74491785  0.61948494  0.65944813  1
  O  O251  1  0.75479003  0.62565853  0.91739718  1
  O  O252  1  0.74624114  0.87587382  0.16426098  1
  O  O253  1  0.75363938  0.87462155  0.41378522  1
  O  O254  1  0.74997981  0.87265932  0.66178059  1
  O  O255  1  0.75806498  0.86864143  0.90835543  1
  O  O256  1  0.12900782  0.11411251  0.03183811  1
  O  O257  1  0.13274271  0.12645473  0.28369234  1
  O  O258  1  0.12399875  0.12890243  0.55147694  1
  O  O259  1  0.11639657  0.12466159  0.79026598  1
  O  O260  1  0.12479470  0.38125322  0.03196247  1
  O  O261  1  0.12807055  0.37619746  0.29351429  1
  O  O262  1  0.12193583  0.37467151  0.54816366  1
  O  O263  1  0.12170412  0.37939993  0.80706757  1
  O  O264  1  0.13036265  0.63115256  0.05184627  1
  O  O265  1  0.13367536  0.62723939  0.28456148  1
  O  O266  1  0.12605944  0.62195710  0.54585299  1
  O  O267  1  0.12481681  0.62359733  0.80106949  1
  O  O268  1  0.13181859  0.87694206  0.03301447  1
  O  O269  1  0.12258350  0.87196498  0.29538587  1
  O  O270  1  0.12752241  0.87810663  0.54934842  1
  O  O271  1  0.12514368  0.86951356  0.80134288  1
  O  O272  1  0.37854154  0.11419335  0.04669469  1
  O  O273  1  0.36180456  0.12674487  0.28297033  1
  O  O274  1  0.36650452  0.12957053  0.54118414  1
  O  O275  1  0.37386996  0.13392751  0.78047349  1
  O  O276  1  0.37333593  0.37681405  0.04308608  1
  O  O277  1  0.36978568  0.37621611  0.29484155  1
  O  O278  1  0.37410826  0.37708311  0.55315472  1
  O  O279  1  0.36662176  0.37508060  0.78760248  1
  O  O280  1  0.37437279  0.62538920  0.04749804  1
  O  O281  1  0.37040820  0.62337403  0.29620972  1
  O  O282  1  0.37554355  0.62134962  0.54700039  1
  O  O283  1  0.37243387  0.62634681  0.80060217  1
  O  O284  1  0.37840511  0.87423198  0.05063534  1
  O  O285  1  0.38031029  0.87590090  0.28730834  1
  O  O286  1  0.36600932  0.87046975  0.53435576  1
  O  O287  1  0.36964954  0.86572000  0.79437649  1
  O  O288  1  0.62293252  0.11196488  0.04470451  1
  O  O289  1  0.62385209  0.13175763  0.27578807  1
  O  O290  1  0.62576779  0.13350534  0.54609018  1
  O  O291  1  0.62774056  0.13326176  0.78573169  1
  O  O292  1  0.62330134  0.37898102  0.03791618  1
  O  O293  1  0.61661524  0.37339644  0.27879538  1
  O  O294  1  0.62620919  0.38001720  0.53451309  1
  O  O295  1  0.63030190  0.38027083  0.80081039  1
  O  O296  1  0.61447092  0.62682449  0.03852647  1
  O  O297  1  0.61822550  0.63165406  0.27967940  1
  O  O298  1  0.62218506  0.61512678  0.54719070  1
  O  O299  1  0.62494172  0.61549243  0.79011806  1
  O  O300  1  0.62287857  0.87786316  0.05120603  1
  O  O301  1  0.62106555  0.86950002  0.28824748  1
  O  O302  1  0.62518649  0.87099787  0.53294593  1
  O  O303  1  0.62477547  0.86865410  0.77991991  1
  O  O304  1  0.86966560  0.11802143  0.04609129  1
  O  O305  1  0.88043742  0.12406191  0.29426082  1
  O  O306  1  0.88655340  0.13121405  0.54021432  1
  O  O307  1  0.87871302  0.13297177  0.78452571  1
  O  O308  1  0.87580950  0.37803596  0.03936160  1
  O  O309  1  0.88172052  0.37558401  0.27259703  1
  O  O310  1  0.87844007  0.37497749  0.54875456  1
  O  O311  1  0.87413311  0.37822803  0.80624608  1
  O  O312  1  0.87758884  0.63475868  0.03310257  1
  O  O313  1  0.88186102  0.62940354  0.29266949  1
  O  O314  1  0.88299623  0.62104139  0.53477432  1
  O  O315  1  0.87823772  0.62401837  0.80522540  1
  O  O316  1  0.87095713  0.87876718  0.05106830  1
  O  O317  1  0.87920772  0.87669634  0.28745221  1
  O  O318  1  0.88295528  0.87602670  0.53188459  1
  O  O319  1  0.87705685  0.86742832  0.79515507  1
