# generated using pymatgen
data_VFe(PbO3)2
_symmetry_space_group_name_H-M   'P 1'
_cell_length_a   15.40336568
_cell_length_b   15.39229742
_cell_length_c   18.52471738
_cell_angle_alpha   90.02896740
_cell_angle_beta   89.98588778
_cell_angle_gamma   89.97441542
_symmetry_Int_Tables_number   1
_chemical_formula_structural   VFe(PbO3)2
_chemical_formula_sum   'V32 Fe32 Pb64 O192'
_cell_volume   4392.08312508
_cell_formula_units_Z   32
loop_
 _symmetry_equiv_pos_site_id
 _symmetry_equiv_pos_as_xyz
  1  'x, y, z'
loop_
 _atom_site_type_symbol
 _atom_site_label
 _atom_site_symmetry_multiplicity
 _atom_site_fract_x
 _atom_site_fract_y
 _atom_site_fract_z
 _atom_site_occupancy
  V  V0  1  0.12113309  0.87505652  0.38366360  1
  V  V1  1  0.87254096  0.62914966  0.39073660  1
  V  V2  1  0.13561987  0.87359713  0.13779870  1
  V  V3  1  0.12534382  0.87485124  0.89570580  1
  V  V4  1  0.87668492  0.37406577  0.89052100  1
  V  V5  1  0.62548158  0.12379307  0.63239075  1
  V  V6  1  0.12507842  0.12854184  0.63581619  1
  V  V7  1  0.87029738  0.13195464  0.14296721  1
  V  V8  1  0.37603368  0.62559965  0.14216394  1
  V  V9  1  0.37255555  0.87552172  0.89243367  1
  V  V10  1  0.62512072  0.12724536  0.15409266  1
  V  V11  1  0.87573076  0.12578440  0.88984560  1
  V  V12  1  0.12707108  0.62437527  0.89870644  1
  V  V13  1  0.87786801  0.87655823  0.89232054  1
  V  V14  1  0.87626529  0.87724776  0.63994711  1
  V  V15  1  0.62431002  0.37594125  0.14601859  1
  V  V16  1  0.12337383  0.62682542  0.38332578  1
  V  V17  1  0.87428082  0.87724843  0.14107422  1
  V  V18  1  0.87384117  0.12256436  0.38481537  1
  V  V19  1  0.62852560  0.87604599  0.39189082  1
  V  V20  1  0.62197990  0.62531520  0.40207210  1
  V  V21  1  0.87739219  0.62417696  0.89312479  1
  V  V22  1  0.37450812  0.12448226  0.89173301  1
  V  V23  1  0.12462697  0.37782137  0.63590695  1
  V  V24  1  0.87136234  0.37999212  0.14225886  1
  V  V25  1  0.62225363  0.12504523  0.88946984  1
  V  V26  1  0.37532831  0.12372977  0.14731270  1
  V  V27  1  0.62450379  0.87475014  0.14105859  1
  V  V28  1  0.12454323  0.62738986  0.63807241  1
  V  V29  1  0.62578208  0.62549187  0.13985210  1
  V  V30  1  0.12371507  0.87789021  0.63604684  1
  V  V31  1  0.37279815  0.62330208  0.88874413  1
  Fe  Fe32  1  0.37354029  0.37270584  0.88693639  1
  Fe  Fe33  1  0.38249658  0.87389402  0.14090735  1
  Fe  Fe34  1  0.62206907  0.62585934  0.88239064  1
  Fe  Fe35  1  0.87555081  0.87312426  0.38360339  1
  Fe  Fe36  1  0.37475097  0.62735218  0.39651614  1
  Fe  Fe37  1  0.37830790  0.37529371  0.14828111  1
  Fe  Fe38  1  0.62682683  0.12269795  0.37822921  1
  Fe  Fe39  1  0.12437030  0.37707755  0.14571743  1
  Fe  Fe40  1  0.12187364  0.37664860  0.37420774  1
  Fe  Fe41  1  0.37366214  0.37749090  0.37529990  1
  Fe  Fe42  1  0.62768112  0.37569807  0.39493805  1
  Fe  Fe43  1  0.88038938  0.62310097  0.63571760  1
  Fe  Fe44  1  0.37053173  0.87773610  0.63052091  1
  Fe  Fe45  1  0.87639416  0.12442772  0.63478841  1
  Fe  Fe46  1  0.12285249  0.12333553  0.37221621  1
  Fe  Fe47  1  0.37473904  0.12295545  0.38169184  1
  Fe  Fe48  1  0.87882363  0.37171762  0.63045853  1
  Fe  Fe49  1  0.87585613  0.37807899  0.38615335  1
  Fe  Fe50  1  0.37535084  0.12519606  0.62907082  1
  Fe  Fe51  1  0.62417499  0.37439717  0.88321914  1
  Fe  Fe52  1  0.62684296  0.62540459  0.62498555  1
  Fe  Fe53  1  0.12318870  0.12092502  0.15074085  1
  Fe  Fe54  1  0.37286834  0.37215347  0.63187715  1
  Fe  Fe55  1  0.62477691  0.87694568  0.63400487  1
  Fe  Fe56  1  0.12521475  0.12418160  0.89276120  1
  Fe  Fe57  1  0.12264804  0.62923858  0.13487683  1
  Fe  Fe58  1  0.37465943  0.87225496  0.38770524  1
  Fe  Fe59  1  0.37174594  0.62317443  0.62585721  1
  Fe  Fe60  1  0.62541165  0.37197432  0.62350276  1
  Fe  Fe61  1  0.12466208  0.37334695  0.89197128  1
  Fe  Fe62  1  0.86942332  0.62639669  0.13127936  1
  Fe  Fe63  1  0.62460084  0.87615412  0.88301914  1
  Pb  Pb64  1  0.00602297  0.00659374  0.00846324  1
  Pb  Pb65  1  -0.00251796  -0.00360453  0.25150523  1
  Pb  Pb66  1  -0.00456285  0.00794688  0.49548844  1
  Pb  Pb67  1  0.00865385  0.00824920  0.75241707  1
  Pb  Pb68  1  0.01390393  0.24844032  0.01000901  1
  Pb  Pb69  1  0.00562624  0.25351601  0.25269086  1
  Pb  Pb70  1  -0.00294664  0.25375182  0.48980721  1
  Pb  Pb71  1  0.01037299  0.24850632  0.75227261  1
  Pb  Pb72  1  0.01035400  0.49848720  0.00853496  1
  Pb  Pb73  1  0.00239800  0.50274114  0.24668022  1
  Pb  Pb74  1  -0.00619022  0.49943420  0.49614629  1
  Pb  Pb75  1  0.00218923  0.49248979  0.74983175  1
  Pb  Pb76  1  -0.00190017  0.74181364  0.00686199  1
  Pb  Pb77  1  -0.00598629  0.75032066  0.24639696  1
  Pb  Pb78  1  -0.00238346  0.74527175  0.49955824  1
  Pb  Pb79  1  -0.00069491  0.75207137  0.75063996  1
  Pb  Pb80  1  0.24795967  0.00482757  0.00764213  1
  Pb  Pb81  1  0.26523733  -0.00080741  0.25831218  1
  Pb  Pb82  1  0.25735716  0.00391095  0.49421801  1
  Pb  Pb83  1  0.24960656  0.00606533  0.74621537  1
  Pb  Pb84  1  0.24586426  0.25629085  0.00843763  1
  Pb  Pb85  1  0.24372068  0.25143034  0.24899426  1
  Pb  Pb86  1  0.25186877  0.24940165  0.47924930  1
  Pb  Pb87  1  0.25211130  0.25555794  0.75098414  1
  Pb  Pb88  1  0.24906275  0.48586880  0.00920376  1
  Pb  Pb89  1  0.24994618  0.49596337  0.24833734  1
  Pb  Pb90  1  0.25964417  0.49337135  0.49307210  1
  Pb  Pb91  1  0.25995290  0.49187310  0.75013590  1
  Pb  Pb92  1  0.25036053  0.74730460  0.00506466  1
  Pb  Pb93  1  0.26843624  0.74430639  0.26104045  1
  Pb  Pb94  1  0.25632314  0.75227187  0.49882054  1
  Pb  Pb95  1  0.25456819  0.75054235  0.74480446  1
  Pb  Pb96  1  0.49485532  -0.00367640  0.00427702  1
  Pb  Pb97  1  0.50028507  0.00507020  0.25868260  1
  Pb  Pb98  1  0.49103394  0.00243456  0.49529273  1
  Pb  Pb99  1  0.50029211  -0.00586356  0.74199326  1
  Pb  Pb100  1  0.49403030  0.25652975  0.00355993  1
  Pb  Pb101  1  0.49343902  0.25048712  0.26064623  1
  Pb  Pb102  1  0.49841793  0.24980727  0.48502377  1
  Pb  Pb103  1  0.49918380  0.26109968  0.74276603  1
  Pb  Pb104  1  0.49751999  0.49345290  -0.00358563  1
  Pb  Pb105  1  0.50120355  0.49671272  0.25984646  1
  Pb  Pb106  1  0.49177342  0.48458123  0.50044073  1
  Pb  Pb107  1  0.50726953  0.49882021  0.73451647  1
  Pb  Pb108  1  0.49667593  0.75541388  -0.00277310  1
  Pb  Pb109  1  0.49653701  0.74443510  0.25955159  1
  Pb  Pb110  1  0.50559978  0.75574476  0.50459593  1
  Pb  Pb111  1  0.50255249  0.74482678  0.73553305  1
  Pb  Pb112  1  0.74827178  0.00134360  -0.00109340  1
  Pb  Pb113  1  0.74883168  -0.00086855  0.25448127  1
  Pb  Pb114  1  0.75020133  0.00013142  0.49967765  1
  Pb  Pb115  1  0.74505731  -0.00381432  0.74948920  1
  Pb  Pb116  1  0.74993995  0.25007818  -0.00181381  1
  Pb  Pb117  1  0.74629046  0.26459389  0.26497435  1
  Pb  Pb118  1  0.75199350  0.25526794  0.49554468  1
  Pb  Pb119  1  0.74933132  0.25549720  0.73956266  1
  Pb  Pb120  1  0.74947582  0.50382446  -0.00571344  1
  Pb  Pb121  1  0.74784931  0.49351933  0.25999316  1
  Pb  Pb122  1  0.75223863  0.49628043  0.50381451  1
  Pb  Pb123  1  0.74434597  0.49814563  0.73611270  1
  Pb  Pb124  1  0.74929171  0.74676457  -0.00404283  1
  Pb  Pb125  1  0.75085629  0.75291270  0.25124204  1
  Pb  Pb126  1  0.74611509  0.75128440  0.50705359  1
  Pb  Pb127  1  0.73666872  0.73900104  0.74772335  1
  O  O128  1  0.11963617  -0.01432979  0.16754251  1
  O  O129  1  0.11987375  -0.00784838  0.40094706  1
  O  O130  1  0.12386195  0.00309104  0.66238234  1
  O  O131  1  0.12383078  -0.00317695  0.92371752  1
  O  O132  1  0.12103521  0.24848750  0.16423079  1
  O  O133  1  0.12054073  0.24886941  0.39906670  1
  O  O134  1  0.12360284  0.24825339  0.65889765  1
  O  O135  1  0.12479849  0.24790622  0.92432330  1
  O  O136  1  0.12180834  0.50619557  0.16444717  1
  O  O137  1  0.11740317  0.51094593  0.40265910  1
  O  O138  1  0.12314563  0.49692437  0.65825185  1
  O  O139  1  0.12438859  0.50235731  0.92050429  1
  O  O140  1  0.11980455  0.75971402  0.16239261  1
  O  O141  1  0.11839624  0.74837890  0.41314558  1
  O  O142  1  0.12376838  0.74819070  0.66134589  1
  O  O143  1  0.12562085  0.75278775  0.92308753  1
  O  O144  1  0.37978028  0.00103663  0.16714776  1
  O  O145  1  0.37289308  -0.00391977  0.40863267  1
  O  O146  1  0.36972157  0.00307665  0.66601899  1
  O  O147  1  0.37550335  0.00270609  0.91960607  1
  O  O148  1  0.37933238  0.24237935  0.16792911  1
  O  O149  1  0.37510267  0.25072427  0.39883331  1
  O  O150  1  0.37087833  0.24694909  0.66241490  1
  O  O151  1  0.37541007  0.24076774  0.91659895  1
  O  O152  1  0.38269576  0.51057926  0.16683786  1
  O  O153  1  0.37379962  0.50144321  0.40793314  1
  O  O154  1  0.36884838  0.49949255  0.66231438  1
  O  O155  1  0.37206463  0.50723635  0.91186811  1
  O  O156  1  0.38204807  0.74459464  0.16770207  1
  O  O157  1  0.37452818  0.75225540  0.42003918  1
  O  O158  1  0.36612484  0.74912858  0.65844111  1
  O  O159  1  0.37222696  0.74930064  0.91627072  1
  O  O160  1  0.62689245  -0.00677648  0.16663456  1
  O  O161  1  0.62989387  -0.00619618  0.40998456  1
  O  O162  1  0.62841356  0.00460816  0.66369400  1
  O  O163  1  0.62544703  0.00381654  0.91825400  1
  O  O164  1  0.62800770  0.25494342  0.17121027  1
  O  O165  1  0.62941307  0.24550913  0.40644227  1
  O  O166  1  0.62621037  0.24128915  0.65535909  1
  O  O167  1  0.62484763  0.24449977  0.91839775  1
  O  O168  1  0.62697984  0.49681946  0.16667711  1
  O  O169  1  0.63150081  0.50966408  0.41621956  1
  O  O170  1  0.62673414  0.49925242  0.65035123  1
  O  O171  1  0.62452770  0.50062037  0.91411401  1
  O  O172  1  0.62846610  0.75318103  0.16382961  1
  O  O173  1  0.63065952  0.75297105  0.41855264  1
  O  O174  1  0.62780253  0.75118721  0.65907724  1
  O  O175  1  0.62559655  0.75151743  0.91309193  1
  O  O176  1  0.86896978  -0.00368610  0.16450281  1
  O  O177  1  0.87650537  0.00143959  0.41106433  1
  O  O178  1  0.88192650  -0.00560020  0.66777068  1
  O  O179  1  0.87508600  -0.00185437  0.91749414  1
  O  O180  1  0.86923261  0.24775788  0.16452073  1
  O  O181  1  0.87534867  0.24176847  0.40546179  1
  O  O182  1  0.87942082  0.24788029  0.66512883  1
  O  O183  1  0.87260599  0.25180299  0.91520834  1
  O  O184  1  0.86893523  0.49606369  0.15846909  1
  O  O185  1  0.87684723  0.51012941  0.41111092  1
  O  O186  1  0.88277904  0.49711848  0.66588968  1
  O  O187  1  0.87500062  0.49550954  0.91328019  1
  O  O188  1  0.86697095  0.75663691  0.16131322  1
  O  O189  1  0.87724487  0.74755638  0.41587136  1
  O  O190  1  0.88483382  0.75913412  0.66520399  1
  O  O191  1  0.87677304  0.75580530  0.91521347  1
  O  O192  1  -0.01471920  0.11954935  0.16565819  1
  O  O193  1  -0.00516032  0.12109080  0.40698450  1
  O  O194  1  0.00816638  0.12344597  0.66505189  1
  O  O195  1  -0.00636744  0.12414712  0.92066690  1
  O  O196  1  -0.01291658  0.37368879  0.16157115  1
  O  O197  1  0.00025993  0.37703843  0.40889229  1
  O  O198  1  0.00969101  0.37207732  0.66403877  1
  O  O199  1  -0.00866771  0.37356406  0.91986633  1
  O  O200  1  -0.00599722  0.62975934  0.16078435  1
  O  O201  1  -0.00143171  0.62987252  0.41253629  1
  O  O202  1  0.00993128  0.62465832  0.67128589  1
  O  O203  1  0.00006437  0.62702223  0.92048313  1
  O  O204  1  -0.00954143  0.87433032  0.15896306  1
  O  O205  1  0.00391097  0.87226751  0.41183862  1
  O  O206  1  0.00426329  0.87650018  0.66985042  1
  O  O207  1  -0.00280167  0.87587933  0.92001302  1
  O  O208  1  0.25695643  0.12004760  0.16387541  1
  O  O209  1  0.24605320  0.12153021  0.40131240  1
  O  O210  1  0.24021480  0.12451843  0.66036882  1
  O  O211  1  0.25720241  0.12160387  0.91851095  1
  O  O212  1  0.25198490  0.37769024  0.16488586  1
  O  O213  1  0.24631519  0.37830370  0.39890490  1
  O  O214  1  0.23991847  0.37214566  0.66288345  1
  O  O215  1  0.25145290  0.37342219  0.92241077  1
  O  O216  1  0.25855226  0.62824208  0.16021600  1
  O  O217  1  0.23762657  0.63068511  0.40557133  1
  O  O218  1  0.23825455  0.62306884  0.66463918  1
  O  O219  1  0.25461942  0.62860485  0.92133775  1
  O  O220  1  0.24943644  0.87376531  0.15350407  1
  O  O221  1  0.23745012  0.86992285  0.40768024  1
  O  O222  1  0.24166543  0.87682930  0.66623162  1
  O  O223  1  0.24965942  0.87690804  0.92262723  1
  O  O224  1  0.50004574  0.12339030  0.17109314  1
  O  O225  1  0.50265818  0.12009706  0.40581354  1
  O  O226  1  0.50783657  0.12117896  0.65526157  1
  O  O227  1  0.49622877  0.12283304  0.91748079  1
  O  O228  1  0.50978153  0.37481296  0.16901080  1
  O  O229  1  0.49991903  0.37831185  0.40702303  1
  O  O230  1  0.50055068  0.37208577  0.65560188  1
  O  O231  1  0.49831847  0.37274910  0.91701945  1
  O  O232  1  0.50596079  0.62657644  0.17173336  1
  O  O233  1  0.50666768  0.63076176  0.41577204  1
  O  O234  1  0.49826541  0.62654069  0.65052929  1
  O  O235  1  0.48946875  0.62765689  0.90969773  1
  O  O236  1  0.51031170  0.87282924  0.16742703  1
  O  O237  1  0.50928829  0.87193536  0.40992754  1
  O  O238  1  0.49724840  0.87693311  0.65842718  1
  O  O239  1  0.49545807  0.87682699  0.91346786  1
  O  O240  1  0.75532331  0.12121353  0.17107989  1
  O  O241  1  0.75658393  0.11969101  0.40841719  1
  O  O242  1  0.74544137  0.12213417  0.66148002  1
  O  O243  1  0.75061684  0.12391813  0.91752945  1
  O  O244  1  0.74935076  0.37403103  0.17007675  1
  O  O245  1  0.75454078  0.37750123  0.41745105  1
  O  O246  1  0.75079409  0.37130880  0.65467104  1
  O  O247  1  0.75621901  0.37364047  0.91441478  1
  O  O248  1  0.74391758  0.62500393  0.16586074  1
  O  O249  1  0.75725163  0.62964035  0.41482431  1
  O  O250  1  0.75482260  0.62635858  0.65919107  1
  O  O251  1  0.75437179  0.62628659  0.91260989  1
  O  O252  1  0.74619457  0.87522932  0.16686292  1
  O  O253  1  0.74901329  0.87382680  0.41586070  1
  O  O254  1  0.76098213  0.87788849  0.65998440  1
  O  O255  1  0.75794295  0.87743294  0.91407947  1
  O  O256  1  0.11967087  0.11610301  0.04819330  1
  O  O257  1  0.11743907  0.12088435  0.27060033  1
  O  O258  1  0.12248695  0.12607744  0.54509018  1
  O  O259  1  0.12008086  0.12522502  0.79324050  1
  O  O260  1  0.12211102  0.37836200  0.04225967  1
  O  O261  1  0.11648185  0.37860057  0.27191721  1
  O  O262  1  0.12440907  0.37457074  0.54538867  1
  O  O263  1  0.12198766  0.36876256  0.79229762  1
  O  O264  1  0.12358960  0.62976693  0.03469953  1
  O  O265  1  0.11850011  0.63195152  0.29180102  1
  O  O266  1  0.12132655  0.62752825  0.54749073  1
  O  O267  1  0.12778276  0.62741549  0.80803253  1
  O  O268  1  0.12533962  0.87713166  0.04620913  1
  O  O269  1  0.12006584  0.86759355  0.29261930  1
  O  O270  1  0.12288243  0.87871883  0.54540055  1
  O  O271  1  0.12652744  0.87518847  0.80512417  1
  O  O272  1  0.38001077  0.12253815  0.05576148  1
  O  O273  1  0.37781477  0.11440151  0.27983507  1
  O  O274  1  0.37035066  0.11739389  0.52878224  1
  O  O275  1  0.37436886  0.12223028  0.80119637  1
  O  O276  1  0.38211121  0.37543256  0.04641060  1
  O  O277  1  0.38338663  0.38054704  0.27281547  1
  O  O278  1  0.36879015  0.38083929  0.53148865  1
  O  O279  1  0.36608972  0.36932897  0.78671665  1
  O  O280  1  0.38205131  0.62716726  0.05127332  1
  O  O281  1  0.37623126  0.63971153  0.29364835  1
  O  O282  1  0.36041990  0.62059730  0.52530920  1
  O  O283  1  0.36490517  0.62627434  0.79806618  1
  O  O284  1  0.38817776  0.87460995  0.04099200  1
  O  O285  1  0.37004035  0.86766617  0.28471320  1
  O  O286  1  0.36507245  0.88302265  0.53036392  1
  O  O287  1  0.36691452  0.87628214  0.80189890  1
  O  O288  1  0.62681514  0.12673273  0.06287682  1
  O  O289  1  0.62744524  0.11437604  0.27653382  1
  O  O290  1  0.62998567  0.11871392  0.54149264  1
  O  O291  1  0.62299768  0.12502953  0.79898368  1
  O  O292  1  0.62627858  0.37443124  0.05495583  1
  O  O293  1  0.63647729  0.38355270  0.29170693  1
  O  O294  1  0.62486165  0.37200855  0.52219615  1
  O  O295  1  0.62228581  0.36880642  0.78413214  1
  O  O296  1  0.62226397  0.62425738  0.04884757  1
  O  O297  1  0.62743727  0.62986057  0.31009543  1
  O  O298  1  0.63449261  0.63508270  0.52389848  1
  O  O299  1  0.62625876  0.62883622  0.78265354  1
  O  O300  1  0.62487715  0.87587103  0.04980924  1
  O  O301  1  0.63205083  0.87079316  0.30039808  1
  O  O302  1  0.62981654  0.87540209  0.53436647  1
  O  O303  1  0.62984420  0.88262632  0.78370473  1
  O  O304  1  0.86823239  0.12946101  0.05159039  1
  O  O305  1  0.87424562  0.11993768  0.29360224  1
  O  O306  1  0.88044796  0.11854461  0.53571575  1
  O  O307  1  0.87677238  0.12327447  0.79915707  1
  O  O308  1  0.86610451  0.37234404  0.05167627  1
  O  O309  1  0.86380120  0.37845067  0.28499058  1
  O  O310  1  0.88399841  0.37387175  0.52972039  1
  O  O311  1  0.88028712  0.37379239  0.79992172  1
  O  O312  1  0.87000476  0.62892159  0.03146413  1
  O  O313  1  0.87340455  0.63122226  0.29912723  1
  O  O314  1  0.88870041  0.62532045  0.53670963  1
  O  O315  1  0.88323917  0.62819412  0.80229771  1
  O  O316  1  0.86951310  0.87878578  0.05001245  1
  O  O317  1  0.87258021  0.87076097  0.28425514  1
  O  O318  1  0.88124164  0.87948818  0.54881536  1
  O  O319  1  0.88203052  0.87731469  0.80206660  1
