# generated using pymatgen
data_VFe(PbO3)2
_symmetry_space_group_name_H-M   'P 1'
_cell_length_a   15.39605606
_cell_length_b   15.40229956
_cell_length_c   18.48916829
_cell_angle_alpha   89.96504700
_cell_angle_beta   90.02798652
_cell_angle_gamma   89.99017718
_symmetry_Int_Tables_number   1
_chemical_formula_structural   VFe(PbO3)2
_chemical_formula_sum   'V32 Fe32 Pb64 O192'
_cell_volume   4384.42136967
_cell_formula_units_Z   32
loop_
 _symmetry_equiv_pos_site_id
 _symmetry_equiv_pos_as_xyz
  1  'x, y, z'
loop_
 _atom_site_type_symbol
 _atom_site_label
 _atom_site_symmetry_multiplicity
 _atom_site_fract_x
 _atom_site_fract_y
 _atom_site_fract_z
 _atom_site_occupancy
  V  V0  1  0.62829845  0.36721989  0.64351681  1
  V  V1  1  0.12426527  0.88027447  0.14192046  1
  V  V2  1  0.87507416  0.37712615  0.88682144  1
  V  V3  1  0.87485674  0.62694504  0.39392661  1
  V  V4  1  0.87391655  0.37295931  0.63970460  1
  V  V5  1  0.12685580  0.37578925  0.14169844  1
  V  V6  1  0.37754768  0.87535991  0.39527236  1
  V  V7  1  0.87794729  0.37579765  0.14158234  1
  V  V8  1  0.12600414  0.12687398  0.39466109  1
  V  V9  1  0.12331946  0.62680960  0.14234434  1
  V  V10  1  0.87175461  0.87379296  0.64590106  1
  V  V11  1  0.62601968  0.61800174  0.64443999  1
  V  V12  1  0.62378929  0.62491733  0.39082185  1
  V  V13  1  0.12511934  0.12882637  0.14071478  1
  V  V14  1  0.37556196  0.62508442  0.39708639  1
  V  V15  1  0.12726678  0.37555361  0.88758909  1
  V  V16  1  0.87242209  0.12608922  0.64544118  1
  V  V17  1  0.37332208  0.37578211  0.13877291  1
  V  V18  1  0.12319316  0.12597643  0.64008438  1
  V  V19  1  0.62467167  0.37505196  0.38925062  1
  V  V20  1  0.87493942  0.87667893  0.39171081  1
  V  V21  1  0.37460328  0.62298577  0.88372647  1
  V  V22  1  0.62611829  0.87315504  0.13404454  1
  V  V23  1  0.37565617  0.37451252  0.39650538  1
  V  V24  1  0.62632999  0.87066092  0.64686755  1
  V  V25  1  0.12541784  0.62362589  0.88097421  1
  V  V26  1  0.62725788  0.11699529  0.64974405  1
  V  V27  1  0.12532927  0.37184559  0.63230711  1
  V  V28  1  0.12570683  0.11583744  0.87574828  1
  V  V29  1  0.87530257  0.62752757  0.13949518  1
  V  V30  1  0.12536244  0.87639295  0.39951250  1
  V  V31  1  0.12570165  0.37772610  0.39443722  1
  Fe  Fe32  1  0.62448177  0.37618841  0.13008752  1
  Fe  Fe33  1  0.62686647  0.87007137  0.38737965  1
  Fe  Fe34  1  0.87860438  0.62238717  0.87483333  1
  Fe  Fe35  1  0.37211770  0.62611840  0.13545279  1
  Fe  Fe36  1  0.37078803  0.37803616  0.88050820  1
  Fe  Fe37  1  0.12134522  0.87744905  0.64352363  1
  Fe  Fe38  1  0.87168011  0.62268352  0.64806114  1
  Fe  Fe39  1  0.12373921  0.62218781  0.62677756  1
  Fe  Fe40  1  0.87926757  0.87207346  0.13385555  1
  Fe  Fe41  1  0.37839993  0.87457101  0.63897169  1
  Fe  Fe42  1  0.37800174  0.62448170  0.63244521  1
  Fe  Fe43  1  0.37001079  0.87453385  0.87945663  1
  Fe  Fe44  1  0.62276129  0.87402246  0.88049270  1
  Fe  Fe45  1  0.87850702  0.12356752  0.13244904  1
  Fe  Fe46  1  0.87622820  0.12492277  0.38453919  1
  Fe  Fe47  1  0.37008186  0.12762768  0.87967563  1
  Fe  Fe48  1  0.12667554  0.87013712  0.86781979  1
  Fe  Fe49  1  0.62099423  0.37651184  0.88603183  1
  Fe  Fe50  1  0.87914067  0.12937382  0.88879217  1
  Fe  Fe51  1  0.38072775  0.37429068  0.63508446  1
  Fe  Fe52  1  0.37705386  0.12635546  0.63953629  1
  Fe  Fe53  1  0.62442179  0.62212254  0.13165498  1
  Fe  Fe54  1  0.12652898  0.62742476  0.40177989  1
  Fe  Fe55  1  0.87456502  0.37676369  0.38571412  1
  Fe  Fe56  1  0.62407781  0.12640402  0.88039333  1
  Fe  Fe57  1  0.37179419  0.87273497  0.13544777  1
  Fe  Fe58  1  0.62585800  0.62587848  0.88425070  1
  Fe  Fe59  1  0.37196021  0.12287799  0.13667557  1
  Fe  Fe60  1  0.37476482  0.12323358  0.39231298  1
  Fe  Fe61  1  0.62456383  0.12094103  0.38360494  1
  Fe  Fe62  1  0.87915793  0.87495245  0.88145546  1
  Fe  Fe63  1  0.62481896  0.12686757  0.13130289  1
  Pb  Pb64  1  -0.01404172  -0.00459258  0.00094960  1
  Pb  Pb65  1  -0.00663719  0.00315085  0.25024726  1
  Pb  Pb66  1  0.00457560  -0.00300420  0.50784361  1
  Pb  Pb67  1  -0.01234194  0.00085316  0.75672077  1
  Pb  Pb68  1  0.00007314  0.24754761  0.00048546  1
  Pb  Pb69  1  -0.00967582  0.25043729  0.25551536  1
  Pb  Pb70  1  -0.00194849  0.25097496  0.49881376  1
  Pb  Pb71  1  -0.00437229  0.24758702  0.75360580  1
  Pb  Pb72  1  0.00097329  0.50134386  -0.00357069  1
  Pb  Pb73  1  -0.00081600  0.49737559  0.25676176  1
  Pb  Pb74  1  -0.00747403  0.51249118  0.50859701  1
  Pb  Pb75  1  -0.00262667  0.50409856  0.74612299  1
  Pb  Pb76  1  -0.00252233  0.75734864  -0.01105362  1
  Pb  Pb77  1  0.00876602  0.74283761  0.25741502  1
  Pb  Pb78  1  0.00865050  0.75192406  0.51234388  1
  Pb  Pb79  1  0.00249309  0.74856379  0.74293508  1
  Pb  Pb80  1  0.26511082  -0.00532579  -0.00054707  1
  Pb  Pb81  1  0.26034770  0.00163851  0.25552792  1
  Pb  Pb82  1  0.25239236  -0.01067543  0.51207672  1
  Pb  Pb83  1  0.25735113  -0.00941675  0.74731043  1
  Pb  Pb84  1  0.25682629  0.24741082  -0.00309464  1
  Pb  Pb85  1  0.25700553  0.24458288  0.25506716  1
  Pb  Pb86  1  0.26192035  0.24598229  0.50829669  1
  Pb  Pb87  1  0.26160614  0.25164945  0.74855444  1
  Pb  Pb88  1  0.25434456  0.50893804  0.00050091  1
  Pb  Pb89  1  0.24431171  0.50421598  0.25433372  1
  Pb  Pb90  1  0.25544194  0.50223064  0.50593377  1
  Pb  Pb91  1  0.25837386  0.49781803  0.74018289  1
  Pb  Pb92  1  0.25488432  0.75391238  -0.00436600  1
  Pb  Pb93  1  0.24550044  0.74448194  0.25494460  1
  Pb  Pb94  1  0.25837710  0.75313519  0.51128539  1
  Pb  Pb95  1  0.24806646  0.75187160  0.73495668  1
  Pb  Pb96  1  0.49795419  0.00653423  -0.01279882  1
  Pb  Pb97  1  0.50455720  0.00158323  0.24417672  1
  Pb  Pb98  1  0.49737570  0.00178783  0.50105956  1
  Pb  Pb99  1  0.48979648  -0.00166588  0.75613504  1
  Pb  Pb100  1  0.50193773  0.24772717  -0.00969294  1
  Pb  Pb101  1  0.50567411  0.23804083  0.24713002  1
  Pb  Pb102  1  0.49512226  0.24310337  0.50442558  1
  Pb  Pb103  1  0.49861915  0.24311173  0.75623452  1
  Pb  Pb104  1  0.50686594  0.49994007  -0.00252309  1
  Pb  Pb105  1  0.50169232  0.50142335  0.24440494  1
  Pb  Pb106  1  0.49564923  0.49737459  0.50499833  1
  Pb  Pb107  1  0.50035034  0.48960373  0.75320488  1
  Pb  Pb108  1  0.49769344  0.75396588  -0.00747246  1
  Pb  Pb109  1  0.49988050  0.75027554  0.24364758  1
  Pb  Pb110  1  0.49472179  0.74928133  0.50660756  1
  Pb  Pb111  1  0.50178076  0.75102788  0.75219019  1
  Pb  Pb112  1  0.74894081  0.00295668  -0.01250164  1
  Pb  Pb113  1  0.74937878  0.00369481  0.24248347  1
  Pb  Pb114  1  0.74530831  0.00237442  0.49736240  1
  Pb  Pb115  1  0.75172101  -0.00673192  0.76291022  1
  Pb  Pb116  1  0.73738829  0.24140957  -0.00153400  1
  Pb  Pb117  1  0.74649422  0.23842825  0.24635722  1
  Pb  Pb118  1  0.75125687  0.24762531  0.49374327  1
  Pb  Pb119  1  0.74347157  0.24612587  0.76036981  1
  Pb  Pb120  1  0.74013808  0.50476493  -0.00304421  1
  Pb  Pb121  1  0.75344128  0.49508405  0.24783757  1
  Pb  Pb122  1  0.75295415  0.50467432  0.50488930  1
  Pb  Pb123  1  0.73962341  0.49978128  0.75864870  1
  Pb  Pb124  1  0.75279836  0.75008403  -0.01374836  1
  Pb  Pb125  1  0.74195257  0.75900470  0.24956278  1
  Pb  Pb126  1  0.75541431  0.74307078  0.50710545  1
  Pb  Pb127  1  0.74150050  0.74815107  0.76103019  1
  O  O128  1  0.12272362  -0.00090003  0.16375832  1
  O  O129  1  0.12263541  0.00198337  0.42255920  1
  O  O130  1  0.11870577  0.01309037  0.66360084  1
  O  O131  1  0.12672253  0.00368469  0.86747492  1
  O  O132  1  0.12575016  0.24733589  0.16509214  1
  O  O133  1  0.12529943  0.24686774  0.41718193  1
  O  O134  1  0.11720981  0.25522529  0.66163286  1
  O  O135  1  0.12514241  0.26325791  0.91145713  1
  O  O136  1  0.12494171  0.50047651  0.16957074  1
  O  O137  1  0.12741701  0.49217578  0.41420750  1
  O  O138  1  0.11865860  0.48741657  0.65494394  1
  O  O139  1  0.12577159  0.50286695  0.91474437  1
  O  O140  1  0.12370604  0.75014267  0.17028793  1
  O  O141  1  0.12295040  0.75694627  0.42418940  1
  O  O142  1  0.11793030  0.74763034  0.65070698  1
  O  O143  1  0.12505522  0.73950926  0.89943016  1
  O  O144  1  0.37120879  -0.00381125  0.16848490  1
  O  O145  1  0.37373717  -0.00647031  0.41731140  1
  O  O146  1  0.37782678  0.00219257  0.66250702  1
  O  O147  1  0.36783162  0.00221851  0.90733065  1
  O  O148  1  0.36790473  0.25705077  0.16424237  1
  O  O149  1  0.37493098  0.25214516  0.41833881  1
  O  O150  1  0.37773418  0.25153758  0.66322046  1
  O  O151  1  0.36421108  0.25232840  0.90844844  1
  O  O152  1  0.36771813  0.49347200  0.16663439  1
  O  O153  1  0.37543291  0.49864604  0.42040569  1
  O  O154  1  0.37881580  0.49923645  0.66037756  1
  O  O155  1  0.36810528  0.50765489  0.91174050  1
  O  O156  1  0.37196979  0.75074878  0.16929900  1
  O  O157  1  0.37412837  0.75341413  0.41849609  1
  O  O158  1  0.38065660  0.74807324  0.66123127  1
  O  O159  1  0.36699912  0.74148650  0.90694405  1
  O  O160  1  0.62690452  -0.00756378  0.15697124  1
  O  O161  1  0.62685025  -0.00545184  0.41650959  1
  O  O162  1  0.62963043  0.00103861  0.66756341  1
  O  O163  1  0.62391410  0.00046650  0.90523005  1
  O  O164  1  0.62509583  0.25463850  0.16287659  1
  O  O165  1  0.62473801  0.25874087  0.41098666  1
  O  O166  1  0.62902775  0.25259698  0.66401565  1
  O  O167  1  0.62612649  0.25247793  0.91028631  1
  O  O168  1  0.62640079  0.49763346  0.16727990  1
  O  O169  1  0.62458603  0.50046219  0.41798714  1
  O  O170  1  0.62893616  0.49939558  0.66295116  1
  O  O171  1  0.62451023  0.50119204  0.91203277  1
  O  O172  1  0.62759046  0.75124402  0.16031483  1
  O  O173  1  0.62709899  0.74414332  0.42046944  1
  O  O174  1  0.62800341  0.75237097  0.66261862  1
  O  O175  1  0.62296858  0.74950830  0.91341816  1
  O  O176  1  0.88086043  -0.00293460  0.16274765  1
  O  O177  1  0.87530580  -0.00665445  0.41116758  1
  O  O178  1  0.87013478  0.00359936  0.66879417  1
  O  O179  1  0.88177875  0.00263404  0.91104984  1
  O  O180  1  0.88337062  0.25767151  0.15962429  1
  O  O181  1  0.87551431  0.25154194  0.41487238  1
  O  O182  1  0.86916840  0.25492575  0.66778371  1
  O  O183  1  0.88816539  0.26032494  0.91306005  1
  O  O184  1  0.88281153  0.50166945  0.16860424  1
  O  O185  1  0.87290303  0.50516554  0.41568956  1
  O  O186  1  0.86985470  0.48759291  0.66449554  1
  O  O187  1  0.88261839  0.49456156  0.91151205  1
  O  O188  1  0.87999831  0.74238607  0.16239000  1
  O  O189  1  0.87469896  0.74665057  0.41983910  1
  O  O190  1  0.87106744  0.75724955  0.66070807  1
  O  O191  1  0.88229955  0.74716638  0.90412096  1
  O  O192  1  0.00852675  0.12539293  0.16663131  1
  O  O193  1  0.00568422  0.12432067  0.41795201  1
  O  O194  1  -0.00193120  0.13210983  0.66691509  1
  O  O195  1  0.01727874  0.12848537  0.91346269  1
  O  O196  1  0.00334566  0.37771034  0.17099188  1
  O  O197  1  0.00697034  0.37262738  0.41494138  1
  O  O198  1  -0.00733819  0.37169624  0.65812795  1
  O  O199  1  0.00562075  0.38177933  0.91567277  1
  O  O200  1  -0.00044334  0.62384989  0.17210546  1
  O  O201  1  -0.00865677  0.62455040  0.41638174  1
  O  O202  1  -0.00020716  0.61922730  0.66012009  1
  O  O203  1  0.00807494  0.61953487  0.90586141  1
  O  O204  1  0.00843871  0.87138018  0.17006823  1
  O  O205  1  -0.00700482  0.87299869  0.42059859  1
  O  O206  1  -0.01102108  0.88126282  0.66167067  1
  O  O207  1  0.00879583  0.87576333  0.90802167  1
  O  O208  1  0.24138488  0.12360461  0.16983716  1
  O  O209  1  0.24171448  0.12246688  0.42009010  1
  O  O210  1  0.23906937  0.13332297  0.65683363  1
  O  O211  1  0.23486860  0.12841557  0.91025580  1
  O  O212  1  0.24770573  0.37569750  0.17173424  1
  O  O213  1  0.24669736  0.37236031  0.42011046  1
  O  O214  1  0.24161283  0.37183034  0.65106024  1
  O  O215  1  0.24297239  0.38319260  0.91315863  1
  O  O216  1  0.24462411  0.62492142  0.17086342  1
  O  O217  1  0.25570011  0.62504665  0.42089878  1
  O  O218  1  0.24847158  0.62082817  0.65078323  1
  O  O219  1  0.24461510  0.62201277  0.90996814  1
  O  O220  1  0.23860301  0.87334817  0.16934871  1
  O  O221  1  0.25194133  0.87553884  0.42212377  1
  O  O222  1  0.24957868  0.87767091  0.65589586  1
  O  O223  1  0.24412789  0.87289296  0.90795308  1
  O  O224  1  0.49836657  0.12429155  0.16187335  1
  O  O225  1  0.50143730  0.12371115  0.41636496  1
  O  O226  1  0.50994013  0.12803590  0.66427461  1
  O  O227  1  0.49587873  0.12838692  0.90461160  1
  O  O228  1  0.48961978  0.37721536  0.15734654  1
  O  O229  1  0.50480856  0.37818356  0.41621324  1
  O  O230  1  0.51053024  0.37675547  0.66299557  1
  O  O231  1  0.49405143  0.37771170  0.90836207  1
  O  O232  1  0.49892302  0.62244440  0.16419132  1
  O  O233  1  0.50095340  0.62477644  0.41766692  1
  O  O234  1  0.50991169  0.62548392  0.66451380  1
  O  O235  1  0.49008786  0.62537360  0.90283962  1
  O  O236  1  0.50679647  0.87229659  0.15926116  1
  O  O237  1  0.49497394  0.87225174  0.41347957  1
  O  O238  1  0.50983493  0.87771720  0.66436504  1
  O  O239  1  0.49499460  0.87235724  0.90880969  1
  O  O240  1  0.75261284  0.12645559  0.15846846  1
  O  O241  1  0.75000444  0.12465304  0.41482844  1
  O  O242  1  0.74789397  0.12870673  0.67236625  1
  O  O243  1  0.75301830  0.12927969  0.90632355  1
  O  O244  1  0.76111615  0.37971190  0.15797772  1
  O  O245  1  0.74332515  0.37865510  0.41280188  1
  O  O246  1  0.74832662  0.37414837  0.66786459  1
  O  O247  1  0.76168333  0.37579922  0.90668340  1
  O  O248  1  0.76003760  0.61968394  0.15959746  1
  O  O249  1  0.75155152  0.62441162  0.41986843  1
  O  O250  1  0.74233911  0.62634438  0.66868978  1
  O  O251  1  0.75511348  0.62296075  0.90589397  1
  O  O252  1  0.74774750  0.87140469  0.15900880  1
  O  O253  1  0.75944250  0.86937808  0.41791045  1
  O  O254  1  0.74858023  0.87885184  0.67040926  1
  O  O255  1  0.75163427  0.87475143  0.90782041  1
  O  O256  1  0.12648589  0.12656766  0.05039974  1
  O  O257  1  0.12568797  0.12486563  0.30370449  1
  O  O258  1  0.11676178  0.12649958  0.54867624  1
  O  O259  1  0.12386660  0.14835109  0.78733663  1
  O  O260  1  0.12743452  0.37719880  0.05100830  1
  O  O261  1  0.12786676  0.37305128  0.30310068  1
  O  O262  1  0.11963990  0.36943527  0.54105142  1
  O  O263  1  0.12638100  0.37714922  0.79618537  1
  O  O264  1  0.12266510  0.62950879  0.05141107  1
  O  O265  1  0.12518706  0.63259982  0.30040175  1
  O  O266  1  0.11589627  0.61894639  0.52423197  1
  O  O267  1  0.12654867  0.61630530  0.78966151  1
  O  O268  1  0.12467614  0.87670956  0.05114368  1
  O  O269  1  0.12438676  0.87843292  0.30829568  1
  O  O270  1  0.11622201  0.88711981  0.54016294  1
  O  O271  1  0.12473654  0.86423387  0.76583210  1
  O  O272  1  0.36099640  0.12163256  0.03697831  1
  O  O273  1  0.36581595  0.12531486  0.29169441  1
  O  O274  1  0.37918514  0.13097180  0.53682013  1
  O  O275  1  0.37082336  0.12974097  0.77759342  1
  O  O276  1  0.36464440  0.37713413  0.04786212  1
  O  O277  1  0.37410289  0.37660517  0.30546090  1
  O  O278  1  0.38060767  0.37330353  0.53352953  1
  O  O279  1  0.36924133  0.38264549  0.77923021  1
  O  O280  1  0.36500030  0.62530001  0.03629088  1
  O  O281  1  0.37556437  0.62403638  0.30568812  1
  O  O282  1  0.38403507  0.62703986  0.53129698  1
  O  O283  1  0.36877673  0.61990161  0.79228302  1
  O  O284  1  0.36216176  0.87288005  0.03519982  1
  O  O285  1  0.37174562  0.87530359  0.30415968  1
  O  O286  1  0.37795874  0.87169776  0.53664352  1
  O  O287  1  0.37343531  0.87919540  0.77752819  1
  O  O288  1  0.62542436  0.13216585  0.03086374  1
  O  O289  1  0.62598735  0.12776816  0.28278129  1
  O  O290  1  0.63182093  0.12109109  0.55795364  1
  O  O291  1  0.62346805  0.13533262  0.77826125  1
  O  O292  1  0.62522711  0.38050983  0.02973426  1
  O  O293  1  0.62290571  0.37873282  0.29828774  1
  O  O294  1  0.62969423  0.37073094  0.55235724  1
  O  O295  1  0.62780672  0.38109912  0.78400666  1
  O  O296  1  0.62409396  0.61519184  0.03200436  1
  O  O297  1  0.62649020  0.62460016  0.29970045  1
  O  O298  1  0.62931462  0.62169965  0.55263170  1
  O  O299  1  0.62794742  0.62839767  0.78269353  1
  O  O300  1  0.62515047  0.87070107  0.04350173  1
  O  O301  1  0.63332924  0.86730202  0.28794730  1
  O  O302  1  0.62977686  0.87550984  0.55564307  1
  O  O303  1  0.62701180  0.86638573  0.77920038  1
  O  O304  1  0.88862783  0.12643198  0.03189331  1
  O  O305  1  0.88107316  0.12726472  0.28438846  1
  O  O306  1  0.87202538  0.12647399  0.55413189  1
  O  O307  1  0.88673349  0.13013011  0.78731188  1
  O  O308  1  0.88639495  0.38245540  0.05121398  1
  O  O309  1  0.87938295  0.37841455  0.28604960  1
  O  O310  1  0.86923754  0.37195441  0.54806345  1
  O  O311  1  0.87999285  0.37610263  0.79537309  1
  O  O312  1  0.88195552  0.62297701  0.04887065  1
  O  O313  1  0.87083150  0.62907205  0.30300278  1
  O  O314  1  0.86769844  0.61728595  0.54524986  1
  O  O315  1  0.88105754  0.61856306  0.77344307  1
  O  O316  1  0.88984300  0.87307278  0.03434102  1
  O  O317  1  0.87580106  0.87087882  0.30060076  1
  O  O318  1  0.86666991  0.88013369  0.55457594  1
  O  O319  1  0.87526126  0.88481735  0.78023002  1
