# generated using pymatgen
data_VFe(PbO3)2
_symmetry_space_group_name_H-M   'P 1'
_cell_length_a   15.38496537
_cell_length_b   15.40517760
_cell_length_c   18.52834939
_cell_angle_alpha   90.05727217
_cell_angle_beta   90.02610555
_cell_angle_gamma   90.00955401
_symmetry_Int_Tables_number   1
_chemical_formula_structural   VFe(PbO3)2
_chemical_formula_sum   'V32 Fe32 Pb64 O192'
_cell_volume   4391.36661765
_cell_formula_units_Z   32
loop_
 _symmetry_equiv_pos_site_id
 _symmetry_equiv_pos_as_xyz
  1  'x, y, z'
loop_
 _atom_site_type_symbol
 _atom_site_label
 _atom_site_symmetry_multiplicity
 _atom_site_fract_x
 _atom_site_fract_y
 _atom_site_fract_z
 _atom_site_occupancy
  V  V0  1  0.87668588  0.62522337  0.38278311  1
  V  V1  1  0.37367398  0.63043503  0.38719531  1
  V  V2  1  0.62592766  0.13155436  0.88754775  1
  V  V3  1  0.87685253  0.87744182  0.64199547  1
  V  V4  1  0.37724095  0.62550562  0.88939685  1
  V  V5  1  0.11861714  0.62370091  0.90620603  1
  V  V6  1  0.12222832  0.87392264  0.64669503  1
  V  V7  1  0.37750208  0.62835133  0.13597391  1
  V  V8  1  0.62386474  0.38021969  0.88666561  1
  V  V9  1  0.63110083  0.12459381  0.63926875  1
  V  V10  1  0.37079689  0.37611128  0.64026126  1
  V  V11  1  0.62191412  0.63250199  0.88900170  1
  V  V12  1  0.62347704  0.37259099  0.14073105  1
  V  V13  1  0.37377022  0.12524599  0.64729673  1
  V  V14  1  0.37668482  0.37570671  0.14119807  1
  V  V15  1  0.37290190  0.62675905  0.63974624  1
  V  V16  1  0.37393683  0.12785334  0.39070075  1
  V  V17  1  0.87520487  0.37724137  0.38664054  1
  V  V18  1  0.12171203  0.12501181  0.64750496  1
  V  V19  1  0.37445385  0.37797014  0.39284075  1
  V  V20  1  0.37611703  0.37706618  0.88622215  1
  V  V21  1  0.61964095  0.12368102  0.13956357  1
  V  V22  1  0.12764063  0.12429856  0.38549419  1
  V  V23  1  0.62598086  0.88522531  0.88987257  1
  V  V24  1  0.87970508  0.37352459  0.64193633  1
  V  V25  1  0.62226698  0.12542029  0.38940356  1
  V  V26  1  0.37604098  0.12855378  0.13649747  1
  V  V27  1  0.12305298  0.62665341  0.64274403  1
  V  V28  1  0.11949359  0.37612665  0.88888611  1
  V  V29  1  0.12489459  0.37190940  0.13412352  1
  V  V30  1  0.87331973  0.12408990  0.89207129  1
  V  V31  1  0.87855675  0.62733150  0.64115807  1
  Fe  Fe32  1  0.86946214  0.37434757  0.89226722  1
  Fe  Fe33  1  0.86909038  0.62318821  0.89648155  1
  Fe  Fe34  1  0.12483070  0.87327298  0.89639157  1
  Fe  Fe35  1  0.12985950  0.62192588  0.12316619  1
  Fe  Fe36  1  0.87674594  0.87507279  0.37445791  1
  Fe  Fe37  1  0.37277550  0.87928701  0.38547123  1
  Fe  Fe38  1  0.63030937  0.62646123  0.63371402  1
  Fe  Fe39  1  0.12499528  0.37295755  0.38533275  1
  Fe  Fe40  1  0.87291621  0.87448799  0.13199188  1
  Fe  Fe41  1  0.62562166  0.37279313  0.39594112  1
  Fe  Fe42  1  0.62617584  0.37550889  0.63255703  1
  Fe  Fe43  1  0.87756362  0.12366146  0.63558437  1
  Fe  Fe44  1  0.62753325  0.87368720  0.63466547  1
  Fe  Fe45  1  0.37911705  0.87340865  0.88058460  1
  Fe  Fe46  1  0.62037191  0.87567926  0.13661785  1
  Fe  Fe47  1  0.12991438  0.87608827  0.12276618  1
  Fe  Fe48  1  0.87543668  0.12725457  0.37828619  1
  Fe  Fe49  1  0.87330652  0.12913797  0.14102773  1
  Fe  Fe50  1  0.62378089  0.87581119  0.38519834  1
  Fe  Fe51  1  0.12614226  0.87448072  0.38064676  1
  Fe  Fe52  1  0.37791566  0.87667981  0.13313760  1
  Fe  Fe53  1  0.12875567  0.12690510  0.12311553  1
  Fe  Fe54  1  0.38033582  0.12616459  0.87995458  1
  Fe  Fe55  1  0.62511679  0.62252766  0.38774210  1
  Fe  Fe56  1  0.12670462  0.12822692  0.89601558  1
  Fe  Fe57  1  0.87126976  0.37524063  0.13059125  1
  Fe  Fe58  1  0.87003702  0.87474056  0.89781919  1
  Fe  Fe59  1  0.37235968  0.87562175  0.64507952  1
  Fe  Fe60  1  0.87307573  0.62013501  0.12888294  1
  Fe  Fe61  1  0.62052459  0.62195809  0.13922739  1
  Fe  Fe62  1  0.12457774  0.37744622  0.63993475  1
  Fe  Fe63  1  0.12698995  0.62308324  0.38126667  1
  Pb  Pb64  1  0.01016585  -0.00251120  0.00114028  1
  Pb  Pb65  1  0.00372444  -0.00402207  0.23211341  1
  Pb  Pb66  1  -0.00622332  0.00152491  0.48997943  1
  Pb  Pb67  1  0.01128921  -0.00280046  0.76583543  1
  Pb  Pb68  1  -0.01305206  0.24272655  0.00772688  1
  Pb  Pb69  1  -0.00255099  0.24484998  0.24385785  1
  Pb  Pb70  1  -0.00300438  0.24581182  0.49824047  1
  Pb  Pb71  1  0.00395947  0.24647745  0.75672810  1
  Pb  Pb72  1  -0.01544702  0.49757169  0.00418994  1
  Pb  Pb73  1  0.00431659  0.50553497  0.23928958  1
  Pb  Pb74  1  0.00548387  0.49459419  0.49712381  1
  Pb  Pb75  1  -0.01089588  0.50596124  0.75856614  1
  Pb  Pb76  1  -0.01131824  0.76190945  0.00566804  1
  Pb  Pb77  1  0.00329312  0.75152399  0.23068227  1
  Pb  Pb78  1  0.00250962  0.75177534  0.48865917  1
  Pb  Pb79  1  -0.00308351  0.76004758  0.76325943  1
  Pb  Pb80  1  0.25554159  -0.00356266  -0.01178839  1
  Pb  Pb81  1  0.24712583  -0.01405098  0.24395741  1
  Pb  Pb82  1  0.25387638  -0.00637010  0.50327339  1
  Pb  Pb83  1  0.24674956  -0.00381274  0.76044316  1
  Pb  Pb84  1  0.25093369  0.24579395  -0.00505212  1
  Pb  Pb85  1  0.24550433  0.25351244  0.24889441  1
  Pb  Pb86  1  0.24367571  0.25162706  0.50289982  1
  Pb  Pb87  1  0.24840695  0.24047644  0.75740284  1
  Pb  Pb88  1  0.25154620  0.49928830  0.00111897  1
  Pb  Pb89  1  0.24162183  0.49943653  0.25033762  1
  Pb  Pb90  1  0.24284912  0.49520156  0.50051428  1
  Pb  Pb91  1  0.24518413  0.50316723  0.75215404  1
  Pb  Pb92  1  0.25166356  0.75845541  0.00093889  1
  Pb  Pb93  1  0.23924681  0.75267056  0.24267650  1
  Pb  Pb94  1  0.25076457  0.75552491  0.49662424  1
  Pb  Pb95  1  0.24556540  0.75800281  0.75874224  1
  Pb  Pb96  1  0.49704199  -0.00889605  0.00076033  1
  Pb  Pb97  1  0.49728223  -0.01104185  0.25523537  1
  Pb  Pb98  1  0.49488898  -0.01097132  0.50466782  1
  Pb  Pb99  1  0.49602134  -0.00051595  0.74807236  1
  Pb  Pb100  1  0.49962280  0.25093354  -0.00238204  1
  Pb  Pb101  1  0.50440426  0.25553560  0.25701039  1
  Pb  Pb102  1  0.50279395  0.25025785  0.50436659  1
  Pb  Pb103  1  0.49721942  0.24718604  0.74744056  1
  Pb  Pb104  1  0.50577903  0.50602847  0.00415353  1
  Pb  Pb105  1  0.50990005  0.49835226  0.26079100  1
  Pb  Pb106  1  0.50964744  0.50316194  0.50495906  1
  Pb  Pb107  1  0.50579327  0.50035245  0.74268786  1
  Pb  Pb108  1  0.50421887  0.76099088  0.00655732  1
  Pb  Pb109  1  0.50902400  0.75599301  0.25191430  1
  Pb  Pb110  1  0.50762608  0.75744410  0.49990934  1
  Pb  Pb111  1  0.50178341  0.75641475  0.74441114  1
  Pb  Pb112  1  0.75674421  0.00035903  0.01139195  1
  Pb  Pb113  1  0.76176412  -0.00963390  0.24701788  1
  Pb  Pb114  1  0.75309775  -0.00365080  0.49050054  1
  Pb  Pb115  1  0.75878573  -0.00588671  0.75251299  1
  Pb  Pb116  1  0.75512848  0.24878253  0.00668697  1
  Pb  Pb117  1  0.75294915  0.24904990  0.25148416  1
  Pb  Pb118  1  0.75739251  0.24390353  0.49957922  1
  Pb  Pb119  1  0.75696362  0.25936724  0.74957100  1
  Pb  Pb120  1  0.74594510  0.50648725  0.00519705  1
  Pb  Pb121  1  0.74549658  0.50661288  0.24868393  1
  Pb  Pb122  1  0.74469588  0.50240056  0.50110462  1
  Pb  Pb123  1  0.76000342  0.50255119  0.75246320  1
  Pb  Pb124  1  0.75225304  0.75053579  0.00787534  1
  Pb  Pb125  1  0.74973046  0.75165699  0.23869666  1
  Pb  Pb126  1  0.74138423  0.75462887  0.49424554  1
  Pb  Pb127  1  0.76052839  0.74949851  0.75362751  1
  O  O128  1  0.12916611  0.00350771  0.14928727  1
  O  O129  1  0.12635953  0.00860055  0.41047592  1
  O  O130  1  0.12224269  0.00151307  0.67392185  1
  O  O131  1  0.12462519  0.00180305  0.91191522  1
  O  O132  1  0.13160607  0.25489802  0.15932239  1
  O  O133  1  0.12691920  0.24422565  0.41446187  1
  O  O134  1  0.12278816  0.24502528  0.66750520  1
  O  O135  1  0.12823006  0.26185540  0.91271303  1
  O  O136  1  0.13441789  0.49116558  0.15626516  1
  O  O137  1  0.12717146  0.49879530  0.41530224  1
  O  O138  1  0.12340881  0.50601469  0.66991926  1
  O  O139  1  0.13121885  0.49188860  0.91938304  1
  O  O140  1  0.13326770  0.74636516  0.14877070  1
  O  O141  1  0.12688689  0.74689952  0.41316917  1
  O  O142  1  0.12167881  0.74958659  0.67432158  1
  O  O143  1  0.12929896  0.73934953  0.91544761  1
  O  O144  1  0.38122049  0.01398174  0.15475839  1
  O  O145  1  0.37307872  0.00825590  0.42011953  1
  O  O146  1  0.37144231  0.00513468  0.67043568  1
  O  O147  1  0.38092461  -0.00009516  0.90437830  1
  O  O148  1  0.37852867  0.25308580  0.16960496  1
  O  O149  1  0.37350169  0.24942409  0.42103968  1
  O  O150  1  0.37258649  0.25132178  0.66715498  1
  O  O151  1  0.38249496  0.25628543  0.91178975  1
  O  O152  1  0.37488615  0.48919836  0.16288209  1
  O  O153  1  0.37161241  0.49363190  0.41181599  1
  O  O154  1  0.37096171  0.50437052  0.66499208  1
  O  O155  1  0.38253759  0.49895110  0.91499972  1
  O  O156  1  0.37723759  0.74254225  0.15141115  1
  O  O157  1  0.37268260  0.74590349  0.40871110  1
  O  O158  1  0.36983619  0.74251384  0.66443881  1
  O  O159  1  0.38495895  0.74064684  0.90967439  1
  O  O160  1  0.61783863  0.01037718  0.15939909  1
  O  O161  1  0.62399728  0.00900815  0.41288288  1
  O  O162  1  0.62703735  0.00739438  0.66418231  1
  O  O163  1  0.62458635  0.00090868  0.90879942  1
  O  O164  1  0.61904635  0.25450432  0.16799275  1
  O  O165  1  0.62226288  0.24354126  0.41966875  1
  O  O166  1  0.62596177  0.24590831  0.66227864  1
  O  O167  1  0.62306124  0.24948756  0.90907646  1
  O  O168  1  0.61710846  0.48922728  0.16594056  1
  O  O169  1  0.62421454  0.49894625  0.41945519  1
  O  O170  1  0.62517138  0.50069135  0.66248092  1
  O  O171  1  0.62085521  0.49520851  0.90977831  1
  O  O172  1  0.61742869  0.74763028  0.16120326  1
  O  O173  1  0.62282124  0.74752491  0.41171477  1
  O  O174  1  0.62777388  0.74957254  0.66584716  1
  O  O175  1  0.62124032  0.74647723  0.90664324  1
  O  O176  1  0.87149928  0.00266042  0.15650339  1
  O  O177  1  0.87578355  0.00270908  0.40651189  1
  O  O178  1  0.87735011  -0.00495202  0.66370601  1
  O  O179  1  0.86534360  0.00875256  0.91821037  1
  O  O180  1  0.87221799  0.25627464  0.16778242  1
  O  O181  1  0.87722409  0.25501117  0.41168667  1
  O  O182  1  0.87755228  0.25405064  0.66458657  1
  O  O183  1  0.86673228  0.24373766  0.91470191  1
  O  O184  1  0.87530501  0.49558871  0.16138505  1
  O  O185  1  0.87639042  0.49611107  0.41286300  1
  O  O186  1  0.87802882  0.49860373  0.66575317  1
  O  O187  1  0.87037408  0.49700843  0.91812109  1
  O  O188  1  0.87398026  0.74615650  0.15466844  1
  O  O189  1  0.87788308  0.74161450  0.40195708  1
  O  O190  1  0.87777460  0.75457514  0.66779912  1
  O  O191  1  0.86694002  0.74756293  0.91898367  1
  O  O192  1  0.00374363  0.13192269  0.15602005  1
  O  O193  1  0.00724690  0.12773376  0.40703609  1
  O  O194  1  0.00332278  0.12411514  0.67069031  1
  O  O195  1  -0.01116420  0.12716625  0.91194930  1
  O  O196  1  0.00925600  0.37364614  0.15292114  1
  O  O197  1  -0.00521912  0.37467868  0.41308995  1
  O  O198  1  -0.00405056  0.37626236  0.66877904  1
  O  O199  1  0.00455864  0.37682743  0.90856952  1
  O  O200  1  0.00459268  0.61813982  0.14963694  1
  O  O201  1  -0.00598432  0.61958851  0.41041441  1
  O  O202  1  -0.00062079  0.62696876  0.67355252  1
  O  O203  1  0.00323006  0.61905262  0.91507222  1
  O  O204  1  0.00277190  0.87403459  0.14770633  1
  O  O205  1  0.00079651  0.87498838  0.41016668  1
  O  O206  1  -0.00353665  0.87460656  0.67450247  1
  O  O207  1  -0.00310781  0.87328417  0.91694994  1
  O  O208  1  0.26033456  0.13464625  0.15298979  1
  O  O209  1  0.24689688  0.12715171  0.41693852  1
  O  O210  1  0.24339501  0.12469869  0.67095361  1
  O  O211  1  0.25641864  0.13011833  0.90966295  1
  O  O212  1  0.25495443  0.36997559  0.16148352  1
  O  O213  1  0.25540367  0.37051550  0.41919147  1
  O  O214  1  0.25156546  0.37593506  0.66948729  1
  O  O215  1  0.25558492  0.37611517  0.91095613  1
  O  O216  1  0.26106700  0.61591697  0.15776293  1
  O  O217  1  0.25807107  0.62139126  0.41563107  1
  O  O218  1  0.24879928  0.62527697  0.66946448  1
  O  O219  1  0.26467173  0.61990392  0.91554324  1
  O  O220  1  0.25450617  0.87674960  0.15626772  1
  O  O221  1  0.24872222  0.87742132  0.41859232  1
  O  O222  1  0.24272484  0.87548213  0.67152251  1
  O  O223  1  0.25533094  0.86899889  0.90836972  1
  O  O224  1  0.50083401  0.13534341  0.16700209  1
  O  O225  1  0.50088691  0.12675974  0.41738524  1
  O  O226  1  0.50390941  0.12644689  0.66400154  1
  O  O227  1  0.50967152  0.12610728  0.91119388  1
  O  O228  1  0.49733023  0.37178235  0.16902511  1
  O  O229  1  0.49023956  0.37170326  0.41963344  1
  O  O230  1  0.49405419  0.37613715  0.66235115  1
  O  O231  1  0.50540634  0.37348562  0.91433080  1
  O  O232  1  0.48949678  0.61471154  0.16674154  1
  O  O233  1  0.48849212  0.61953431  0.41337896  1
  O  O234  1  0.49102044  0.62491397  0.65997782  1
  O  O235  1  0.50340252  0.61825797  0.91529108  1
  O  O236  1  0.49685994  0.87775626  0.16872159  1
  O  O237  1  0.49724960  0.87816577  0.41652173  1
  O  O238  1  0.50156261  0.87666343  0.66353401  1
  O  O239  1  0.50824329  0.87241486  0.91149802  1
  O  O240  1  0.73555398  0.13322869  0.16334881  1
  O  O241  1  0.74383760  0.12854757  0.40973116  1
  O  O242  1  0.74851387  0.12659421  0.66257256  1
  O  O243  1  0.74233376  0.12530873  0.91843877  1
  O  O244  1  0.73981494  0.37335094  0.15756472  1
  O  O245  1  0.75859031  0.37353655  0.41406608  1
  O  O246  1  0.75783697  0.37554866  0.66208378  1
  O  O247  1  0.73684070  0.37223532  0.91347245  1
  O  O248  1  0.74679934  0.61864691  0.16272546  1
  O  O249  1  0.76022061  0.61984547  0.40985507  1
  O  O250  1  0.75888733  0.62550647  0.66339394  1
  O  O251  1  0.73552889  0.61954970  0.91475937  1
  O  O252  1  0.74561981  0.87647004  0.15743638  1
  O  O253  1  0.75195952  0.87500237  0.40913098  1
  O  O254  1  0.75827186  0.87563234  0.66381548  1
  O  O255  1  0.73732886  0.87366426  0.91955672  1
  O  O256  1  0.12541295  0.13327812  0.02185271  1
  O  O257  1  0.13266092  0.12709883  0.29471863  1
  O  O258  1  0.12240481  0.12036248  0.55698491  1
  O  O259  1  0.11932645  0.13188585  0.79380579  1
  O  O260  1  0.12996219  0.37105042  0.04338039  1
  O  O261  1  0.13329334  0.37346486  0.28612204  1
  O  O262  1  0.12668510  0.37752342  0.54040161  1
  O  O263  1  0.12383973  0.37843437  0.79737241  1
  O  O264  1  0.13938381  0.61487547  0.02054068  1
  O  O265  1  0.13162831  0.61970173  0.28151411  1
  O  O266  1  0.12242208  0.62872739  0.55193251  1
  O  O267  1  0.13202176  0.61519121  0.81517147  1
  O  O268  1  0.13146024  0.87281540  0.02076726  1
  O  O269  1  0.13658976  0.87470169  0.28067157  1
  O  O270  1  0.11860564  0.87473867  0.55590980  1
  O  O271  1  0.11854673  0.87209393  0.79277781  1
  O  O272  1  0.38426686  0.13611569  0.04540732  1
  O  O273  1  0.37340223  0.12654678  0.30010962  1
  O  O274  1  0.37089010  0.12590022  0.55607910  1
  O  O275  1  0.37970503  0.13422629  0.77983015  1
  O  O276  1  0.38131786  0.37074049  0.05010026  1
  O  O277  1  0.37341577  0.37240949  0.30173766  1
  O  O278  1  0.36860905  0.37526302  0.54923978  1
  O  O279  1  0.37781861  0.37847135  0.79528748  1
  O  O280  1  0.38256291  0.61859074  0.04462207  1
  O  O281  1  0.37228287  0.62671987  0.29642631  1
  O  O282  1  0.36919284  0.62551257  0.54927756  1
  O  O283  1  0.37741948  0.62295895  0.79849168  1
  O  O284  1  0.38802900  0.87452160  0.03184249  1
  O  O285  1  0.37166883  0.88574697  0.28547453  1
  O  O286  1  0.36969514  0.88208935  0.54433562  1
  O  O287  1  0.37627046  0.87029900  0.77936199  1
  O  O288  1  0.61810462  0.12848410  0.04813285  1
  O  O289  1  0.61832996  0.12964839  0.29874053  1
  O  O290  1  0.62893697  0.12433368  0.54846916  1
  O  O291  1  0.63025974  0.12815447  0.79698707  1
  O  O292  1  0.61647606  0.37173273  0.04951132  1
  O  O293  1  0.61644830  0.37441203  0.29587956  1
  O  O294  1  0.62271004  0.37584001  0.53245243  1
  O  O295  1  0.62352082  0.37867904  0.79518807  1
  O  O296  1  0.62036332  0.61381894  0.03849426  1
  O  O297  1  0.62140908  0.61286866  0.28682879  1
  O  O298  1  0.62779531  0.62372309  0.53302791  1
  O  O299  1  0.62172884  0.62499031  0.79799077  1
  O  O300  1  0.61035070  0.87802973  0.03515666  1
  O  O301  1  0.61376701  0.87707523  0.28477891  1
  O  O302  1  0.62762128  0.86989371  0.53418124  1
  O  O303  1  0.63011053  0.87974911  0.79851617  1
  O  O304  1  0.86583174  0.13741742  0.03900280  1
  O  O305  1  0.87162121  0.13340750  0.27817530  1
  O  O306  1  0.88009527  0.12990130  0.53631011  1
  O  O307  1  0.86925274  0.12277753  0.80058670  1
  O  O308  1  0.87479601  0.36598788  0.02936900  1
  O  O309  1  0.87575752  0.37781090  0.29598482  1
  O  O310  1  0.88202934  0.37467596  0.55103554  1
  O  O311  1  0.86653080  0.37621263  0.79139617  1
  O  O312  1  0.86501523  0.61698577  0.02698511  1
  O  O313  1  0.87742648  0.61696264  0.29196067  1
  O  O314  1  0.88193893  0.62640542  0.55070408  1
  O  O315  1  0.86993705  0.61934083  0.79395087  1
  O  O316  1  0.86529220  0.87409486  0.02835917  1
  O  O317  1  0.87512137  0.87703576  0.27436694  1
  O  O318  1  0.88171672  0.87402383  0.55141462  1
  O  O319  1  0.86526994  0.87549658  0.79621890  1
