# generated using pymatgen
data_VFe(PbO3)2
_symmetry_space_group_name_H-M   'P 1'
_cell_length_a   15.38370037
_cell_length_b   15.38129904
_cell_length_c   18.49779199
_cell_angle_alpha   89.98582047
_cell_angle_beta   89.99901525
_cell_angle_gamma   90.00760596
_symmetry_Int_Tables_number   1
_chemical_formula_structural   VFe(PbO3)2
_chemical_formula_sum   'V32 Fe32 Pb64 O192'
_cell_volume   4376.97133705
_cell_formula_units_Z   32
loop_
 _symmetry_equiv_pos_site_id
 _symmetry_equiv_pos_as_xyz
  1  'x, y, z'
loop_
 _atom_site_type_symbol
 _atom_site_label
 _atom_site_symmetry_multiplicity
 _atom_site_fract_x
 _atom_site_fract_y
 _atom_site_fract_z
 _atom_site_occupancy
  V  V0  1  0.87492574  0.87706504  0.39503319  1
  V  V1  1  0.37502757  0.87213257  0.14132224  1
  V  V2  1  0.37460425  0.12646492  0.89031985  1
  V  V3  1  0.12439910  0.12471173  0.38968794  1
  V  V4  1  0.62135302  0.37411026  0.88782583  1
  V  V5  1  0.12587525  0.62614625  0.14150423  1
  V  V6  1  0.62516143  0.37361405  0.63071503  1
  V  V7  1  0.37660141  0.62471152  0.14191533  1
  V  V8  1  0.37600398  0.12118640  0.38993232  1
  V  V9  1  0.87652565  0.87183438  0.13865091  1
  V  V10  1  0.62538859  0.87547205  0.88363822  1
  V  V11  1  0.12557621  0.37474339  0.39250737  1
  V  V12  1  0.12551549  0.87363354  0.64087182  1
  V  V13  1  0.87377776  0.12460806  0.88851375  1
  V  V14  1  0.12359739  0.37611650  0.63210252  1
  V  V15  1  0.12795437  0.12505148  0.64424774  1
  V  V16  1  0.87682730  0.12334363  0.39022861  1
  V  V17  1  0.62761478  0.87257995  0.14033720  1
  V  V18  1  0.87070510  0.37483031  0.88858548  1
  V  V19  1  0.12663861  0.12510905  0.13954784  1
  V  V20  1  0.87536872  0.12596075  0.63860391  1
  V  V21  1  0.12653815  0.87808843  0.39101492  1
  V  V22  1  0.12509054  0.62369572  0.88519327  1
  V  V23  1  0.12212148  0.37677728  0.14175162  1
  V  V24  1  0.87717607  0.37924034  0.14257148  1
  V  V25  1  0.37411861  0.62834726  0.38892077  1
  V  V26  1  0.61852218  0.87595243  0.39825472  1
  V  V27  1  0.87491908  0.12482309  0.13955866  1
  V  V28  1  0.37758022  0.87863448  0.63945659  1
  V  V29  1  0.87485224  0.37353241  0.39421793  1
  V  V30  1  0.12283679  0.37669924  0.88917223  1
  V  V31  1  0.62943200  0.12481727  0.39359729  1
  Fe  Fe32  1  0.37782030  0.87371746  0.88196771  1
  Fe  Fe33  1  0.87392265  0.36946011  0.63163759  1
  Fe  Fe34  1  0.87700679  0.62288627  0.62860280  1
  Fe  Fe35  1  0.62663445  0.37678090  0.14223543  1
  Fe  Fe36  1  0.87647872  0.62751204  0.39763413  1
  Fe  Fe37  1  0.87716279  0.87865905  0.64229937  1
  Fe  Fe38  1  0.37598819  0.62241908  0.88061154  1
  Fe  Fe39  1  0.37532381  0.37184235  0.63128906  1
  Fe  Fe40  1  0.37255372  0.12386424  0.63332774  1
  Fe  Fe41  1  0.62648493  0.12270800  0.13293601  1
  Fe  Fe42  1  0.87383512  0.62117235  0.88233919  1
  Fe  Fe43  1  0.62316750  0.12563035  0.63077546  1
  Fe  Fe44  1  0.87743680  0.62609500  0.13791803  1
  Fe  Fe45  1  0.87205951  0.87354535  0.87605957  1
  Fe  Fe46  1  0.62288466  0.62512237  0.62906177  1
  Fe  Fe47  1  0.37238277  0.37544761  0.14213592  1
  Fe  Fe48  1  0.37315849  0.87555880  0.38419902  1
  Fe  Fe49  1  0.37081175  0.62542121  0.63852155  1
  Fe  Fe50  1  0.62469941  0.12790640  0.89046957  1
  Fe  Fe51  1  0.62557872  0.62590032  0.39492917  1
  Fe  Fe52  1  0.12510307  0.13047552  0.88528552  1
  Fe  Fe53  1  0.62499884  0.37286291  0.38220834  1
  Fe  Fe54  1  0.37343800  0.37554293  0.88421210  1
  Fe  Fe55  1  0.62473365  0.87652002  0.62906173  1
  Fe  Fe56  1  0.12432021  0.87667652  0.88668099  1
  Fe  Fe57  1  0.62493008  0.62286587  0.87915659  1
  Fe  Fe58  1  0.37320951  0.37467185  0.38770221  1
  Fe  Fe59  1  0.12346290  0.87352959  0.13179215  1
  Fe  Fe60  1  0.12732438  0.62515546  0.62724001  1
  Fe  Fe61  1  0.12522827  0.62602721  0.39946942  1
  Fe  Fe62  1  0.62729802  0.62624910  0.13881887  1
  Fe  Fe63  1  0.37659825  0.12459994  0.13524332  1
  Pb  Pb64  1  0.00480764  -0.00780866  -0.00532991  1
  Pb  Pb65  1  0.00050180  -0.00282378  0.24756419  1
  Pb  Pb66  1  -0.00408293  -0.00508067  0.50737011  1
  Pb  Pb67  1  0.00987339  -0.00216044  0.75717304  1
  Pb  Pb68  1  -0.00259432  0.25289596  -0.00088238  1
  Pb  Pb69  1  -0.00098321  0.25042210  0.25178222  1
  Pb  Pb70  1  -0.00177502  0.25205402  0.50367615  1
  Pb  Pb71  1  0.00490924  0.24487294  0.75079496  1
  Pb  Pb72  1  -0.00627693  0.50580183  0.00118303  1
  Pb  Pb73  1  0.00076714  0.51370085  0.26145969  1
  Pb  Pb74  1  -0.00193849  0.50696473  0.50412612  1
  Pb  Pb75  1  -0.00684718  0.50652827  0.74128071  1
  Pb  Pb76  1  -0.00778422  0.74772389  -0.00718270  1
  Pb  Pb77  1  0.00374141  0.73566653  0.26217549  1
  Pb  Pb78  1  -0.00375364  0.74846561  0.50603924  1
  Pb  Pb79  1  -0.01169440  0.74626868  0.74677674  1
  Pb  Pb80  1  0.24673185  -0.00341747  -0.00365430  1
  Pb  Pb81  1  0.25492318  -0.00694202  0.24884627  1
  Pb  Pb82  1  0.25445144  0.00413873  0.50242187  1
  Pb  Pb83  1  0.24995952  -0.00773918  0.75782127  1
  Pb  Pb84  1  0.26068248  0.25141614  0.00502515  1
  Pb  Pb85  1  0.25837813  0.25476420  0.25347340  1
  Pb  Pb86  1  0.25778615  0.24914465  0.50283114  1
  Pb  Pb87  1  0.25616380  0.25492035  0.74994367  1
  Pb  Pb88  1  0.25737021  0.49483950  -0.00101088  1
  Pb  Pb89  1  0.25045002  0.49792860  0.25593635  1
  Pb  Pb90  1  0.26354312  0.50261931  0.50530397  1
  Pb  Pb91  1  0.26111467  0.50011753  0.74501613  1
  Pb  Pb92  1  0.24893610  0.75431759  -0.00696817  1
  Pb  Pb93  1  0.24790856  0.74980458  0.25124740  1
  Pb  Pb94  1  0.25292821  0.74115926  0.50565232  1
  Pb  Pb95  1  0.25240753  0.75446370  0.75034338  1
  Pb  Pb96  1  0.49940614  0.00815646  -0.00095098  1
  Pb  Pb97  1  0.49721446  -0.00249074  0.24819597  1
  Pb  Pb98  1  0.50615432  0.00583366  0.50501977  1
  Pb  Pb99  1  0.50572342  0.00663193  0.74637597  1
  Pb  Pb100  1  0.49163339  0.25254818  0.00692662  1
  Pb  Pb101  1  0.50355813  0.25106225  0.24419942  1
  Pb  Pb102  1  0.49634464  0.24951724  0.49668871  1
  Pb  Pb103  1  0.49713552  0.24789130  0.74377116  1
  Pb  Pb104  1  0.50376267  0.49944972  -0.00142507  1
  Pb  Pb105  1  0.50614972  0.49047769  0.25304384  1
  Pb  Pb106  1  0.50327446  0.49734717  0.49436836  1
  Pb  Pb107  1  0.49805201  0.50626558  0.74364279  1
  Pb  Pb108  1  0.50280631  0.74295380  -0.00842945  1
  Pb  Pb109  1  0.50635353  0.74549709  0.25535484  1
  Pb  Pb110  1  0.49735243  0.74006288  0.50711591  1
  Pb  Pb111  1  0.50318307  0.74099710  0.74468478  1
  Pb  Pb112  1  0.74487171  0.00367625  -0.00342099  1
  Pb  Pb113  1  0.75014824  -0.00281272  0.25010833  1
  Pb  Pb114  1  0.75008069  -0.00773997  0.50846530  1
  Pb  Pb115  1  0.74685974  -0.00270976  0.74494817  1
  Pb  Pb116  1  0.73824862  0.25643013  0.00672646  1
  Pb  Pb117  1  0.74459853  0.25229007  0.24988251  1
  Pb  Pb118  1  0.75154168  0.25032205  0.50119628  1
  Pb  Pb119  1  0.73979001  0.24605315  0.74905560  1
  Pb  Pb120  1  0.73880319  0.50487843  0.00499607  1
  Pb  Pb121  1  0.74009420  0.50889763  0.25709968  1
  Pb  Pb122  1  0.74948160  0.50874526  0.49937931  1
  Pb  Pb123  1  0.75069671  0.50909473  0.73983270  1
  Pb  Pb124  1  0.75212620  0.73838793  -0.00761140  1
  Pb  Pb125  1  0.75275598  0.73647906  0.25884201  1
  Pb  Pb126  1  0.74633778  0.75038740  0.50714219  1
  Pb  Pb127  1  0.75127482  0.74845775  0.73649577  1
  O  O128  1  0.12212132  0.00542852  0.16214406  1
  O  O129  1  0.12309909  -0.00042378  0.41891060  1
  O  O130  1  0.12342383  0.00427474  0.66689226  1
  O  O131  1  0.12444230  0.00644579  0.91530776  1
  O  O132  1  0.12125799  0.24630658  0.16625062  1
  O  O133  1  0.12483228  0.24742205  0.41628891  1
  O  O134  1  0.12445564  0.24614908  0.66385324  1
  O  O135  1  0.12003756  0.25819911  0.91414632  1
  O  O136  1  0.12239892  0.50011455  0.16892368  1
  O  O137  1  0.12315922  0.48988986  0.41337814  1
  O  O138  1  0.12400591  0.49170111  0.64759687  1
  O  O139  1  0.12214164  0.49668280  0.91591765  1
  O  O140  1  0.12428201  0.74748942  0.16437891  1
  O  O141  1  0.12202020  0.76371069  0.41434435  1
  O  O142  1  0.12762538  0.75794676  0.65689495  1
  O  O143  1  0.12380804  0.74100998  0.90669490  1
  O  O144  1  0.37479527  -0.00396085  0.16441674  1
  O  O145  1  0.37360616  0.00356706  0.41524719  1
  O  O146  1  0.37068524  -0.00392427  0.66428512  1
  O  O147  1  0.37649779  0.00734934  0.91094778  1
  O  O148  1  0.37156670  0.24780968  0.16855506  1
  O  O149  1  0.37099791  0.24053077  0.40956312  1
  O  O150  1  0.37033455  0.24867164  0.66374983  1
  O  O151  1  0.37527775  0.24919840  0.91660184  1
  O  O152  1  0.37020080  0.50902259  0.16580066  1
  O  O153  1  0.37277167  0.50699053  0.41136008  1
  O  O154  1  0.37046498  0.49567399  0.65650994  1
  O  O155  1  0.37258838  0.49871466  0.91619645  1
  O  O156  1  0.37292443  0.74629639  0.16973371  1
  O  O157  1  0.37397503  0.74860894  0.41288405  1
  O  O158  1  0.36820029  0.76045935  0.66087184  1
  O  O159  1  0.37497368  0.74732594  0.91243048  1
  O  O160  1  0.62744845  -0.00900211  0.16538150  1
  O  O161  1  0.62673092  -0.00110339  0.41772735  1
  O  O162  1  0.62373997  0.00126082  0.66188846  1
  O  O163  1  0.62629400  -0.00311709  0.91279506  1
  O  O164  1  0.62991223  0.24817309  0.16357837  1
  O  O165  1  0.62640642  0.24517455  0.41212229  1
  O  O166  1  0.62699981  0.25301252  0.66050552  1
  O  O167  1  0.62884168  0.25821034  0.91632972  1
  O  O168  1  0.62759320  0.50303654  0.17018688  1
  O  O169  1  0.62585389  0.49724412  0.41229814  1
  O  O170  1  0.62386206  0.49097382  0.65208113  1
  O  O171  1  0.62845822  0.49093234  0.91299983  1
  O  O172  1  0.62695251  0.75652177  0.16889084  1
  O  O173  1  0.62798776  0.75978143  0.41686428  1
  O  O174  1  0.62257091  0.75203068  0.65558856  1
  O  O175  1  0.62463298  0.75634077  0.90540365  1
  O  O176  1  0.87383756  -0.00246663  0.16750103  1
  O  O177  1  0.87796588  0.00058043  0.41962836  1
  O  O178  1  0.87966881  0.01150398  0.66557819  1
  O  O179  1  0.87151643  0.00780199  0.90620098  1
  O  O180  1  0.87810815  0.24947223  0.16757448  1
  O  O181  1  0.87820347  0.24693573  0.41639960  1
  O  O182  1  0.87639157  0.24302414  0.66607889  1
  O  O183  1  0.87625892  0.25572463  0.91732893  1
  O  O184  1  0.88199358  0.49387180  0.16327103  1
  O  O185  1  0.87910185  0.48990081  0.41250359  1
  O  O186  1  0.87766884  0.49430404  0.65664742  1
  O  O187  1  0.87748007  0.49095811  0.91333815  1
  O  O188  1  0.87581716  0.75904760  0.16293057  1
  O  O189  1  0.87847724  0.76150056  0.41657263  1
  O  O190  1  0.87846244  0.74957110  0.65696783  1
  O  O191  1  0.87590016  0.74833658  0.90832990  1
  O  O192  1  0.00066697  0.12349081  0.16840808  1
  O  O193  1  0.00050435  0.12380731  0.41712687  1
  O  O194  1  0.00089618  0.12713867  0.66578533  1
  O  O195  1  -0.00927477  0.13027004  0.91541653  1
  O  O196  1  -0.00164412  0.37081012  0.17179950  1
  O  O197  1  0.00262048  0.36787297  0.41756376  1
  O  O198  1  0.00767381  0.36640478  0.65869423  1
  O  O199  1  -0.00094354  0.37542381  0.91526396  1
  O  O200  1  0.00318934  0.62600385  0.17077434  1
  O  O201  1  0.00110012  0.62599800  0.42089062  1
  O  O202  1  0.00456836  0.62392931  0.65738598  1
  O  O203  1  0.00627113  0.61962934  0.91342876  1
  O  O204  1  -0.00629049  0.88084256  0.15871449  1
  O  O205  1  0.00035362  0.88162041  0.41861352  1
  O  O206  1  0.00915474  0.88050406  0.66391631  1
  O  O207  1  -0.00357270  0.87816298  0.90919342  1
  O  O208  1  0.24166126  0.12408533  0.16121685  1
  O  O209  1  0.24972797  0.12127688  0.41438048  1
  O  O210  1  0.24375412  0.12340115  0.66481649  1
  O  O211  1  0.25540889  0.12952211  0.91121929  1
  O  O212  1  0.24181970  0.37563751  0.16991533  1
  O  O213  1  0.24261873  0.37071126  0.41405101  1
  O  O214  1  0.23915181  0.36904878  0.65969381  1
  O  O215  1  0.24053459  0.37534826  0.91320141  1
  O  O216  1  0.25032203  0.62683007  0.16876207  1
  O  O217  1  0.25486596  0.62770208  0.41303837  1
  O  O218  1  0.24563654  0.62622375  0.66422083  1
  O  O219  1  0.24097698  0.62026056  0.91036274  1
  O  O220  1  0.25077693  0.87426547  0.16342797  1
  O  O221  1  0.24348232  0.88124536  0.41084000  1
  O  O222  1  0.24579529  0.88171123  0.66543122  1
  O  O223  1  0.25186970  0.87605601  0.91534060  1
  O  O224  1  0.50240164  0.12122545  0.16435315  1
  O  O225  1  0.49608201  0.12232758  0.40987376  1
  O  O226  1  0.49776981  0.12580239  0.66261498  1
  O  O227  1  0.49554545  0.12878455  0.91552563  1
  O  O228  1  0.49820008  0.37699930  0.16508518  1
  O  O229  1  0.49852600  0.37148737  0.40884767  1
  O  O230  1  0.50695711  0.36957847  0.65352597  1
  O  O231  1  0.50537950  0.37493979  0.90762678  1
  O  O232  1  0.49311096  0.62819965  0.16483631  1
  O  O233  1  0.49295129  0.62880406  0.41352526  1
  O  O234  1  0.49765801  0.62493451  0.65862331  1
  O  O235  1  0.50225169  0.62058835  0.91343590  1
  O  O236  1  0.50533391  0.87268290  0.16516506  1
  O  O237  1  0.50217604  0.87896243  0.41236882  1
  O  O238  1  0.49337963  0.87822724  0.65570475  1
  O  O239  1  0.50709249  0.87756821  0.91183474  1
  O  O240  1  0.75463360  0.12126281  0.16614931  1
  O  O241  1  0.75423740  0.12309939  0.41643500  1
  O  O242  1  0.75644586  0.12564867  0.65786861  1
  O  O243  1  0.75753086  0.13148989  0.91611472  1
  O  O244  1  0.76270312  0.37439787  0.16716740  1
  O  O245  1  0.75755858  0.36816209  0.41027396  1
  O  O246  1  0.74366337  0.37176361  0.65898856  1
  O  O247  1  0.75419016  0.37353019  0.91183076  1
  O  O248  1  0.75404319  0.62758406  0.16863207  1
  O  O249  1  0.75197111  0.62772066  0.41672048  1
  O  O250  1  0.74945704  0.62167161  0.65214428  1
  O  O251  1  0.74853811  0.62150974  0.90998596  1
  O  O252  1  0.75079020  0.87606847  0.16630011  1
  O  O253  1  0.75669421  0.88083971  0.41583793  1
  O  O254  1  0.74948766  0.87917323  0.66025207  1
  O  O255  1  0.74365439  0.87652129  0.90877249  1
  O  O256  1  0.12193224  0.12852721  0.04868795  1
  O  O257  1  0.12508320  0.12248345  0.29871449  1
  O  O258  1  0.12600800  0.12346678  0.55294813  1
  O  O259  1  0.11694397  0.12815244  0.78599961  1
  O  O260  1  0.12131689  0.37627821  0.05086230  1
  O  O261  1  0.12238016  0.37175414  0.30106807  1
  O  O262  1  0.12473095  0.36699025  0.54077183  1
  O  O263  1  0.12206031  0.37949605  0.79852418  1
  O  O264  1  0.12555764  0.62295313  0.05064668  1
  O  O265  1  0.11642329  0.62821745  0.29689835  1
  O  O266  1  0.13158160  0.62947989  0.52507274  1
  O  O267  1  0.12259710  0.61916659  0.79454587  1
  O  O268  1  0.12571293  0.87788406  0.03230587  1
  O  O269  1  0.12129605  0.88108693  0.29942488  1
  O  O270  1  0.12729719  0.88084254  0.54961173  1
  O  O271  1  0.13049003  0.88303392  0.78622040  1
  O  O272  1  0.37776441  0.13218355  0.03547574  1
  O  O273  1  0.37231024  0.11783746  0.29851455  1
  O  O274  1  0.37097892  0.12440091  0.53306072  1
  O  O275  1  0.37709107  0.13006128  0.79895590  1
  O  O276  1  0.36751350  0.37111024  0.04059592  1
  O  O277  1  0.36179415  0.37841333  0.28665871  1
  O  O278  1  0.36767869  0.36917842  0.52926727  1
  O  O279  1  0.36677262  0.37374241  0.78438577  1
  O  O280  1  0.37395201  0.62669217  0.05103932  1
  O  O281  1  0.37409397  0.62867368  0.29762037  1
  O  O282  1  0.36793914  0.63138624  0.53622324  1
  O  O283  1  0.37673738  0.61931573  0.77954160  1
  O  O284  1  0.37811652  0.87012801  0.05040894  1
  O  O285  1  0.37199026  0.87933019  0.28478666  1
  O  O286  1  0.37041708  0.88011062  0.54777292  1
  O  O287  1  0.36964543  0.87534359  0.78285480  1
  O  O288  1  0.62967860  0.12028223  0.03198956  1
  O  O289  1  0.62922287  0.11951976  0.30222877  1
  O  O290  1  0.61854961  0.12324397  0.53027258  1
  O  O291  1  0.62631823  0.12988824  0.79048572  1
  O  O292  1  0.63314782  0.37931414  0.04104640  1
  O  O293  1  0.63000621  0.37517112  0.28114192  1
  O  O294  1  0.62804122  0.36838477  0.53916228  1
  O  O295  1  0.62744777  0.37265036  0.79696641  1
  O  O296  1  0.62825849  0.62140573  0.03845560  1
  O  O297  1  0.62847360  0.63346262  0.29246613  1
  O  O298  1  0.61988915  0.62801667  0.52597618  1
  O  O299  1  0.61838324  0.61873854  0.77886539  1
  O  O300  1  0.62883529  0.87119570  0.04996143  1
  O  O301  1  0.62703142  0.87683723  0.30682048  1
  O  O302  1  0.62934357  0.88066152  0.52761697  1
  O  O303  1  0.62377455  0.87983092  0.79256566  1
  O  O304  1  0.87674355  0.12395557  0.04870816  1
  O  O305  1  0.87637559  0.12169359  0.29943671  1
  O  O306  1  0.87991763  0.12670955  0.54692939  1
  O  O307  1  0.87384222  0.13172140  0.79769160  1
  O  O308  1  0.87942798  0.37497574  0.05128820  1
  O  O309  1  0.88226242  0.36885668  0.30326581  1
  O  O310  1  0.87534952  0.36238901  0.53190520  1
  O  O311  1  0.87268736  0.37253915  0.79787282  1
  O  O312  1  0.88113975  0.62762650  0.03763219  1
  O  O313  1  0.88373548  0.63068550  0.29425303  1
  O  O314  1  0.87911150  0.62246731  0.52627980  1
  O  O315  1  0.88125574  0.61757350  0.78201069  1
  O  O316  1  0.87092367  0.87398591  0.04773459  1
  O  O317  1  0.87796666  0.87945452  0.30380793  1
  O  O318  1  0.87906598  0.88613744  0.54060515  1
  O  O319  1  0.87430198  0.87296887  0.77562764  1
