# generated using pymatgen
data_VFe(PbO3)2
_symmetry_space_group_name_H-M   'P 1'
_cell_length_a   15.38868412
_cell_length_b   15.37678594
_cell_length_c   18.53107062
_cell_angle_alpha   90.00058028
_cell_angle_beta   89.95816262
_cell_angle_gamma   89.99410086
_symmetry_Int_Tables_number   1
_chemical_formula_structural   VFe(PbO3)2
_chemical_formula_sum   'V32 Fe32 Pb64 O192'
_cell_volume   4384.97828224
_cell_formula_units_Z   32
loop_
 _symmetry_equiv_pos_site_id
 _symmetry_equiv_pos_as_xyz
  1  'x, y, z'
loop_
 _atom_site_type_symbol
 _atom_site_label
 _atom_site_symmetry_multiplicity
 _atom_site_fract_x
 _atom_site_fract_y
 _atom_site_fract_z
 _atom_site_occupancy
  V  V0  1  0.87311569  0.62567376  0.63915441  1
  V  V1  1  0.37583247  0.12480097  0.13657572  1
  V  V2  1  0.62586023  0.37546986  0.88871243  1
  V  V3  1  0.37598336  0.87516388  0.39453199  1
  V  V4  1  0.62785117  0.12408113  0.64168082  1
  V  V5  1  0.37171826  0.37587756  0.39248971  1
  V  V6  1  0.62374931  0.37379443  0.13558359  1
  V  V7  1  0.12085726  0.62590971  0.88512895  1
  V  V8  1  0.62169589  0.62612765  0.13983172  1
  V  V9  1  0.86838807  0.37689344  0.38713488  1
  V  V10  1  0.12753930  0.62369380  0.39382244  1
  V  V11  1  0.87619234  0.87570477  0.89048215  1
  V  V12  1  0.62620939  0.86938042  0.64234134  1
  V  V13  1  0.12344388  0.12423976  0.88339143  1
  V  V14  1  0.62707511  0.87730876  0.14398063  1
  V  V15  1  0.37853840  0.37597182  0.64876354  1
  V  V16  1  0.87819091  0.12293142  0.89116127  1
  V  V17  1  0.87573068  0.37386089  0.89178243  1
  V  V18  1  0.37471458  0.87675886  0.88231081  1
  V  V19  1  0.62236256  0.12682919  0.38777102  1
  V  V20  1  0.37178777  0.62340563  0.38814844  1
  V  V21  1  0.87084077  0.87454330  0.63350999  1
  V  V22  1  0.62520265  0.62102863  0.64268207  1
  V  V23  1  0.12590206  0.37731080  0.13783142  1
  V  V24  1  0.12375708  0.37527564  0.39405089  1
  V  V25  1  0.62572875  0.37617493  0.64227916  1
  V  V26  1  0.86886247  0.37445204  0.63899869  1
  V  V27  1  0.37514043  0.62764297  0.64553756  1
  V  V28  1  0.37558542  0.12655871  0.39467655  1
  V  V29  1  0.37483026  0.87527979  0.13927036  1
  V  V30  1  0.12810810  0.62829017  0.13654807  1
  V  V31  1  0.12805788  0.12645354  0.14027705  1
  Fe  Fe32  1  0.62228614  0.12424307  0.12960106  1
  Fe  Fe33  1  0.87534698  0.12808908  0.38972846  1
  Fe  Fe34  1  0.62859416  0.62665208  0.88763061  1
  Fe  Fe35  1  0.12413400  0.37932144  0.64784428  1
  Fe  Fe36  1  0.87533859  0.62677927  0.88689434  1
  Fe  Fe37  1  0.11959552  0.37455403  0.87636412  1
  Fe  Fe38  1  0.12233024  0.12558825  0.62824726  1
  Fe  Fe39  1  0.61818442  0.37200607  0.38351748  1
  Fe  Fe40  1  0.87730869  0.62290551  0.14148735  1
  Fe  Fe41  1  0.62071828  0.62175254  0.38084651  1
  Fe  Fe42  1  0.12127650  0.87520934  0.88746024  1
  Fe  Fe43  1  0.37289365  0.37387287  0.88184151  1
  Fe  Fe44  1  0.62174038  0.87509380  0.37898613  1
  Fe  Fe45  1  0.62781419  0.87518812  0.88490604  1
  Fe  Fe46  1  0.37984839  0.87261698  0.63461058  1
  Fe  Fe47  1  0.62876429  0.12419480  0.89347408  1
  Fe  Fe48  1  0.37387019  0.62494280  0.13172083  1
  Fe  Fe49  1  0.87067425  0.12378850  0.62929369  1
  Fe  Fe50  1  0.37338912  0.62780500  0.88654961  1
  Fe  Fe51  1  0.87652057  0.62012571  0.38067646  1
  Fe  Fe52  1  0.37773192  0.12354769  0.64409451  1
  Fe  Fe53  1  0.87690181  0.37463095  0.13478996  1
  Fe  Fe54  1  0.12275961  0.62419703  0.63559244  1
  Fe  Fe55  1  0.87478344  0.87357969  0.37811177  1
  Fe  Fe56  1  0.12858799  0.12748351  0.39552427  1
  Fe  Fe57  1  0.37343515  0.12262508  0.87536368  1
  Fe  Fe58  1  0.87847719  0.87529728  0.14529509  1
  Fe  Fe59  1  0.87488986  0.12702615  0.13727506  1
  Fe  Fe60  1  0.13003793  0.87762404  0.13439828  1
  Fe  Fe61  1  0.37219592  0.37359071  0.13068762  1
  Fe  Fe62  1  0.12450944  0.87163683  0.62695088  1
  Fe  Fe63  1  0.12748676  0.87480526  0.39381744  1
  Pb  Pb64  1  -0.00805517  -0.00541451  0.00775528  1
  Pb  Pb65  1  0.00214772  -0.00340100  0.25219892  1
  Pb  Pb66  1  0.00111584  0.00246571  0.49062715  1
  Pb  Pb67  1  0.00460943  -0.00070344  0.73758424  1
  Pb  Pb68  1  -0.00590716  0.24834477  0.00175741  1
  Pb  Pb69  1  -0.00150309  0.23938124  0.25351813  1
  Pb  Pb70  1  0.00390775  0.24472533  0.50393156  1
  Pb  Pb71  1  0.00214149  0.24911409  0.74267510  1
  Pb  Pb72  1  -0.00638887  0.50215394  0.00010032  1
  Pb  Pb73  1  -0.00458791  0.50227540  0.24971843  1
  Pb  Pb74  1  0.01010479  0.49781330  0.50859962  1
  Pb  Pb75  1  0.00145076  0.50064510  0.74988646  1
  Pb  Pb76  1  -0.00986075  0.75427295  0.00690386  1
  Pb  Pb77  1  -0.00187818  0.75991675  0.25096696  1
  Pb  Pb78  1  -0.00042660  0.75239832  0.49325667  1
  Pb  Pb79  1  0.00216504  0.75446328  0.74719021  1
  Pb  Pb80  1  0.24295559  -0.00362897  -0.00574296  1
  Pb  Pb81  1  0.23862120  0.00170085  0.25914691  1
  Pb  Pb82  1  0.24530011  0.00063210  0.50596097  1
  Pb  Pb83  1  0.24953238  -0.00090863  0.73662722  1
  Pb  Pb84  1  0.25466282  0.25643868  -0.01119717  1
  Pb  Pb85  1  0.24595428  0.24263046  0.25259291  1
  Pb  Pb86  1  0.24921586  0.24544217  0.51103089  1
  Pb  Pb87  1  0.24707143  0.24693265  0.74551155  1
  Pb  Pb88  1  0.25477820  0.49728955  -0.00800364  1
  Pb  Pb89  1  0.25574410  0.49911534  0.24489541  1
  Pb  Pb90  1  0.24131457  0.49802717  0.51280480  1
  Pb  Pb91  1  0.25720146  0.50207968  0.75605177  1
  Pb  Pb92  1  0.24281508  0.75338120  -0.00413457  1
  Pb  Pb93  1  0.24598398  0.75922552  0.25183824  1
  Pb  Pb94  1  0.25089109  0.75476590  0.50614980  1
  Pb  Pb95  1  0.24012966  0.76174708  0.74835517  1
  Pb  Pb96  1  0.50404817  0.00493030  -0.00656456  1
  Pb  Pb97  1  0.50049330  -0.00418572  0.24927472  1
  Pb  Pb98  1  0.49055064  -0.00001434  0.50681539  1
  Pb  Pb99  1  0.50361837  0.00095829  0.75217846  1
  Pb  Pb100  1  0.49852995  0.24559833  -0.00797867  1
  Pb  Pb101  1  0.50304079  0.25517225  0.24529623  1
  Pb  Pb102  1  0.49342502  0.24485280  0.50694386  1
  Pb  Pb103  1  0.49539385  0.24691072  0.75738943  1
  Pb  Pb104  1  0.48769827  0.50352875  -0.00223949  1
  Pb  Pb105  1  0.50410004  0.49827787  0.24774300  1
  Pb  Pb106  1  0.49840645  0.49952694  0.49830016  1
  Pb  Pb107  1  0.49491806  0.50175554  0.76084320  1
  Pb  Pb108  1  0.49789564  0.74625325  -0.00580826  1
  Pb  Pb109  1  0.50648397  0.74813986  0.25216927  1
  Pb  Pb110  1  0.49953124  0.75195030  0.49772212  1
  Pb  Pb111  1  0.50366579  0.73999851  0.75771283  1
  Pb  Pb112  1  0.75166307  0.00379241  0.00401386  1
  Pb  Pb113  1  0.76290544  0.00819271  0.25075941  1
  Pb  Pb114  1  0.75403843  -0.00275535  0.49057748  1
  Pb  Pb115  1  0.74039943  -0.00094908  0.75571863  1
  Pb  Pb116  1  0.75613267  0.24645421  0.00487581  1
  Pb  Pb117  1  0.75348873  0.24674774  0.24570953  1
  Pb  Pb118  1  0.75120560  0.24468231  0.50077700  1
  Pb  Pb119  1  0.74275674  0.24403016  0.75454953  1
  Pb  Pb120  1  0.75827633  0.50310591  0.00225358  1
  Pb  Pb121  1  0.74724767  0.50487417  0.24836976  1
  Pb  Pb122  1  0.74439918  0.50343417  0.49302094  1
  Pb  Pb123  1  0.75321841  0.50997451  0.75583409  1
  Pb  Pb124  1  0.75436563  0.74915686  0.00149655  1
  Pb  Pb125  1  0.75704615  0.74844196  0.25109811  1
  Pb  Pb126  1  0.74816289  0.74794133  0.48429437  1
  Pb  Pb127  1  0.74949509  0.74507072  0.75559459  1
  O  O128  1  0.13060127  0.00782709  0.16420050  1
  O  O129  1  0.13041072  0.00061978  0.41638443  1
  O  O130  1  0.12191044  -0.00249668  0.65366205  1
  O  O131  1  0.12088217  0.00692591  0.91276910  1
  O  O132  1  0.12971906  0.24803693  0.16465666  1
  O  O133  1  0.13246558  0.26042192  0.41843080  1
  O  O134  1  0.12219791  0.25131436  0.66100004  1
  O  O135  1  0.11873183  0.24147352  0.90682253  1
  O  O136  1  0.12846918  0.49684048  0.15935848  1
  O  O137  1  0.13191693  0.49698641  0.41989193  1
  O  O138  1  0.12434729  0.50511890  0.67315025  1
  O  O139  1  0.12026303  0.50614929  0.90439718  1
  O  O140  1  0.13046990  0.74484259  0.15944646  1
  O  O141  1  0.13059340  0.74010648  0.41253701  1
  O  O142  1  0.12203612  0.74862631  0.66350512  1
  O  O143  1  0.12225838  0.74527717  0.91458674  1
  O  O144  1  0.37535125  -0.00254641  0.16583810  1
  O  O145  1  0.37743170  -0.00200016  0.41693859  1
  O  O146  1  0.38130414  -0.00331400  0.66342632  1
  O  O147  1  0.37191578  -0.00485370  0.90639808  1
  O  O148  1  0.37340746  0.24518064  0.16130957  1
  O  O149  1  0.37388360  0.25449478  0.41994402  1
  O  O150  1  0.38139576  0.25740086  0.66554488  1
  O  O151  1  0.37372069  0.24747664  0.90695087  1
  O  O152  1  0.37292505  0.49881404  0.16261851  1
  O  O153  1  0.37348278  0.49555179  0.41512671  1
  O  O154  1  0.38195615  0.50264002  0.67006785  1
  O  O155  1  0.37350571  0.49949574  0.91048174  1
  O  O156  1  0.37331497  0.75674450  0.16149408  1
  O  O157  1  0.37609400  0.74996830  0.41422266  1
  O  O158  1  0.38344181  0.74395971  0.66500581  1
  O  O159  1  0.37214362  0.75807968  0.90973964  1
  O  O160  1  0.61937362  -0.00548733  0.16121561  1
  O  O161  1  0.62036047  0.00964352  0.41008546  1
  O  O162  1  0.62856072  0.00239469  0.66251709  1
  O  O163  1  0.62888570  -0.00342688  0.91941140  1
  O  O164  1  0.62052178  0.25530510  0.15654290  1
  O  O165  1  0.61906090  0.24537289  0.41620294  1
  O  O166  1  0.62861178  0.24942045  0.66718519  1
  O  O167  1  0.63124154  0.25764279  0.91627615  1
  O  O168  1  0.62009559  0.50093101  0.15962585  1
  O  O169  1  0.61931817  0.49597482  0.41625836  1
  O  O170  1  0.62754550  0.49982412  0.66811839  1
  O  O171  1  0.63254022  0.49111235  0.91237833  1
  O  O172  1  0.62065581  0.74867423  0.16364129  1
  O  O173  1  0.62022301  0.74800439  0.40877628  1
  O  O174  1  0.62695402  0.75147592  0.66272173  1
  O  O175  1  0.62772321  0.75315472  0.91844870  1
  O  O176  1  0.87738018  0.00323626  0.16717138  1
  O  O177  1  0.87323987  0.00074207  0.40900210  1
  O  O178  1  0.86955121  -0.00838790  0.65564465  1
  O  O179  1  0.87728998  -0.00131091  0.91671633  1
  O  O180  1  0.87678251  0.25244544  0.16793309  1
  O  O181  1  0.87704468  0.26344782  0.41671170  1
  O  O182  1  0.86918708  0.25695959  0.65968812  1
  O  O183  1  0.87739415  0.25041037  0.91464470  1
  O  O184  1  0.87820876  0.49650963  0.16711590  1
  O  O185  1  0.87945489  0.49066545  0.41568476  1
  O  O186  1  0.86756059  0.49950562  0.66488222  1
  O  O187  1  0.87599658  0.49413868  0.91232058  1
  O  O188  1  0.87608916  0.74699339  0.16681445  1
  O  O189  1  0.87553853  0.74515307  0.40705465  1
  O  O190  1  0.86799184  0.75436043  0.66152723  1
  O  O191  1  0.87713907  0.75664620  0.91378962  1
  O  O192  1  0.01065658  0.12729135  0.16272895  1
  O  O193  1  0.00078499  0.13276172  0.41381049  1
  O  O194  1  -0.00585813  0.12472374  0.65665046  1
  O  O195  1  -0.00036798  0.12337471  0.91610910  1
  O  O196  1  0.01181040  0.37166922  0.16556622  1
  O  O197  1  0.00796952  0.37705678  0.41316223  1
  O  O198  1  -0.01420343  0.37975599  0.66272688  1
  O  O199  1  -0.00493714  0.37334962  0.91234122  1
  O  O200  1  0.01374844  0.62210474  0.16467257  1
  O  O201  1  0.00946197  0.61790791  0.41096371  1
  O  O202  1  -0.00824804  0.62554459  0.66146499  1
  O  O203  1  0.00304201  0.62612802  0.91334618  1
  O  O204  1  0.00821573  0.87660257  0.16696036  1
  O  O205  1  -0.00010628  0.87132256  0.41100467  1
  O  O206  1  -0.01083699  0.87141016  0.65332083  1
  O  O207  1  -0.00587239  0.87718570  0.91710268  1
  O  O208  1  0.25088779  0.12539990  0.16790924  1
  O  O209  1  0.25845279  0.12766427  0.42115491  1
  O  O210  1  0.24890033  0.12724806  0.65927177  1
  O  O211  1  0.24126472  0.12372940  0.90197560  1
  O  O212  1  0.24308616  0.37196112  0.16475645  1
  O  O213  1  0.25422270  0.37599868  0.42116585  1
  O  O214  1  0.26015536  0.37972247  0.66498560  1
  O  O215  1  0.24336315  0.37358913  0.90498349  1
  O  O216  1  0.24465342  0.62275918  0.16414761  1
  O  O217  1  0.25180530  0.62126299  0.42119828  1
  O  O218  1  0.25903790  0.62371892  0.66284890  1
  O  O219  1  0.24094823  0.62637772  0.90683091  1
  O  O220  1  0.25647360  0.87726366  0.16724393  1
  O  O221  1  0.25976660  0.87299575  0.41846372  1
  O  O222  1  0.25169281  0.87071380  0.65738409  1
  O  O223  1  0.25300266  0.87656554  0.90984049  1
  O  O224  1  0.49544874  0.12322392  0.16146776  1
  O  O225  1  0.49972010  0.12744899  0.42014340  1
  O  O226  1  0.51209755  0.12686815  0.66618637  1
  O  O227  1  0.49884350  0.12420378  0.90941401  1
  O  O228  1  0.50258704  0.37572076  0.15951201  1
  O  O229  1  0.48961624  0.37379695  0.41735863  1
  O  O230  1  0.50343289  0.37696984  0.67084746  1
  O  O231  1  0.50853123  0.37372249  0.90635873  1
  O  O232  1  0.50225424  0.62584065  0.16129297  1
  O  O233  1  0.49128724  0.62146619  0.41517523  1
  O  O234  1  0.50299566  0.62439879  0.66975211  1
  O  O235  1  0.50209876  0.62514977  0.91349800  1
  O  O236  1  0.49505699  0.87443746  0.16533243  1
  O  O237  1  0.49584780  0.87547347  0.41622908  1
  O  O238  1  0.51111096  0.87559057  0.66518280  1
  O  O239  1  0.49206649  0.87627729  0.90704209  1
  O  O240  1  0.74522745  0.12626913  0.16211902  1
  O  O241  1  0.74066379  0.13075700  0.41045759  1
  O  O242  1  0.74645665  0.12564630  0.66649344  1
  O  O243  1  0.75912726  0.12501013  0.91762971  1
  O  O244  1  0.74134127  0.37773171  0.15822862  1
  O  O245  1  0.75211131  0.37654334  0.40455258  1
  O  O246  1  0.75034080  0.37649129  0.66934494  1
  O  O247  1  0.75582055  0.37250961  0.91657467  1
  O  O248  1  0.74106134  0.62296134  0.16170160  1
  O  O249  1  0.74930582  0.61745300  0.40873798  1
  O  O250  1  0.74868941  0.62665585  0.66861386  1
  O  O251  1  0.75254291  0.62467535  0.92068088  1
  O  O252  1  0.74197264  0.87314914  0.16241409  1
  O  O253  1  0.74670034  0.87554615  0.40635249  1
  O  O254  1  0.74752490  0.87493500  0.66491643  1
  O  O255  1  0.75966679  0.87711348  0.91561528  1
  O  O256  1  0.13143160  0.12731356  0.04986371  1
  O  O257  1  0.13516665  0.12915710  0.29385267  1
  O  O258  1  0.12749015  0.13220603  0.52688532  1
  O  O259  1  0.11549128  0.12142935  0.79219008  1
  O  O260  1  0.12499798  0.37413934  0.04702473  1
  O  O261  1  0.12803758  0.37676482  0.30342399  1
  O  O262  1  0.12411475  0.38837041  0.54585328  1
  O  O263  1  0.11524161  0.37241716  0.77583384  1
  O  O264  1  0.12754762  0.62658836  0.04568524  1
  O  O265  1  0.13379536  0.61826691  0.30337328  1
  O  O266  1  0.12495027  0.61370127  0.53564396  1
  O  O267  1  0.11717658  0.63212677  0.79388682  1
  O  O268  1  0.13454409  0.87841443  0.03405245  1
  O  O269  1  0.13713648  0.87493672  0.29187743  1
  O  O270  1  0.12945454  0.86506621  0.52596988  1
  O  O271  1  0.11968512  0.86939457  0.78731672  1
  O  O272  1  0.37175039  0.12288608  0.04572292  1
  O  O273  1  0.37697992  0.12725655  0.30372756  1
  O  O274  1  0.38525966  0.12806566  0.54214997  1
  O  O275  1  0.37952147  0.12710921  0.77485471  1
  O  O276  1  0.36656288  0.37572779  0.03091237  1
  O  O277  1  0.37072656  0.37387566  0.30158980  1
  O  O278  1  0.38275164  0.37964327  0.55748032  1
  O  O279  1  0.38050354  0.38048371  0.78135831  1
  O  O280  1  0.37526063  0.62142101  0.03187572  1
  O  O281  1  0.36918968  0.62321923  0.29713202  1
  O  O282  1  0.38008920  0.62309485  0.55462133  1
  O  O283  1  0.38190663  0.62286645  0.78603747  1
  O  O284  1  0.37406039  0.87851402  0.04879779  1
  O  O285  1  0.37517762  0.87568436  0.30336468  1
  O  O286  1  0.38420252  0.87040451  0.53468126  1
  O  O287  1  0.37354512  0.87454905  0.79119034  1
  O  O288  1  0.62386320  0.12404775  0.02945610  1
  O  O289  1  0.61731508  0.13027346  0.29694558  1
  O  O290  1  0.62912263  0.12695544  0.55075040  1
  O  O291  1  0.63591812  0.12237889  0.79241912  1
  O  O292  1  0.62257718  0.37700655  0.04511839  1
  O  O293  1  0.61297946  0.37313359  0.28441755  1
  O  O294  1  0.62469348  0.37487996  0.55152232  1
  O  O295  1  0.63223991  0.37207472  0.79751909  1
  O  O296  1  0.62230472  0.62756168  0.04897765  1
  O  O297  1  0.61754026  0.61938083  0.28099324  1
  O  O298  1  0.62573776  0.62079637  0.55176517  1
  O  O299  1  0.63165510  0.63223527  0.78677760  1
  O  O300  1  0.62177757  0.87315840  0.05334352  1
  O  O301  1  0.61232039  0.87361876  0.27942985  1
  O  O302  1  0.62686288  0.87336720  0.55152291  1
  O  O303  1  0.63057349  0.88170527  0.78490406  1
  O  O304  1  0.87908728  0.12895861  0.03664968  1
  O  O305  1  0.87064952  0.13337286  0.28857839  1
  O  O306  1  0.86414279  0.13205257  0.52917507  1
  O  O307  1  0.87771919  0.12181867  0.80019914  1
  O  O308  1  0.88118475  0.37387816  0.03496874  1
  O  O309  1  0.87763326  0.37604352  0.29616261  1
  O  O310  1  0.86633845  0.37748736  0.54819031  1
  O  O311  1  0.87311457  0.37210681  0.80109926  1
  O  O312  1  0.88131451  0.62029054  0.03988012  1
  O  O313  1  0.87505700  0.61499002  0.28056790  1
  O  O314  1  0.87011890  0.62366736  0.54823802  1
  O  O315  1  0.86546721  0.62784360  0.78715091  1
  O  O316  1  0.88354351  0.87459492  0.04361670  1
  O  O317  1  0.87718189  0.87350370  0.27641999  1
  O  O318  1  0.86507096  0.87127593  0.54273451  1
  O  O319  1  0.87746929  0.87772293  0.79962181  1
