# generated using pymatgen
data_VFe(PbO3)2
_symmetry_space_group_name_H-M   'P 1'
_cell_length_a   15.39313896
_cell_length_b   15.39936749
_cell_length_c   18.51294310
_cell_angle_alpha   89.96502984
_cell_angle_beta   90.05057431
_cell_angle_gamma   90.02098662
_symmetry_Int_Tables_number   1
_chemical_formula_structural   VFe(PbO3)2
_chemical_formula_sum   'V32 Fe32 Pb64 O192'
_cell_volume   4388.39044195
_cell_formula_units_Z   32
loop_
 _symmetry_equiv_pos_site_id
 _symmetry_equiv_pos_as_xyz
  1  'x, y, z'
loop_
 _atom_site_type_symbol
 _atom_site_label
 _atom_site_symmetry_multiplicity
 _atom_site_fract_x
 _atom_site_fract_y
 _atom_site_fract_z
 _atom_site_occupancy
  V  V0  1  0.88091144  0.87291125  0.64914192  1
  V  V1  1  0.62148656  0.11724955  0.65037460  1
  V  V2  1  0.12482096  0.12883984  0.88806882  1
  V  V3  1  0.12562126  0.62384883  0.38376942  1
  V  V4  1  0.37652309  0.37741025  0.38819301  1
  V  V5  1  0.62742453  0.86117970  0.65553146  1
  V  V6  1  0.37225589  0.37250625  0.89730573  1
  V  V7  1  0.37501258  0.12602131  0.88544827  1
  V  V8  1  0.37542885  0.87495628  0.64770043  1
  V  V9  1  0.62609639  0.87662340  0.39492942  1
  V  V10  1  0.12152761  0.12561441  0.38980262  1
  V  V11  1  0.37086098  0.37785329  0.64039864  1
  V  V12  1  0.12335136  0.62050087  0.64741670  1
  V  V13  1  0.38096276  0.87750619  0.13550919  1
  V  V14  1  0.12543865  0.12094237  0.64089824  1
  V  V15  1  0.37561095  0.12436052  0.39601916  1
  V  V16  1  0.87709474  0.12221404  0.13655492  1
  V  V17  1  0.87649877  0.37575537  0.39021554  1
  V  V18  1  0.12784032  0.37200861  0.64111939  1
  V  V19  1  0.12810726  0.86848420  0.65192187  1
  V  V20  1  0.37683559  0.87251761  0.39112561  1
  V  V21  1  0.62476773  0.37530397  0.88824258  1
  V  V22  1  0.37534798  0.12152949  0.13707490  1
  V  V23  1  0.62230358  0.62364781  0.88299468  1
  V  V24  1  0.62701387  0.62956981  0.13378589  1
  V  V25  1  0.62750795  0.12035905  0.13966880  1
  V  V26  1  0.62450759  0.62424205  0.39196286  1
  V  V27  1  0.63651216  0.38135660  0.63663735  1
  V  V28  1  0.12534430  0.37556733  0.89878625  1
  V  V29  1  0.62744764  0.37460494  0.39040226  1
  V  V30  1  0.37152089  0.62434732  0.64341067  1
  V  V31  1  0.86978873  0.87647423  0.13397912  1
  Fe  Fe32  1  0.12624852  0.87495861  0.38503187  1
  Fe  Fe33  1  0.37827312  0.62715905  0.12563045  1
  Fe  Fe34  1  0.12429443  0.12030669  0.13142737  1
  Fe  Fe35  1  0.87568885  0.62347145  0.63995129  1
  Fe  Fe36  1  0.87572243  0.62618125  0.38457872  1
  Fe  Fe37  1  0.87216279  0.62736454  0.12451074  1
  Fe  Fe38  1  0.12450373  0.37191141  0.12875421  1
  Fe  Fe39  1  0.87612878  0.37295774  0.89333861  1
  Fe  Fe40  1  0.12433891  0.62889775  0.12297081  1
  Fe  Fe41  1  0.87281657  0.12432701  0.38732496  1
  Fe  Fe42  1  0.38085370  0.37186148  0.13184367  1
  Fe  Fe43  1  0.37438257  0.87755994  0.88089004  1
  Fe  Fe44  1  0.87011761  0.37151712  0.12693958  1
  Fe  Fe45  1  0.87260225  0.12707921  0.87559654  1
  Fe  Fe46  1  0.12470643  0.37292923  0.38327334  1
  Fe  Fe47  1  0.62246146  0.87557133  0.87218121  1
  Fe  Fe48  1  0.62543812  0.87556383  0.13298606  1
  Fe  Fe49  1  0.87534221  0.87364147  0.38917112  1
  Fe  Fe50  1  0.37725705  0.62318419  0.89848928  1
  Fe  Fe51  1  0.88318191  0.37782112  0.63834010  1
  Fe  Fe52  1  0.37175498  0.12699372  0.63641409  1
  Fe  Fe53  1  0.62560327  0.37429794  0.13432385  1
  Fe  Fe54  1  0.37606201  0.62643446  0.38307579  1
  Fe  Fe55  1  0.87576664  0.87780350  0.87633901  1
  Fe  Fe56  1  0.87331073  0.62482109  0.89634821  1
  Fe  Fe57  1  0.62391899  0.61909763  0.64328429  1
  Fe  Fe58  1  0.62441081  0.12639742  0.39050200  1
  Fe  Fe59  1  0.12329256  0.87898597  0.13404125  1
  Fe  Fe60  1  0.12642287  0.62423697  0.89659060  1
  Fe  Fe61  1  0.12733467  0.87792214  0.87737170  1
  Fe  Fe62  1  0.62110717  0.13019846  0.87182790  1
  Fe  Fe63  1  0.87582233  0.12637600  0.64841774  1
  Pb  Pb64  1  0.00553170  -0.00267816  -0.00836486  1
  Pb  Pb65  1  -0.00075418  -0.00915029  0.25118104  1
  Pb  Pb66  1  -0.00357490  -0.00162068  0.50021655  1
  Pb  Pb67  1  0.00039187  -0.00728513  0.75476472  1
  Pb  Pb68  1  -0.00159709  0.25325332  0.00207736  1
  Pb  Pb69  1  0.00462808  0.25643025  0.24390760  1
  Pb  Pb70  1  -0.01074623  0.25164095  0.50521170  1
  Pb  Pb71  1  -0.01241086  0.25391471  0.75648759  1
  Pb  Pb72  1  -0.00501318  0.50992462  0.00205300  1
  Pb  Pb73  1  -0.00087889  0.50199867  0.23165113  1
  Pb  Pb74  1  -0.00800498  0.50027185  0.50203123  1
  Pb  Pb75  1  -0.00821439  0.49828821  0.76332946  1
  Pb  Pb76  1  0.00599940  0.75514896  -0.01121457  1
  Pb  Pb77  1  -0.00184433  0.74722134  0.24001984  1
  Pb  Pb78  1  -0.00206659  0.74809335  0.49732661  1
  Pb  Pb79  1  0.00533856  0.73500159  0.76525304  1
  Pb  Pb80  1  0.24127860  -0.00235131  -0.00101298  1
  Pb  Pb81  1  0.24527818  -0.00567182  0.24911184  1
  Pb  Pb82  1  0.25183961  0.00101217  0.50272564  1
  Pb  Pb83  1  0.25064955  -0.00784486  0.75403297  1
  Pb  Pb84  1  0.24466078  0.24789563  0.00748974  1
  Pb  Pb85  1  0.24281853  0.25785851  0.24477146  1
  Pb  Pb86  1  0.25295628  0.24589494  0.50046224  1
  Pb  Pb87  1  0.24699986  0.25104452  0.75364833  1
  Pb  Pb88  1  0.25210912  0.50779657  0.00651556  1
  Pb  Pb89  1  0.25010079  0.50189868  0.23257957  1
  Pb  Pb90  1  0.24833573  0.49897372  0.49362635  1
  Pb  Pb91  1  0.24663288  0.51048867  0.76368905  1
  Pb  Pb92  1  0.24882307  0.75137607  -0.00848244  1
  Pb  Pb93  1  0.24853529  0.74592376  0.23817492  1
  Pb  Pb94  1  0.25003521  0.74966282  0.49721765  1
  Pb  Pb95  1  0.24773168  0.73911156  0.76574735  1
  Pb  Pb96  1  0.51079513  -0.00584272  -0.00943074  1
  Pb  Pb97  1  0.50746396  0.00435783  0.25296401  1
  Pb  Pb98  1  0.49793904  0.00071392  0.50612364  1
  Pb  Pb99  1  0.49631210  -0.00700464  0.75507651  1
  Pb  Pb100  1  0.50230636  0.25484437  0.00184849  1
  Pb  Pb101  1  0.50549232  0.24545094  0.24908812  1
  Pb  Pb102  1  0.49914105  0.24813804  0.50373778  1
  Pb  Pb103  1  0.50142861  0.25129515  0.75006852  1
  Pb  Pb104  1  0.50176238  0.49021538  0.00530759  1
  Pb  Pb105  1  0.49537751  0.50346952  0.24220596  1
  Pb  Pb106  1  0.50772141  0.50376828  0.50308616  1
  Pb  Pb107  1  0.48857500  0.50434858  0.75610060  1
  Pb  Pb108  1  0.50020582  0.75465718  -0.00820144  1
  Pb  Pb109  1  0.49721300  0.74478842  0.24769953  1
  Pb  Pb110  1  0.50699277  0.74404427  0.50618754  1
  Pb  Pb111  1  0.48441797  0.74562293  0.75946841  1
  Pb  Pb112  1  0.74562841  0.00185211  -0.02052774  1
  Pb  Pb113  1  0.75926355  -0.00052971  0.25620332  1
  Pb  Pb114  1  0.75981611  0.00891523  0.50709556  1
  Pb  Pb115  1  0.75366131  -0.00840732  0.75639791  1
  Pb  Pb116  1  0.75103097  0.25007172  -0.00707496  1
  Pb  Pb117  1  0.75102728  0.24045452  0.24961078  1
  Pb  Pb118  1  0.75717117  0.24617683  0.50505950  1
  Pb  Pb119  1  0.75327178  0.24578093  0.75253467  1
  Pb  Pb120  1  0.75556008  0.49734834  -0.00035616  1
  Pb  Pb121  1  0.75656128  0.50179618  0.24023713  1
  Pb  Pb122  1  0.75759395  0.50488129  0.50334262  1
  Pb  Pb123  1  0.76674305  0.50262886  0.75707852  1
  Pb  Pb124  1  0.75205784  0.75750636  -0.01134956  1
  Pb  Pb125  1  0.76057916  0.75032300  0.25089829  1
  Pb  Pb126  1  0.75257282  0.74209963  0.50421043  1
  Pb  Pb127  1  0.76387927  0.73953749  0.75830051  1
  O  O128  1  0.12552620  0.00071935  0.16931505  1
  O  O129  1  0.12791680  0.00782484  0.41753720  1
  O  O130  1  0.12656148  0.00469696  0.66332914  1
  O  O131  1  0.13048352  0.00992417  0.90651884  1
  O  O132  1  0.12532382  0.24333840  0.16191056  1
  O  O133  1  0.12792401  0.24282537  0.41558425  1
  O  O134  1  0.13033765  0.25410693  0.66027831  1
  O  O135  1  0.13113311  0.24639030  0.91682469  1
  O  O136  1  0.12491467  0.50038529  0.15207230  1
  O  O137  1  0.12801831  0.50415776  0.40799894  1
  O  O138  1  0.12885187  0.50463360  0.66744827  1
  O  O139  1  0.12977125  0.49032717  0.91459125  1
  O  O140  1  0.12535032  0.75431091  0.15739304  1
  O  O141  1  0.12818905  0.74305527  0.41278591  1
  O  O142  1  0.12712536  0.74556299  0.67344570  1
  O  O143  1  0.12672792  0.75438583  0.90577759  1
  O  O144  1  0.38185603  0.00095952  0.16694227  1
  O  O145  1  0.37784786  -0.00259816  0.42215871  1
  O  O146  1  0.37466222  -0.00312912  0.66284935  1
  O  O147  1  0.37657769  0.01100731  0.90465588  1
  O  O148  1  0.38210682  0.23733637  0.16019360  1
  O  O149  1  0.37534380  0.25317648  0.41700451  1
  O  O150  1  0.36342400  0.25962184  0.66129440  1
  O  O151  1  0.37417918  0.25030830  0.91783372  1
  O  O152  1  0.37990948  0.50065206  0.15598297  1
  O  O153  1  0.37424579  0.49465049  0.41030828  1
  O  O154  1  0.36420857  0.49897821  0.66977360  1
  O  O155  1  0.37564512  0.48915487  0.91675110  1
  O  O156  1  0.37955192  0.75908467  0.15544671  1
  O  O157  1  0.37600973  0.75202974  0.41876274  1
  O  O158  1  0.37347111  0.74961481  0.66934936  1
  O  O159  1  0.37786508  0.75260531  0.91020410  1
  O  O160  1  0.62452764  0.00312936  0.16684456  1
  O  O161  1  0.62191300  -0.00688270  0.41812766  1
  O  O162  1  0.61957406  0.00413828  0.66143529  1
  O  O163  1  0.61938590  0.00464424  0.89688781  1
  O  O164  1  0.62374171  0.23837805  0.16300692  1
  O  O165  1  0.62362215  0.25631556  0.42057195  1
  O  O166  1  0.61819957  0.27220222  0.66636624  1
  O  O167  1  0.62031992  0.25617320  0.90833823  1
  O  O168  1  0.62519651  0.50964449  0.15927527  1
  O  O169  1  0.62327458  0.49790419  0.41848388  1
  O  O170  1  0.61607944  0.49006450  0.66981096  1
  O  O171  1  0.62212045  0.49479298  0.91236033  1
  O  O172  1  0.62556044  0.74705084  0.16177135  1
  O  O173  1  0.62303080  0.75055379  0.42111025  1
  O  O174  1  0.62030881  0.74751721  0.66978577  1
  O  O175  1  0.62111047  0.74307768  0.89701360  1
  O  O176  1  0.86873055  0.00067321  0.16349336  1
  O  O177  1  0.87360327  -0.00122555  0.42127848  1
  O  O178  1  0.87166755  -0.00539558  0.66546875  1
  O  O179  1  0.87447134  0.00381931  0.90304205  1
  O  O180  1  0.86911132  0.23830395  0.15806192  1
  O  O181  1  0.87496470  0.25474443  0.41599691  1
  O  O182  1  0.87914456  0.25523732  0.66610523  1
  O  O183  1  0.87614129  0.24670050  0.91265558  1
  O  O184  1  0.87100656  0.50033679  0.15276342  1
  O  O185  1  0.87656128  0.49626568  0.41259175  1
  O  O186  1  0.88245961  0.49978532  0.67235694  1
  O  O187  1  0.87198477  0.49747126  0.91571633  1
  O  O188  1  0.87133754  0.75788196  0.15516480  1
  O  O189  1  0.87382330  0.74892672  0.42031563  1
  O  O190  1  0.87306344  0.75391697  0.66742972  1
  O  O191  1  0.87220738  0.75366561  0.90835741  1
  O  O192  1  -0.00812244  0.11939226  0.15657892  1
  O  O193  1  0.00499924  0.12472742  0.41182924  1
  O  O194  1  0.01128138  0.12733189  0.66675356  1
  O  O195  1  0.00885028  0.12800846  0.90412701  1
  O  O196  1  -0.00421727  0.36953140  0.15751837  1
  O  O197  1  -0.00378823  0.37355224  0.41192714  1
  O  O198  1  0.01455826  0.37917922  0.66797384  1
  O  O199  1  0.00856874  0.36935717  0.91402527  1
  O  O200  1  -0.00253302  0.62920192  0.15349614  1
  O  O201  1  0.00837421  0.62503854  0.40887669  1
  O  O202  1  0.00689856  0.62803903  0.66860197  1
  O  O203  1  0.00047888  0.62225441  0.91176224  1
  O  O204  1  -0.01138547  0.88049321  0.15860775  1
  O  O205  1  0.00333855  0.87509955  0.41962457  1
  O  O206  1  -0.00216357  0.87570837  0.66641031  1
  O  O207  1  0.00217378  0.88109399  0.90282014  1
  O  O208  1  0.26018401  0.11891173  0.15831316  1
  O  O209  1  0.24959286  0.12413794  0.41875661  1
  O  O210  1  0.24368128  0.12644328  0.66796890  1
  O  O211  1  0.25469079  0.12969655  0.91331081  1
  O  O212  1  0.25405745  0.36997194  0.15754862  1
  O  O213  1  0.25587810  0.37340564  0.41353894  1
  O  O214  1  0.24407758  0.38051852  0.67239159  1
  O  O215  1  0.25265478  0.37000854  0.92008589  1
  O  O216  1  0.25221565  0.62887593  0.15331473  1
  O  O217  1  0.24672526  0.62449763  0.41223189  1
  O  O218  1  0.24795504  0.62724987  0.67435404  1
  O  O219  1  0.25208964  0.62083616  0.91632270  1
  O  O220  1  0.26248183  0.88094314  0.15912785  1
  O  O221  1  0.25367104  0.87560358  0.41779679  1
  O  O222  1  0.25451297  0.87462278  0.66904990  1
  O  O223  1  0.25111244  0.88103822  0.90647700  1
  O  O224  1  0.50256163  0.11966093  0.16561871  1
  O  O225  1  0.49849774  0.12545298  0.42295028  1
  O  O226  1  0.49882433  0.13544567  0.66468985  1
  O  O227  1  0.49247411  0.13312449  0.90420777  1
  O  O228  1  0.50364186  0.37166921  0.16935957  1
  O  O229  1  0.49512515  0.37459250  0.41435202  1
  O  O230  1  0.48223973  0.38017052  0.66213240  1
  O  O231  1  0.49887928  0.37296757  0.91285577  1
  O  O232  1  0.50616050  0.62960032  0.15949682  1
  O  O233  1  0.50222416  0.62409235  0.41737002  1
  O  O234  1  0.49202559  0.62068452  0.66974469  1
  O  O235  1  0.50929983  0.61897788  0.91347214  1
  O  O236  1  0.49722481  0.87776315  0.16589146  1
  O  O237  1  0.50331106  0.87280946  0.42247392  1
  O  O238  1  0.49507596  0.87366129  0.66793946  1
  O  O239  1  0.50053406  0.87674498  0.90777431  1
  O  O240  1  0.74684460  0.12085400  0.16230504  1
  O  O241  1  0.74794789  0.12631174  0.42297529  1
  O  O242  1  0.73941057  0.13404593  0.66416875  1
  O  O243  1  0.74535578  0.12908578  0.90041608  1
  O  O244  1  0.74827804  0.37141983  0.16464608  1
  O  O245  1  0.75414617  0.37650581  0.41558285  1
  O  O246  1  0.74998643  0.38202658  0.64713967  1
  O  O247  1  0.74191570  0.37292314  0.90872080  1
  O  O248  1  0.74515918  0.62881857  0.15887969  1
  O  O249  1  0.74613905  0.62328225  0.41749353  1
  O  O250  1  0.74964258  0.62126542  0.66800258  1
  O  O251  1  0.73674187  0.62171072  0.91055591  1
  O  O252  1  0.75356420  0.87739466  0.16180514  1
  O  O253  1  0.74054942  0.87244802  0.42131785  1
  O  O254  1  0.74473244  0.87492517  0.66560867  1
  O  O255  1  0.74581860  0.87621107  0.90028654  1
  O  O256  1  0.12917926  0.11668393  0.03157401  1
  O  O257  1  0.12577160  0.12426650  0.29892709  1
  O  O258  1  0.12602092  0.12423634  0.54976655  1
  O  O259  1  0.13120685  0.13373881  0.79682646  1
  O  O260  1  0.12550855  0.36207416  0.02849849  1
  O  O261  1  0.12544516  0.36316069  0.28437049  1
  O  O262  1  0.12900515  0.37798933  0.54999173  1
  O  O263  1  0.13019726  0.36948898  0.80701535  1
  O  O264  1  0.12506679  0.62700156  0.02187926  1
  O  O265  1  0.12740349  0.62756616  0.29298872  1
  O  O266  1  0.12699607  0.62343357  0.55664882  1
  O  O267  1  0.13046331  0.62565981  0.79230017  1
  O  O268  1  0.12355253  0.89010060  0.03367729  1
  O  O269  1  0.12465150  0.88173940  0.28563063  1
  O  O270  1  0.12777684  0.86998225  0.56045330  1
  O  O271  1  0.12516249  0.88566136  0.77410617  1
  O  O272  1  0.37996788  0.11768948  0.04646113  1
  O  O273  1  0.37572726  0.12163921  0.30529137  1
  O  O274  1  0.37060962  0.12631341  0.53672612  1
  O  O275  1  0.36947250  0.13318866  0.79390640  1
  O  O276  1  0.39032729  0.36973135  0.03193168  1
  O  O277  1  0.37656495  0.37370131  0.29763126  1
  O  O278  1  0.36710862  0.38232780  0.54912997  1
  O  O279  1  0.36890106  0.37097018  0.80577709  1
  O  O280  1  0.37912226  0.62533543  0.02497638  1
  O  O281  1  0.38109283  0.63155794  0.28424233  1
  O  O282  1  0.36943171  0.62305254  0.55237615  1
  O  O283  1  0.37576469  0.61988675  0.79460231  1
  O  O284  1  0.38486856  0.88355709  0.04451984  1
  O  O285  1  0.37875326  0.87405995  0.30043728  1
  O  O286  1  0.37515498  0.87069745  0.55644776  1
  O  O287  1  0.37886741  0.87971368  0.77962677  1
  O  O288  1  0.62579388  0.11954082  0.04865360  1
  O  O289  1  0.62200460  0.12648957  0.29111564  1
  O  O290  1  0.61964113  0.13203244  0.55862692  1
  O  O291  1  0.62005633  0.14006360  0.76969661  1
  O  O292  1  0.61739865  0.37084138  0.03435060  1
  O  O293  1  0.62662808  0.37451654  0.29977980  1
  O  O294  1  0.61836521  0.38282680  0.54547321  1
  O  O295  1  0.62230657  0.37762782  0.79731851  1
  O  O296  1  0.62640850  0.62993296  0.04312379  1
  O  O297  1  0.62522052  0.62661673  0.30118642  1
  O  O298  1  0.61858818  0.62050245  0.54302654  1
  O  O299  1  0.61993521  0.61429594  0.79173982  1
  O  O300  1  0.61931658  0.88048699  0.03388102  1
  O  O301  1  0.62531462  0.87306017  0.30411898  1
  O  O302  1  0.61893920  0.86868320  0.56439878  1
  O  O303  1  0.61959504  0.88336660  0.76905777  1
  O  O304  1  0.87210241  0.11868951  0.04584886  1
  O  O305  1  0.86464081  0.12137620  0.28792272  1
  O  O306  1  0.87379420  0.12817367  0.54629287  1
  O  O307  1  0.87313787  0.13375689  0.77288194  1
  O  O308  1  0.86902292  0.36617954  0.02599694  1
  O  O309  1  0.87407428  0.37405884  0.29960162  1
  O  O310  1  0.89070472  0.37890649  0.53755049  1
  O  O311  1  0.88366907  0.37838943  0.79053676  1
  O  O312  1  0.86806626  0.62509052  0.02342806  1
  O  O313  1  0.87052763  0.63269883  0.28512929  1
  O  O314  1  0.87808915  0.61599201  0.53930099  1
  O  O315  1  0.87180765  0.62165534  0.79155775  1
  O  O316  1  0.86795048  0.88004091  0.04307413  1
  O  O317  1  0.86904409  0.87621161  0.28919645  1
  O  O318  1  0.87659130  0.87236288  0.55744216  1
  O  O319  1  0.87136035  0.87703805  0.77450857  1
