# generated using pymatgen
data_VFe(PbO3)2
_symmetry_space_group_name_H-M   'P 1'
_cell_length_a   15.39239726
_cell_length_b   15.40641562
_cell_length_c   18.47675487
_cell_angle_alpha   89.98922546
_cell_angle_beta   90.00389446
_cell_angle_gamma   89.99506760
_symmetry_Int_Tables_number   1
_chemical_formula_structural   VFe(PbO3)2
_chemical_formula_sum   'V32 Fe32 Pb64 O192'
_cell_volume   4381.60839523
_cell_formula_units_Z   32
loop_
 _symmetry_equiv_pos_site_id
 _symmetry_equiv_pos_as_xyz
  1  'x, y, z'
loop_
 _atom_site_type_symbol
 _atom_site_label
 _atom_site_symmetry_multiplicity
 _atom_site_fract_x
 _atom_site_fract_y
 _atom_site_fract_z
 _atom_site_occupancy
  V  V0  1  0.62483484  0.12743277  0.13667551  1
  V  V1  1  0.12509765  0.37699313  0.63909895  1
  V  V2  1  0.87507734  0.62467461  0.89231128  1
  V  V3  1  0.37760868  0.87425829  0.39186412  1
  V  V4  1  0.87820388  0.62496737  0.63778908  1
  V  V5  1  0.12240834  0.12732402  0.13693754  1
  V  V6  1  0.62558932  0.37833830  0.63779988  1
  V  V7  1  0.62450873  0.37445359  0.39576130  1
  V  V8  1  0.12510466  0.62186830  0.13530176  1
  V  V9  1  0.12678478  0.10934921  0.63824428  1
  V  V10  1  0.12783083  0.62536368  0.64180703  1
  V  V11  1  0.12733189  0.62346741  0.38901311  1
  V  V12  1  0.87434424  0.37675947  0.88483730  1
  V  V13  1  0.37566731  0.37576320  0.39344671  1
  V  V14  1  0.37556147  0.62752894  0.39105899  1
  V  V15  1  0.87147835  0.37589369  0.40413976  1
  V  V16  1  0.87559933  0.36829451  0.14314153  1
  V  V17  1  0.87577767  0.12233664  0.39767934  1
  V  V18  1  0.37828576  0.62746424  0.64361284  1
  V  V19  1  0.12542246  0.87595345  0.39101375  1
  V  V20  1  0.87223015  0.87344622  0.39052816  1
  V  V21  1  0.62489360  0.37274713  0.13940593  1
  V  V22  1  0.12325907  0.12533649  0.88181185  1
  V  V23  1  0.37409683  0.12774602  0.13600620  1
  V  V24  1  0.37672463  0.13335883  0.65669569  1
  V  V25  1  0.12451963  0.62375878  0.88905743  1
  V  V26  1  0.12451406  0.37226214  0.39285341  1
  V  V27  1  0.37194441  0.87762469  0.64578876  1
  V  V28  1  0.87797795  0.87436906  0.64235229  1
  V  V29  1  0.62441468  0.62138387  0.88834971  1
  V  V30  1  0.62479560  0.87630090  0.39253073  1
  V  V31  1  0.62347270  0.62441676  0.39499382  1
  Fe  Fe32  1  0.87489179  0.88008916  0.13147673  1
  Fe  Fe33  1  0.37638831  0.62203606  0.12595889  1
  Fe  Fe34  1  0.12118335  0.87221614  0.88812010  1
  Fe  Fe35  1  0.37549042  0.37135057  0.13268425  1
  Fe  Fe36  1  0.62608635  0.12421420  0.64564250  1
  Fe  Fe37  1  0.37560047  0.12289726  0.39052764  1
  Fe  Fe38  1  0.62741964  0.87397427  0.88073566  1
  Fe  Fe39  1  0.62602770  0.62416769  0.12969030  1
  Fe  Fe40  1  0.62316973  0.87753441  0.12684261  1
  Fe  Fe41  1  0.62425680  0.86970687  0.64696096  1
  Fe  Fe42  1  0.62300845  0.12522206  0.39592085  1
  Fe  Fe43  1  0.87445780  0.62381860  0.13995177  1
  Fe  Fe44  1  0.12699683  0.12499512  0.39050898  1
  Fe  Fe45  1  0.88095018  0.12493115  0.64763913  1
  Fe  Fe46  1  0.12600467  0.86580494  0.64125076  1
  Fe  Fe47  1  0.37280841  0.12553953  0.86881218  1
  Fe  Fe48  1  0.37450783  0.37687869  0.87514477  1
  Fe  Fe49  1  0.87687079  0.37924346  0.62774352  1
  Fe  Fe50  1  0.12024634  0.37809126  0.89088007  1
  Fe  Fe51  1  0.37493561  0.87751389  0.12837125  1
  Fe  Fe52  1  0.37405516  0.87416705  0.88518809  1
  Fe  Fe53  1  0.87787407  0.12615157  0.87340789  1
  Fe  Fe54  1  0.62726839  0.62630558  0.63554376  1
  Fe  Fe55  1  0.37401000  0.62562128  0.89008580  1
  Fe  Fe56  1  0.12612788  0.87677742  0.13015969  1
  Fe  Fe57  1  0.62975911  0.37809776  0.88026536  1
  Fe  Fe58  1  0.87508435  0.87269025  0.88568002  1
  Fe  Fe59  1  0.87605404  0.62652171  0.38473239  1
  Fe  Fe60  1  0.12545347  0.37274672  0.13076907  1
  Fe  Fe61  1  0.62634227  0.12801495  0.87064822  1
  Fe  Fe62  1  0.37365432  0.38009784  0.64754413  1
  Fe  Fe63  1  0.87281749  0.12854832  0.13245472  1
  Pb  Pb64  1  -0.00826856  -0.00332970  -0.00575546  1
  Pb  Pb65  1  -0.00045205  -0.00095309  0.24492755  1
  Pb  Pb66  1  -0.00351192  0.00038012  0.50562611  1
  Pb  Pb67  1  -0.00276559  -0.01847981  0.76104112  1
  Pb  Pb68  1  -0.00098170  0.24607075  -0.00447915  1
  Pb  Pb69  1  0.00699038  0.24487566  0.25377660  1
  Pb  Pb70  1  -0.01150824  0.24293484  0.51213603  1
  Pb  Pb71  1  -0.00134471  0.25123971  0.74781837  1
  Pb  Pb72  1  -0.00522218  0.50416664  0.00417981  1
  Pb  Pb73  1  -0.00411674  0.50209660  0.25239805  1
  Pb  Pb74  1  -0.00029000  0.50005305  0.49967909  1
  Pb  Pb75  1  0.00567715  0.49546845  0.75296690  1
  Pb  Pb76  1  -0.00480388  0.75972851  0.00416218  1
  Pb  Pb77  1  -0.00375853  0.74995912  0.24325526  1
  Pb  Pb78  1  0.00620457  0.75597943  0.50063938  1
  Pb  Pb79  1  -0.00073351  0.75335018  0.75791630  1
  Pb  Pb80  1  0.25170496  -0.00487746  -0.00992922  1
  Pb  Pb81  1  0.25086195  0.00643462  0.24776903  1
  Pb  Pb82  1  0.24973191  0.00007022  0.50337938  1
  Pb  Pb83  1  0.25757481  -0.00866406  0.75888162  1
  Pb  Pb84  1  0.25114499  0.25888790  -0.01097430  1
  Pb  Pb85  1  0.25010248  0.24497773  0.25075675  1
  Pb  Pb86  1  0.25579998  0.24775866  0.50547280  1
  Pb  Pb87  1  0.24203815  0.26376308  0.75536508  1
  Pb  Pb88  1  0.25835365  0.49289761  -0.00294745  1
  Pb  Pb89  1  0.25236221  0.49462972  0.24151668  1
  Pb  Pb90  1  0.25573082  0.49466101  0.50473489  1
  Pb  Pb91  1  0.25405171  0.50230109  0.75859085  1
  Pb  Pb92  1  0.25643886  0.75743429  -0.00233042  1
  Pb  Pb93  1  0.25321823  0.75250740  0.23843622  1
  Pb  Pb94  1  0.24666663  0.75543573  0.50297697  1
  Pb  Pb95  1  0.25862007  0.74889680  0.76218503  1
  Pb  Pb96  1  0.50194771  -0.00072351  -0.01861060  1
  Pb  Pb97  1  0.49883685  0.00609362  0.24783942  1
  Pb  Pb98  1  0.50835505  0.00381906  0.51044715  1
  Pb  Pb99  1  0.51176328  -0.00688146  0.75561554  1
  Pb  Pb100  1  0.49648782  0.25191810  -0.02180216  1
  Pb  Pb101  1  0.49963754  0.23870784  0.25663206  1
  Pb  Pb102  1  0.49988442  0.24728885  0.50682910  1
  Pb  Pb103  1  0.51624428  0.25885908  0.75632896  1
  Pb  Pb104  1  0.49153871  0.49658826  -0.00539362  1
  Pb  Pb105  1  0.49830451  0.50106254  0.24220522  1
  Pb  Pb106  1  0.49405855  0.49689289  0.50737942  1
  Pb  Pb107  1  0.49937219  0.49527465  0.75414289  1
  Pb  Pb108  1  0.50111523  0.75876028  -0.00412358  1
  Pb  Pb109  1  0.50032744  0.75162511  0.23536089  1
  Pb  Pb110  1  0.50863991  0.75307224  0.50779439  1
  Pb  Pb111  1  0.49584433  0.75005620  0.75661741  1
  Pb  Pb112  1  0.75164810  -0.00203559  -0.01674540  1
  Pb  Pb113  1  0.74856565  -0.00045981  0.24387006  1
  Pb  Pb114  1  0.74421534  0.00368842  0.51291223  1
  Pb  Pb115  1  0.74653615  -0.00070047  0.74964395  1
  Pb  Pb116  1  0.75212845  0.23974381  -0.01183780  1
  Pb  Pb117  1  0.74338716  0.24586004  0.25561545  1
  Pb  Pb118  1  0.74865428  0.23747415  0.51287367  1
  Pb  Pb119  1  0.75710971  0.24453070  0.74405834  1
  Pb  Pb120  1  0.75033924  0.50850568  0.00504497  1
  Pb  Pb121  1  0.75311320  0.50457522  0.25276289  1
  Pb  Pb122  1  0.74673069  0.50575677  0.50130276  1
  Pb  Pb123  1  0.74804413  0.49719726  0.74650119  1
  Pb  Pb124  1  0.74239163  0.75254599  0.00067473  1
  Pb  Pb125  1  0.74824922  0.75163992  0.23903913  1
  Pb  Pb126  1  0.73946245  0.75165858  0.50687981  1
  Pb  Pb127  1  0.74902363  0.75216279  0.75228549  1
  O  O128  1  0.12831202  0.01065894  0.16104681  1
  O  O129  1  0.12560992  -0.00513006  0.41661167  1
  O  O130  1  0.12415366  -0.00366838  0.65294655  1
  O  O131  1  0.12115969  0.00799837  0.90647178  1
  O  O132  1  0.12645998  0.24488007  0.16682882  1
  O  O133  1  0.12927988  0.25733995  0.41688864  1
  O  O134  1  0.12560390  0.26383701  0.65836529  1
  O  O135  1  0.12190414  0.24502643  0.90895447  1
  O  O136  1  0.12322842  0.50187365  0.16102544  1
  O  O137  1  0.12825934  0.49874069  0.41581838  1
  O  O138  1  0.12399568  0.50723720  0.66799893  1
  O  O139  1  0.11763568  0.50802737  0.91651296  1
  O  O140  1  0.12450223  0.74214596  0.15965697  1
  O  O141  1  0.12629478  0.75054373  0.41665192  1
  O  O142  1  0.12127962  0.73903247  0.66802237  1
  O  O143  1  0.11687816  0.73925925  0.91303223  1
  O  O144  1  0.37552619  0.01118928  0.16168966  1
  O  O145  1  0.37568773  -0.01040651  0.41937378  1
  O  O146  1  0.36791919  -0.00751287  0.66437354  1
  O  O147  1  0.37149826  0.00276902  0.90249622  1
  O  O148  1  0.37736759  0.24343875  0.16399212  1
  O  O149  1  0.37430411  0.25462025  0.41931970  1
  O  O150  1  0.36588086  0.24909738  0.66407545  1
  O  O151  1  0.37177568  0.24995725  0.89561910  1
  O  O152  1  0.37587006  0.49729129  0.16383062  1
  O  O153  1  0.37534397  0.50233430  0.41940292  1
  O  O154  1  0.37126234  0.51172997  0.66662590  1
  O  O155  1  0.37364716  0.49956881  0.90955431  1
  O  O156  1  0.37344481  0.74832507  0.15656574  1
  O  O157  1  0.37542150  0.75417776  0.41719151  1
  O  O158  1  0.37020983  0.74555296  0.66847353  1
  O  O159  1  0.37389756  0.74929799  0.91339991  1
  O  O160  1  0.62200336  0.01138126  0.15768847  1
  O  O161  1  0.62512112  -0.00473494  0.42307148  1
  O  O162  1  0.62335709  -0.00351509  0.66417947  1
  O  O163  1  0.62652624  0.00285939  0.89971516  1
  O  O164  1  0.62422289  0.24868665  0.16972791  1
  O  O165  1  0.62433734  0.25412906  0.42371838  1
  O  O166  1  0.62286687  0.25964485  0.65810860  1
  O  O167  1  0.62718401  0.25245879  0.90443989  1
  O  O168  1  0.62828576  0.48894303  0.16135783  1
  O  O169  1  0.62367914  0.49942159  0.42105681  1
  O  O170  1  0.62549361  0.49970724  0.66235100  1
  O  O171  1  0.63246279  0.50423087  0.91280496  1
  O  O172  1  0.62563803  0.75082530  0.15900110  1
  O  O173  1  0.62533724  0.75280839  0.41915246  1
  O  O174  1  0.62637643  0.74500405  0.67173303  1
  O  O175  1  0.63107918  0.74005738  0.90804870  1
  O  O176  1  0.87512113  0.00652453  0.16691230  1
  O  O177  1  0.87601576  -0.00096711  0.42141971  1
  O  O178  1  0.88178183  -0.00928108  0.66141817  1
  O  O179  1  0.87847099  0.00206735  0.90087078  1
  O  O180  1  0.87270069  0.25231983  0.17254349  1
  O  O181  1  0.87587530  0.24176640  0.42205562  1
  O  O182  1  0.88159738  0.25763901  0.65916937  1
  O  O183  1  0.87701009  0.25846103  0.90295044  1
  O  O184  1  0.87282776  0.48602112  0.17018596  1
  O  O185  1  0.87630943  0.50077167  0.41799213  1
  O  O186  1  0.87558218  0.50593203  0.65887205  1
  O  O187  1  0.87462904  0.49942368  0.91653618  1
  O  O188  1  0.87570973  0.75180904  0.16190362  1
  O  O189  1  0.87596277  0.75730986  0.40821509  1
  O  O190  1  0.87811200  0.74487258  0.66491576  1
  O  O191  1  0.87561665  0.74047005  0.91141439  1
  O  O192  1  0.00532628  0.12927210  0.16061859  1
  O  O193  1  -0.00329544  0.12259114  0.41858003  1
  O  O194  1  0.01537941  0.13084037  0.66360137  1
  O  O195  1  0.00348834  0.12922312  0.90857571  1
  O  O196  1  -0.00573653  0.36959645  0.16384550  1
  O  O197  1  0.00902462  0.37683640  0.41664609  1
  O  O198  1  0.00601602  0.38589797  0.65980552  1
  O  O199  1  -0.00986527  0.37897885  0.91427697  1
  O  O200  1  0.00531452  0.62056627  0.16588754  1
  O  O201  1  0.00616299  0.62573671  0.41393415  1
  O  O202  1  -0.00176189  0.62272125  0.66349167  1
  O  O203  1  -0.00519672  0.62059515  0.91652966  1
  O  O204  1  0.00321928  0.87870044  0.16496916  1
  O  O205  1  -0.00391160  0.87579735  0.41486933  1
  O  O206  1  -0.00319348  0.86724939  0.66599523  1
  O  O207  1  -0.00147552  0.87194348  0.91605419  1
  O  O208  1  0.25224594  0.12837674  0.16006054  1
  O  O209  1  0.25199587  0.12303332  0.42299010  1
  O  O210  1  0.23352122  0.12809247  0.67210019  1
  O  O211  1  0.24193098  0.12635915  0.90280496  1
  O  O212  1  0.24950854  0.37151419  0.16485136  1
  O  O213  1  0.24886876  0.37873001  0.41806269  1
  O  O214  1  0.24178158  0.38541138  0.66682182  1
  O  O215  1  0.24764617  0.37674146  0.90641857  1
  O  O216  1  0.24381734  0.62135227  0.15819858  1
  O  O217  1  0.25171844  0.62706477  0.41844377  1
  O  O218  1  0.24487306  0.62568767  0.66469074  1
  O  O219  1  0.23956418  0.62392004  0.90847315  1
  O  O220  1  0.24988583  0.87863589  0.16393297  1
  O  O221  1  0.25372796  0.87238374  0.41548989  1
  O  O222  1  0.25253018  0.86757205  0.66728709  1
  O  O223  1  0.24581368  0.87323492  0.90888940  1
  O  O224  1  0.50066774  0.12907324  0.16276276  1
  O  O225  1  0.49709679  0.12352165  0.42701341  1
  O  O226  1  0.49133654  0.12637652  0.65910432  1
  O  O227  1  0.49871240  0.12715446  0.89591635  1
  O  O228  1  0.50806491  0.37089930  0.16291654  1
  O  O229  1  0.49921426  0.37724156  0.42244139  1
  O  O230  1  0.50479066  0.38066889  0.66367439  1
  O  O231  1  0.50170128  0.37862316  0.90304703  1
  O  O232  1  0.50172130  0.62025842  0.16041369  1
  O  O233  1  0.49760845  0.62682000  0.42053788  1
  O  O234  1  0.49448082  0.62752508  0.66131867  1
  O  O235  1  0.50856988  0.62161233  0.90298830  1
  O  O236  1  0.49880705  0.87967301  0.16106170  1
  O  O237  1  0.49760238  0.87283320  0.41653363  1
  O  O238  1  0.48991599  0.86864577  0.66669127  1
  O  O239  1  0.50198775  0.87177221  0.90517685  1
  O  O240  1  0.74228312  0.13002655  0.16199232  1
  O  O241  1  0.75559044  0.12218137  0.42259728  1
  O  O242  1  0.75367413  0.12580632  0.66120754  1
  O  O243  1  0.75284753  0.12903965  0.89954167  1
  O  O244  1  0.74773478  0.36823099  0.17074737  1
  O  O245  1  0.74757017  0.37571041  0.42223944  1
  O  O246  1  0.74646111  0.37927100  0.65407998  1
  O  O247  1  0.75917972  0.37795149  0.91067287  1
  O  O248  1  0.74877257  0.61952487  0.16825422  1
  O  O249  1  0.74689929  0.62575036  0.41453620  1
  O  O250  1  0.75923392  0.62578906  0.66212429  1
  O  O251  1  0.75529105  0.62139895  0.91500281  1
  O  O252  1  0.74758611  0.88148182  0.16223636  1
  O  O253  1  0.75430861  0.87718146  0.41578629  1
  O  O254  1  0.76037545  0.87076601  0.66393502  1
  O  O255  1  0.75092739  0.87121600  0.90686329  1
  O  O256  1  0.12390403  0.13062817  0.04637985  1
  O  O257  1  0.12879003  0.13086753  0.29075437  1
  O  O258  1  0.13076041  0.12195989  0.54576545  1
  O  O259  1  0.11902727  0.12675447  0.79072905  1
  O  O260  1  0.12615662  0.36689599  0.03108939  1
  O  O261  1  0.12481134  0.37212424  0.30150501  1
  O  O262  1  0.12889548  0.38265671  0.54741394  1
  O  O263  1  0.11865806  0.38148426  0.78941233  1
  O  O264  1  0.12055208  0.62151728  0.04483537  1
  O  O265  1  0.12897447  0.62421677  0.29819478  1
  O  O266  1  0.12672812  0.62562265  0.55034009  1
  O  O267  1  0.11911595  0.62139999  0.79707226  1
  O  O268  1  0.12378677  0.87649651  0.03036589  1
  O  O269  1  0.12613456  0.87428283  0.30001150  1
  O  O270  1  0.12428831  0.86076292  0.54020555  1
  O  O271  1  0.11207926  0.87096793  0.78503796  1
  O  O272  1  0.37503139  0.12793812  0.04560227  1
  O  O273  1  0.38002977  0.12260498  0.29026004  1
  O  O274  1  0.35766366  0.12099085  0.56522968  1
  O  O275  1  0.36463468  0.11644043  0.76551321  1
  O  O276  1  0.37403322  0.37643538  0.03294272  1
  O  O277  1  0.37706594  0.37613068  0.30234749  1
  O  O278  1  0.37231305  0.38526816  0.54601224  1
  O  O279  1  0.37205163  0.38475280  0.77192433  1
  O  O280  1  0.37529161  0.61623946  0.02565972  1
  O  O281  1  0.37598683  0.62576722  0.30041242  1
  O  O282  1  0.37277594  0.62890558  0.55211071  1
  O  O283  1  0.36872828  0.63044153  0.78780171  1
  O  O284  1  0.37164997  0.87776015  0.02773831  1
  O  O285  1  0.37642046  0.87576600  0.30108578  1
  O  O286  1  0.37219152  0.87206510  0.55403423  1
  O  O287  1  0.36841156  0.86878473  0.78260598  1
  O  O288  1  0.62373644  0.13353540  0.04628183  1
  O  O289  1  0.61892698  0.12919049  0.29565506  1
  O  O290  1  0.62759154  0.12156694  0.54136465  1
  O  O291  1  0.62344720  0.13152349  0.76762942  1
  O  O292  1  0.62907541  0.36818298  0.04903867  1
  O  O293  1  0.62376997  0.37392115  0.30462362  1
  O  O294  1  0.62041909  0.38082520  0.54617051  1
  O  O295  1  0.62624943  0.37961399  0.77949436  1
  O  O296  1  0.63364399  0.62391172  0.03014556  1
  O  O297  1  0.61945458  0.62420052  0.30406518  1
  O  O298  1  0.62825860  0.63302769  0.53504015  1
  O  O299  1  0.63448280  0.61883055  0.79660840  1
  O  O300  1  0.62407763  0.87320376  0.02625403  1
  O  O301  1  0.62452396  0.87778676  0.30171434  1
  O  O302  1  0.62566429  0.86414598  0.54409573  1
  O  O303  1  0.62597229  0.87543486  0.77696590  1
  O  O304  1  0.87381883  0.13464734  0.03337131  1
  O  O305  1  0.87406674  0.12301181  0.30672413  1
  O  O306  1  0.88550392  0.12263834  0.54450896  1
  O  O307  1  0.88218291  0.13373492  0.77098078  1
  O  O308  1  0.87077682  0.36834110  0.05261194  1
  O  O309  1  0.87593130  0.36829667  0.31277010  1
  O  O310  1  0.88502144  0.37353429  0.52645437  1
  O  O311  1  0.87613142  0.38410876  0.79306827  1
  O  O312  1  0.87487166  0.61332577  0.04020451  1
  O  O313  1  0.87982075  0.61508165  0.28501604  1
  O  O314  1  0.87877329  0.62845113  0.54642379  1
  O  O315  1  0.87455350  0.61968176  0.80094312  1
  O  O316  1  0.88025235  0.88040809  0.03091320  1
  O  O317  1  0.87269344  0.88302991  0.29998217  1
  O  O318  1  0.87979673  0.87095115  0.55040027  1
  O  O319  1  0.88608654  0.86955022  0.78356060  1
