# generated using pymatgen
data_VFe(PbO3)2
_symmetry_space_group_name_H-M   'P 1'
_cell_length_a   15.38877142
_cell_length_b   15.38339926
_cell_length_c   18.47825599
_cell_angle_alpha   90.00701309
_cell_angle_beta   90.01330509
_cell_angle_gamma   90.00093609
_symmetry_Int_Tables_number   1
_chemical_formula_structural   VFe(PbO3)2
_chemical_formula_sum   'V32 Fe32 Pb64 O192'
_cell_volume   4374.38723261
_cell_formula_units_Z   32
loop_
 _symmetry_equiv_pos_site_id
 _symmetry_equiv_pos_as_xyz
  1  'x, y, z'
loop_
 _atom_site_type_symbol
 _atom_site_label
 _atom_site_symmetry_multiplicity
 _atom_site_fract_x
 _atom_site_fract_y
 _atom_site_fract_z
 _atom_site_occupancy
  V  V0  1  0.12596888  0.12386944  0.89064861  1
  V  V1  1  0.87601429  0.87642433  0.89139380  1
  V  V2  1  0.62462879  0.62548588  0.89461576  1
  V  V3  1  0.12427620  0.87374743  0.13759856  1
  V  V4  1  0.87683931  0.87913223  0.39095044  1
  V  V5  1  0.87481721  0.63110925  0.38955451  1
  V  V6  1  0.12596089  0.37448895  0.38897801  1
  V  V7  1  0.88062804  0.38223408  0.13782374  1
  V  V8  1  0.38697599  0.87511862  0.38168902  1
  V  V9  1  0.87401312  0.12718122  0.38908887  1
  V  V10  1  0.87469362  0.12730182  0.88954782  1
  V  V11  1  0.37826341  0.87434883  0.63794243  1
  V  V12  1  0.12594071  0.37554049  0.89348176  1
  V  V13  1  0.87321471  0.37436102  0.88978364  1
  V  V14  1  0.87210852  0.62364450  0.64042852  1
  V  V15  1  0.37360858  0.87701492  0.89638851  1
  V  V16  1  0.87389251  0.38127117  0.39130726  1
  V  V17  1  0.12388703  0.12506424  0.13811259  1
  V  V18  1  0.63202337  0.87434530  0.38361194  1
  V  V19  1  0.37348629  0.37490425  0.63458096  1
  V  V20  1  0.12267919  0.62305212  0.13763676  1
  V  V21  1  0.62280328  0.12679426  0.89865911  1
  V  V22  1  0.37544945  0.62369420  0.89601493  1
  V  V23  1  0.87242757  0.12492440  0.63985700  1
  V  V24  1  0.12845927  0.87492445  0.38929830  1
  V  V25  1  0.12789012  0.62672817  0.88998559  1
  V  V26  1  0.87734413  0.12621959  0.13708697  1
  V  V27  1  0.37500150  0.37440125  0.89690139  1
  V  V28  1  0.12423330  0.87337614  0.64254233  1
  V  V29  1  0.62895872  0.62579486  0.13477341  1
  V  V30  1  0.62116891  0.87490964  0.90324129  1
  V  V31  1  0.62293296  0.37360817  0.64003100  1
  Fe  Fe32  1  0.87936710  0.87678904  0.13365988  1
  Fe  Fe33  1  0.62431928  0.12350526  0.63664893  1
  Fe  Fe34  1  0.62570128  0.87504480  0.63738298  1
  Fe  Fe35  1  0.62379063  0.37662137  0.89555836  1
  Fe  Fe36  1  0.62834522  0.37566002  0.13833612  1
  Fe  Fe37  1  0.62730194  0.87436395  0.12605876  1
  Fe  Fe38  1  0.12653306  0.87478846  0.88402468  1
  Fe  Fe39  1  0.12133368  0.37356643  0.13522551  1
  Fe  Fe40  1  0.37648525  0.37433140  0.37472054  1
  Fe  Fe41  1  0.12621520  0.62389679  0.63043684  1
  Fe  Fe42  1  0.62286492  0.62521322  0.63515142  1
  Fe  Fe43  1  0.37421402  0.12277503  0.38136086  1
  Fe  Fe44  1  0.37588094  0.62449718  0.63383112  1
  Fe  Fe45  1  0.37293432  0.12278429  0.13049341  1
  Fe  Fe46  1  0.37398878  0.12772266  0.89753747  1
  Fe  Fe47  1  0.62777880  0.62708091  0.38324122  1
  Fe  Fe48  1  0.37141268  0.37537246  0.14302697  1
  Fe  Fe49  1  0.37401134  0.62715856  0.13962054  1
  Fe  Fe50  1  0.62651016  0.37474006  0.37534665  1
  Fe  Fe51  1  0.37419443  0.62679784  0.38024262  1
  Fe  Fe52  1  0.12030182  0.12339254  0.39466100  1
  Fe  Fe53  1  0.12387293  0.37409982  0.63220439  1
  Fe  Fe54  1  0.87459781  0.87506529  0.63585417  1
  Fe  Fe55  1  0.37624287  0.12430613  0.63563256  1
  Fe  Fe56  1  0.37463360  0.87454339  0.13371239  1
  Fe  Fe57  1  0.87219235  0.37305058  0.63445131  1
  Fe  Fe58  1  0.87521301  0.62356542  0.89591497  1
  Fe  Fe59  1  0.11900015  0.62659816  0.39475114  1
  Fe  Fe60  1  0.87763559  0.62757169  0.12606740  1
  Fe  Fe61  1  0.62793408  0.12437337  0.13402851  1
  Fe  Fe62  1  0.12533566  0.12501740  0.63024671  1
  Fe  Fe63  1  0.62714113  0.12270666  0.37823729  1
  Pb  Pb64  1  -0.00373868  -0.00312917  0.00001792  1
  Pb  Pb65  1  0.00765877  0.00529102  0.25391172  1
  Pb  Pb66  1  -0.00402412  0.00010793  0.50329596  1
  Pb  Pb67  1  0.00494171  -0.00369460  0.74919968  1
  Pb  Pb68  1  0.00403662  0.25423805  0.00119371  1
  Pb  Pb69  1  0.00533088  0.24450696  0.25495827  1
  Pb  Pb70  1  -0.00103657  0.25941444  0.50615854  1
  Pb  Pb71  1  0.00308369  0.25170175  0.74356770  1
  Pb  Pb72  1  0.00394342  0.50034323  -0.00007704  1
  Pb  Pb73  1  0.00759505  0.50967087  0.25475854  1
  Pb  Pb74  1  0.00315504  0.49405215  0.50682776  1
  Pb  Pb75  1  -0.00195360  0.50068342  0.74662760  1
  Pb  Pb76  1  -0.00771608  0.75280949  0.00187542  1
  Pb  Pb77  1  0.00395295  0.74702420  0.25021381  1
  Pb  Pb78  1  -0.00493283  0.75447343  0.50431369  1
  Pb  Pb79  1  -0.00676204  0.74056664  0.75341696  1
  Pb  Pb80  1  0.25753683  0.00030483  0.00419218  1
  Pb  Pb81  1  0.25404492  0.00700959  0.25060385  1
  Pb  Pb82  1  0.25104807  0.00805268  0.50052669  1
  Pb  Pb83  1  0.24955978  0.00058841  0.74976479  1
  Pb  Pb84  1  0.25204563  0.25846513  0.00964330  1
  Pb  Pb85  1  0.25977765  0.24790806  0.24972430  1
  Pb  Pb86  1  0.25156422  0.24301552  0.49391452  1
  Pb  Pb87  1  0.25321074  0.24146840  0.74713149  1
  Pb  Pb88  1  0.25471934  0.49555341  0.00987674  1
  Pb  Pb89  1  0.25726930  0.49712968  0.24935048  1
  Pb  Pb90  1  0.25157082  0.50587886  0.49252359  1
  Pb  Pb91  1  0.24668391  0.50236391  0.74327116  1
  Pb  Pb92  1  0.25693369  0.74918514  0.00578333  1
  Pb  Pb93  1  0.25351817  0.74423621  0.25257339  1
  Pb  Pb94  1  0.25159462  0.74188383  0.49885865  1
  Pb  Pb95  1  0.24669998  0.75203115  0.74861777  1
  Pb  Pb96  1  0.49854616  0.00904416  0.01002848  1
  Pb  Pb97  1  0.50091447  0.00487406  0.23688006  1
  Pb  Pb98  1  0.50200606  0.01374119  0.50137103  1
  Pb  Pb99  1  0.49802472  0.00572300  0.75228505  1
  Pb  Pb100  1  0.49705267  0.25793871  0.01274616  1
  Pb  Pb101  1  0.49745035  0.24685568  0.23884675  1
  Pb  Pb102  1  0.49941140  0.24739998  0.48375850  1
  Pb  Pb103  1  0.49465480  0.24345228  0.75450785  1
  Pb  Pb104  1  0.49195685  0.49629019  0.01161344  1
  Pb  Pb105  1  0.49974541  0.49508394  0.24521946  1
  Pb  Pb106  1  0.49868404  0.50261181  0.48496050  1
  Pb  Pb107  1  0.50408303  0.49488399  0.75012497  1
  Pb  Pb108  1  0.49047155  0.74974155  0.00856361  1
  Pb  Pb109  1  0.49973082  0.74461197  0.24345274  1
  Pb  Pb110  1  0.50277874  0.73664529  0.50119846  1
  Pb  Pb111  1  0.50325782  0.74592640  0.74882192  1
  Pb  Pb112  1  0.74493239  0.00127763  0.00566623  1
  Pb  Pb113  1  0.74550562  0.00004389  0.24298606  1
  Pb  Pb114  1  0.73830442  -0.00175200  0.50417157  1
  Pb  Pb115  1  0.74673668  -0.00302233  0.74950174  1
  Pb  Pb116  1  0.74062909  0.24970325  0.00849482  1
  Pb  Pb117  1  0.74218839  0.24958058  0.24814476  1
  Pb  Pb118  1  0.74560809  0.24906155  0.49508558  1
  Pb  Pb119  1  0.74220172  0.25535383  0.75297257  1
  Pb  Pb120  1  0.74459841  0.49696814  0.00404321  1
  Pb  Pb121  1  0.73947438  0.50602931  0.25295202  1
  Pb  Pb122  1  0.74210251  0.50260067  0.49776786  1
  Pb  Pb123  1  0.74681922  0.49741663  0.75340990  1
  Pb  Pb124  1  0.75313159  0.75714473  0.00308628  1
  Pb  Pb125  1  0.75385089  0.75037434  0.24007197  1
  Pb  Pb126  1  0.74204635  0.75914280  0.50594504  1
  Pb  Pb127  1  0.75098883  0.74841668  0.75099488  1
  O  O128  1  0.12255856  0.00151081  0.16216941  1
  O  O129  1  0.11685292  -0.00911932  0.41687113  1
  O  O130  1  0.12555869  -0.00415979  0.66459331  1
  O  O131  1  0.12336329  0.00637557  0.91217960  1
  O  O132  1  0.11935612  0.24193558  0.16133215  1
  O  O133  1  0.11837788  0.25672588  0.41213991  1
  O  O134  1  0.12455006  0.24904351  0.66327331  1
  O  O135  1  0.12396829  0.24837789  0.91707902  1
  O  O136  1  0.11923353  0.50611072  0.16057502  1
  O  O137  1  0.11597796  0.49276030  0.41348786  1
  O  O138  1  0.12494232  0.49952812  0.66422658  1
  O  O139  1  0.12774413  0.50038613  0.91730163  1
  O  O140  1  0.12123036  0.75178494  0.15926769  1
  O  O141  1  0.11642079  0.75854189  0.41627608  1
  O  O142  1  0.12582747  0.75356445  0.66326383  1
  O  O143  1  0.12874005  0.74365287  0.90905758  1
  O  O144  1  0.36851643  -0.00160011  0.16024773  1
  O  O145  1  0.37179415  -0.01349131  0.41188129  1
  O  O146  1  0.37357269  -0.00810410  0.66555565  1
  O  O147  1  0.37480897  -0.00465940  0.91477081  1
  O  O148  1  0.37054084  0.24640714  0.15813100  1
  O  O149  1  0.37182312  0.24996485  0.40675586  1
  O  O150  1  0.37903418  0.25778298  0.66356690  1
  O  O151  1  0.37468752  0.25755028  0.91998978  1
  O  O152  1  0.37169427  0.50368489  0.16287879  1
  O  O153  1  0.37214140  0.49985621  0.40405554  1
  O  O154  1  0.37853839  0.49134779  0.66172852  1
  O  O155  1  0.37337423  0.49738963  0.92162564  1
  O  O156  1  0.37039667  0.75183764  0.16575552  1
  O  O157  1  0.37160275  0.76319985  0.41217714  1
  O  O158  1  0.37238324  0.75764750  0.66518686  1
  O  O159  1  0.37394734  0.75005412  0.91867189  1
  O  O160  1  0.62997119  -0.00165113  0.15714237  1
  O  O161  1  0.62836762  -0.00960910  0.40904588  1
  O  O162  1  0.62340926  -0.00074982  0.67181020  1
  O  O163  1  0.62718479  0.00437511  0.91894006  1
  O  O164  1  0.63240978  0.24994329  0.15847537  1
  O  O165  1  0.63013331  0.24859769  0.40487905  1
  O  O166  1  0.62533453  0.25529820  0.66439832  1
  O  O167  1  0.62682059  0.24600641  0.91887729  1
  O  O168  1  0.63135357  0.50615112  0.15951132  1
  O  O169  1  0.63046307  0.50024682  0.40980393  1
  O  O170  1  0.62489173  0.49444791  0.66627908  1
  O  O171  1  0.62396828  0.50686448  0.92005919  1
  O  O172  1  0.62997500  0.74462224  0.15649371  1
  O  O173  1  0.62802128  0.75861239  0.41039287  1
  O  O174  1  0.62448552  0.74965648  0.66957492  1
  O  O175  1  0.62238108  0.74438379  0.91932408  1
  O  O176  1  0.88167806  0.00745421  0.16202596  1
  O  O177  1  0.87480487  0.00207656  0.41469981  1
  O  O178  1  0.87522210  0.00556100  0.66488239  1
  O  O179  1  0.87746507  0.00031793  0.91457196  1
  O  O180  1  0.88178913  0.24209508  0.16447092  1
  O  O181  1  0.87230596  0.24651249  0.41093597  1
  O  O182  1  0.87184023  0.24349396  0.66640496  1
  O  O183  1  0.87761704  0.25364465  0.91525570  1
  O  O184  1  0.88333448  0.49779751  0.15133431  1
  O  O185  1  0.87347632  0.49888175  0.41194950  1
  O  O186  1  0.87270879  0.50474064  0.66392530  1
  O  O187  1  0.87671174  0.49149004  0.91445275  1
  O  O188  1  0.88079820  0.74959374  0.15989813  1
  O  O189  1  0.87581135  0.74799114  0.41123871  1
  O  O190  1  0.87575286  0.74414266  0.66705672  1
  O  O191  1  0.87772027  0.75701570  0.91277488  1
  O  O192  1  0.00205003  0.12244056  0.16680284  1
  O  O193  1  -0.01064760  0.12425557  0.41868560  1
  O  O194  1  -0.00587428  0.12442182  0.66125422  1
  O  O195  1  0.00214376  0.12717645  0.91532107  1
  O  O196  1  -0.00511171  0.37083258  0.16870859  1
  O  O197  1  -0.00732069  0.37271150  0.41592082  1
  O  O198  1  -0.00380536  0.37476143  0.66525464  1
  O  O199  1  -0.00176250  0.37418012  0.91345164  1
  O  O200  1  0.00453854  0.62766781  0.16405858  1
  O  O201  1  -0.01190455  0.62336027  0.42022990  1
  O  O202  1  -0.00494903  0.62458161  0.66261434  1
  O  O203  1  0.01112761  0.62233141  0.91323183  1
  O  O204  1  0.00890029  0.87780430  0.16561401  1
  O  O205  1  -0.00296523  0.87488612  0.41886740  1
  O  O206  1  0.00410059  0.87504811  0.66422189  1
  O  O207  1  -0.00190889  0.87715850  0.91225942  1
  O  O208  1  0.24031369  0.12301553  0.15757907  1
  O  O209  1  0.24809364  0.11995881  0.41289153  1
  O  O210  1  0.25124681  0.12451401  0.66425923  1
  O  O211  1  0.24120293  0.12708891  0.91504238  1
  O  O212  1  0.24191424  0.37556556  0.16480768  1
  O  O213  1  0.24169762  0.37571344  0.40390400  1
  O  O214  1  0.25748500  0.37408469  0.65758797  1
  O  O215  1  0.25212079  0.37517529  0.92022611  1
  O  O216  1  0.23796964  0.62769988  0.16202259  1
  O  O217  1  0.24715625  0.62920532  0.41065951  1
  O  O218  1  0.25163382  0.62462461  0.66434032  1
  O  O219  1  0.24764507  0.62203574  0.91836207  1
  O  O220  1  0.23762202  0.87510875  0.16414301  1
  O  O221  1  0.24149003  0.87452336  0.40838976  1
  O  O222  1  0.24942960  0.87528432  0.66437802  1
  O  O223  1  0.25371530  0.87459287  0.91498732  1
  O  O224  1  0.49998333  0.12296903  0.15150981  1
  O  O225  1  0.50095719  0.11831608  0.40729910  1
  O  O226  1  0.49955816  0.12544317  0.67051652  1
  O  O227  1  0.50610730  0.12545717  0.91937583  1
  O  O228  1  0.50204815  0.37668913  0.15793643  1
  O  O229  1  0.50160622  0.37499831  0.40280258  1
  O  O230  1  0.50233110  0.37515143  0.66299131  1
  O  O231  1  0.49412815  0.37681828  0.91977819  1
  O  O232  1  0.50881713  0.62568632  0.15714689  1
  O  O233  1  0.50049801  0.63105533  0.40808753  1
  O  O234  1  0.49832627  0.62441812  0.66899505  1
  O  O235  1  0.50009437  0.62401756  0.92121058  1
  O  O236  1  0.50267036  0.87252179  0.15459367  1
  O  O237  1  0.50179000  0.87419491  0.39284345  1
  O  O238  1  0.49345558  0.87449484  0.66423763  1
  O  O239  1  0.49479984  0.87402288  0.92073181  1
  O  O240  1  0.76113897  0.12452034  0.15693276  1
  O  O241  1  0.75651418  0.12123224  0.41267596  1
  O  O242  1  0.75340817  0.12444557  0.66728032  1
  O  O243  1  0.75255271  0.12614172  0.91681614  1
  O  O244  1  0.76641917  0.37277310  0.16184747  1
  O  O245  1  0.75648142  0.37348685  0.41253518  1
  O  O246  1  0.74434404  0.37536711  0.66688807  1
  O  O247  1  0.75719561  0.37375680  0.91556812  1
  O  O248  1  0.75077020  0.62497152  0.15563401  1
  O  O249  1  0.75921445  0.62575656  0.41479714  1
  O  O250  1  0.75348638  0.62478059  0.66554323  1
  O  O251  1  0.74313606  0.62588310  0.91451499  1
  O  O252  1  0.75330928  0.87424620  0.15777595  1
  O  O253  1  0.75038896  0.87393702  0.41286695  1
  O  O254  1  0.75236313  0.87435332  0.67013101  1
  O  O255  1  0.75707459  0.87606945  0.91463615  1
  O  O256  1  0.11915429  0.12395854  0.04687274  1
  O  O257  1  0.11454274  0.12132322  0.29347969  1
  O  O258  1  0.12730925  0.12084654  0.52968607  1
  O  O259  1  0.12529314  0.12656320  0.79920808  1
  O  O260  1  0.12106653  0.37246849  0.03443114  1
  O  O261  1  0.11540828  0.37625842  0.29752462  1
  O  O262  1  0.11647723  0.37493164  0.53220276  1
  O  O263  1  0.12917264  0.37417682  0.80249142  1
  O  O264  1  0.12093727  0.62389671  0.04628500  1
  O  O265  1  0.10880815  0.62675608  0.29363735  1
  O  O266  1  0.12583114  0.62310129  0.52977710  1
  O  O267  1  0.13019329  0.62088378  0.79844689  1
  O  O268  1  0.12316582  0.87640229  0.04592103  1
  O  O269  1  0.12249092  0.87567854  0.29753151  1
  O  O270  1  0.12511028  0.87452796  0.55147901  1
  O  O271  1  0.12814182  0.87787816  0.78490694  1
  O  O272  1  0.37186389  0.11876226  0.02662644  1
  O  O273  1  0.36887500  0.12037479  0.28038851  1
  O  O274  1  0.37773477  0.11853290  0.53511080  1
  O  O275  1  0.37766613  0.13302187  0.79666216  1
  O  O276  1  0.37066588  0.37691742  0.03909611  1
  O  O277  1  0.37113259  0.37289468  0.27288895  1
  O  O278  1  0.37670803  0.37395128  0.54381078  1
  O  O279  1  0.37281404  0.37638795  0.80594874  1
  O  O280  1  0.37200503  0.63032636  0.03714794  1
  O  O281  1  0.37301899  0.63497347  0.27910746  1
  O  O282  1  0.37613231  0.63159863  0.53345503  1
  O  O283  1  0.37504659  0.62252758  0.80505695  1
  O  O284  1  0.36567753  0.87093762  0.03277586  1
  O  O285  1  0.37081486  0.87499165  0.29071424  1
  O  O286  1  0.37827331  0.87456569  0.54722430  1
  O  O287  1  0.37569116  0.87274226  0.80529937  1
  O  O288  1  0.63397874  0.12398257  0.03202038  1
  O  O289  1  0.63372425  0.11907279  0.27776362  1
  O  O290  1  0.62395775  0.11466428  0.53640095  1
  O  O291  1  0.62381508  0.12656022  0.80684680  1
  O  O292  1  0.63325027  0.37631108  0.03446268  1
  O  O293  1  0.63667956  0.38101722  0.27435508  1
  O  O294  1  0.62535512  0.37493756  0.54923174  1
  O  O295  1  0.62680905  0.37792459  0.79545427  1
  O  O296  1  0.62933206  0.62349312  0.04349150  1
  O  O297  1  0.63548934  0.62504671  0.28324263  1
  O  O298  1  0.62269476  0.62936122  0.53476053  1
  O  O299  1  0.61982403  0.62461216  0.80310957  1
  O  O300  1  0.63570945  0.87512008  0.02334163  1
  O  O301  1  0.63843674  0.87364547  0.29264113  1
  O  O302  1  0.63121495  0.87549038  0.53684290  1
  O  O303  1  0.62314002  0.87450950  0.81169058  1
  O  O304  1  0.88266965  0.12712337  0.04523916  1
  O  O305  1  0.87747208  0.12506347  0.29777074  1
  O  O306  1  0.86961379  0.12598555  0.54856322  1
  O  O307  1  0.87523823  0.12669061  0.79994048  1
  O  O308  1  0.88288848  0.37140220  0.04641750  1
  O  O309  1  0.87705086  0.37919260  0.30056987  1
  O  O310  1  0.87447398  0.36968049  0.53488232  1
  O  O311  1  0.87143277  0.37377123  0.79840895  1
  O  O312  1  0.88262833  0.62953540  0.02434834  1
  O  O313  1  0.87916534  0.62677851  0.29788648  1
  O  O314  1  0.87102719  0.62576036  0.54954846  1
  O  O315  1  0.88016163  0.62714288  0.79564574  1
  O  O316  1  0.88563922  0.87441583  0.03320055  1
  O  O317  1  0.87746761  0.87758537  0.29980611  1
  O  O318  1  0.87443389  0.86974651  0.53600538  1
  O  O319  1  0.87684811  0.87722703  0.79986862  1
