# generated using pymatgen
data_VFe(PbO3)2
_symmetry_space_group_name_H-M   'P 1'
_cell_length_a   15.39907843
_cell_length_b   15.39095665
_cell_length_c   18.51479546
_cell_angle_alpha   89.98646844
_cell_angle_beta   89.96378274
_cell_angle_gamma   89.99583039
_symmetry_Int_Tables_number   1
_chemical_formula_structural   VFe(PbO3)2
_chemical_formula_sum   'V32 Fe32 Pb64 O192'
_cell_volume   4388.12675837
_cell_formula_units_Z   32
loop_
 _symmetry_equiv_pos_site_id
 _symmetry_equiv_pos_as_xyz
  1  'x, y, z'
loop_
 _atom_site_type_symbol
 _atom_site_label
 _atom_site_symmetry_multiplicity
 _atom_site_fract_x
 _atom_site_fract_y
 _atom_site_fract_z
 _atom_site_occupancy
  V  V0  1  0.62667423  0.62578555  0.38826420  1
  V  V1  1  0.62639868  0.87213351  0.89033782  1
  V  V2  1  0.62530131  0.37531473  0.38571726  1
  V  V3  1  0.62807380  0.36164157  0.88996697  1
  V  V4  1  0.62396060  0.12259853  0.63363871  1
  V  V5  1  0.62372556  0.62622023  0.14595648  1
  V  V6  1  0.62421887  0.61887120  0.88778840  1
  V  V7  1  0.87411921  0.37468094  0.14081591  1
  V  V8  1  0.12263462  0.62881990  0.13628242  1
  V  V9  1  0.87184371  0.12810364  0.89017561  1
  V  V10  1  0.12644842  0.87345681  0.39628313  1
  V  V11  1  0.87504938  0.62562870  0.14344577  1
  V  V12  1  0.38045228  0.87460869  0.63786192  1
  V  V13  1  0.37087245  0.62508359  0.14034648  1
  V  V14  1  0.12206543  0.12329174  0.13864170  1
  V  V15  1  0.62491050  0.87822006  0.38876300  1
  V  V16  1  0.37569592  0.12553094  0.64013725  1
  V  V17  1  0.87621558  0.87399297  0.14327225  1
  V  V18  1  0.12709857  0.12448795  0.39560428  1
  V  V19  1  0.87241962  0.62348164  0.63837338  1
  V  V20  1  0.87711885  0.12108408  0.39584145  1
  V  V21  1  0.12373648  0.87240738  0.13839010  1
  V  V22  1  0.62477501  0.37297334  0.63827331  1
  V  V23  1  0.87387247  0.37475094  0.63931663  1
  V  V24  1  0.62583624  0.11655116  0.89251845  1
  V  V25  1  0.87919972  0.37563208  0.39118927  1
  V  V26  1  0.12526797  0.62190426  0.39507020  1
  V  V27  1  0.37440211  0.12147127  0.38734592  1
  V  V28  1  0.62270017  0.38062193  0.14406587  1
  V  V29  1  0.62490684  0.87000944  0.14551769  1
  V  V30  1  0.62417782  0.62206600  0.63510838  1
  V  V31  1  0.87052070  0.87931554  0.88652794  1
  Fe  Fe32  1  0.62390913  0.87176686  0.62904466  1
  Fe  Fe33  1  0.87114388  0.12724109  0.62653899  1
  Fe  Fe34  1  0.37701358  0.62635814  0.88034041  1
  Fe  Fe35  1  0.86934358  0.62765830  0.88041143  1
  Fe  Fe36  1  0.62919151  0.12452910  0.14934697  1
  Fe  Fe37  1  0.37778408  0.37551641  0.88006248  1
  Fe  Fe38  1  0.87896298  0.12442657  0.13870764  1
  Fe  Fe39  1  0.12591819  0.62409483  0.64124455  1
  Fe  Fe40  1  0.37732500  0.12576312  0.88550152  1
  Fe  Fe41  1  0.37841747  0.87645624  0.88403417  1
  Fe  Fe42  1  0.12656841  0.37507592  0.63319774  1
  Fe  Fe43  1  0.12294760  0.62765962  0.87349954  1
  Fe  Fe44  1  0.12419414  0.87645826  0.64291890  1
  Fe  Fe45  1  0.12126859  0.37331522  0.87910536  1
  Fe  Fe46  1  0.12492719  0.12485165  0.87763635  1
  Fe  Fe47  1  0.87048166  0.87577263  0.62527417  1
  Fe  Fe48  1  0.37354096  0.62628065  0.39856964  1
  Fe  Fe49  1  0.37408601  0.87396382  0.14009123  1
  Fe  Fe50  1  0.37257668  0.37662118  0.13994745  1
  Fe  Fe51  1  0.12473301  0.87868785  0.87389494  1
  Fe  Fe52  1  0.87767628  0.62210480  0.39026465  1
  Fe  Fe53  1  0.12520321  0.37272031  0.39412628  1
  Fe  Fe54  1  0.87927204  0.87065961  0.39938377  1
  Fe  Fe55  1  0.37133056  0.87487377  0.38582259  1
  Fe  Fe56  1  0.86808654  0.37457537  0.88293268  1
  Fe  Fe57  1  0.37243231  0.12517206  0.13516073  1
  Fe  Fe58  1  0.37834037  0.62434267  0.63139237  1
  Fe  Fe59  1  0.12372493  0.12603476  0.63623276  1
  Fe  Fe60  1  0.37386562  0.37342364  0.38541862  1
  Fe  Fe61  1  0.37888540  0.37212953  0.63888570  1
  Fe  Fe62  1  0.62422160  0.12754395  0.37925806  1
  Fe  Fe63  1  0.12191962  0.38005424  0.13362736  1
  Pb  Pb64  1  -0.00022151  0.00333888  -0.00620686  1
  Pb  Pb65  1  -0.00248966  -0.00715633  0.25474412  1
  Pb  Pb66  1  0.01199817  -0.00204883  0.51323500  1
  Pb  Pb67  1  -0.00033206  0.00216978  0.73722629  1
  Pb  Pb68  1  0.00796265  0.26115342  -0.00308885  1
  Pb  Pb69  1  0.00922937  0.25775843  0.25181162  1
  Pb  Pb70  1  0.00455118  0.24415633  0.50603299  1
  Pb  Pb71  1  0.00737607  0.24795018  0.74685992  1
  Pb  Pb72  1  0.00079556  0.49992886  -0.01386583  1
  Pb  Pb73  1  0.00035316  0.50615235  0.25126635  1
  Pb  Pb74  1  0.01528401  0.50141486  0.51023927  1
  Pb  Pb75  1  0.00706939  0.49677605  0.75023569  1
  Pb  Pb76  1  0.00210800  0.74739814  -0.01228010  1
  Pb  Pb77  1  -0.00685673  0.75126369  0.25901488  1
  Pb  Pb78  1  0.00833968  0.74827846  0.50872560  1
  Pb  Pb79  1  0.00562846  0.75142731  0.74502005  1
  Pb  Pb80  1  0.25317330  0.00207631  -0.01125064  1
  Pb  Pb81  1  0.25288747  -0.00476812  0.24715236  1
  Pb  Pb82  1  0.24129044  0.00032255  0.50898502  1
  Pb  Pb83  1  0.24507307  0.00079598  0.75042485  1
  Pb  Pb84  1  0.24903055  0.25494175  -0.01090228  1
  Pb  Pb85  1  0.24763836  0.25782754  0.24789641  1
  Pb  Pb86  1  0.25156340  0.25709904  0.50307773  1
  Pb  Pb87  1  0.23855435  0.25661042  0.74959491  1
  Pb  Pb88  1  0.24476412  0.49613222  -0.01616725  1
  Pb  Pb89  1  0.24575265  0.48711046  0.25580956  1
  Pb  Pb90  1  0.25359744  0.49250699  0.50453344  1
  Pb  Pb91  1  0.25419937  0.49866774  0.73931544  1
  Pb  Pb92  1  0.24878397  0.75384385  -0.01570193  1
  Pb  Pb93  1  0.25620375  0.74834981  0.25341728  1
  Pb  Pb94  1  0.24788732  0.74561784  0.50779186  1
  Pb  Pb95  1  0.24636299  0.74522768  0.74513543  1
  Pb  Pb96  1  0.48728653  0.00210889  0.00853226  1
  Pb  Pb97  1  0.49816493  0.00365381  0.24759843  1
  Pb  Pb98  1  0.50459772  -0.00426104  0.49687390  1
  Pb  Pb99  1  0.49167795  -0.00110892  0.75440312  1
  Pb  Pb100  1  0.48277684  0.24864222  0.00861799  1
  Pb  Pb101  1  0.49561423  0.24837745  0.24623961  1
  Pb  Pb102  1  0.49385807  0.25293033  0.49722144  1
  Pb  Pb103  1  0.49104595  0.24553224  0.75524987  1
  Pb  Pb104  1  0.48769108  0.49464047  0.00200000  1
  Pb  Pb105  1  0.48272331  0.50594002  0.26111567  1
  Pb  Pb106  1  0.48706715  0.49621280  0.50230331  1
  Pb  Pb107  1  0.49177352  0.49979361  0.74874651  1
  Pb  Pb108  1  0.49051012  0.75506944  0.00288031  1
  Pb  Pb109  1  0.48791464  0.74687194  0.26007357  1
  Pb  Pb110  1  0.49751976  0.74822274  0.49943208  1
  Pb  Pb111  1  0.48938743  0.75187410  0.75218819  1
  Pb  Pb112  1  0.74869070  0.00890717  0.01232886  1
  Pb  Pb113  1  0.75236920  0.00081504  0.25494610  1
  Pb  Pb114  1  0.75346207  -0.00245680  0.49994697  1
  Pb  Pb115  1  0.75211200  -0.00397722  0.73842687  1
  Pb  Pb116  1  0.74780645  0.23674479  0.01243074  1
  Pb  Pb117  1  0.75041480  0.24538373  0.25411885  1
  Pb  Pb118  1  0.75254762  0.24497337  0.49773669  1
  Pb  Pb119  1  0.75198785  0.25342603  0.74858488  1
  Pb  Pb120  1  0.75155346  0.50134119  -0.00183391  1
  Pb  Pb121  1  0.75552061  0.50624192  0.25483308  1
  Pb  Pb122  1  0.74784411  0.49657447  0.50000843  1
  Pb  Pb123  1  0.75613289  0.49854556  0.75389029  1
  Pb  Pb124  1  0.74750019  0.75340744  0.00065435  1
  Pb  Pb125  1  0.76041912  0.75413363  0.26018856  1
  Pb  Pb126  1  0.75166142  0.75577547  0.50000741  1
  Pb  Pb127  1  0.75100997  0.74414324  0.74414237  1
  O  O128  1  0.12129485  -0.00190565  0.16640177  1
  O  O129  1  0.12560247  -0.00123953  0.41926057  1
  O  O130  1  0.12856008  0.00253314  0.66425699  1
  O  O131  1  0.11798652  0.00086055  0.90960573  1
  O  O132  1  0.12114962  0.24342553  0.16017679  1
  O  O133  1  0.12382698  0.24418929  0.41856590  1
  O  O134  1  0.12412131  0.25056784  0.65864858  1
  O  O135  1  0.12033744  0.24725531  0.91214935  1
  O  O136  1  0.12404676  0.50990067  0.16225855  1
  O  O137  1  0.12510815  0.50439010  0.41448953  1
  O  O138  1  0.12011416  0.49822370  0.66219565  1
  O  O139  1  0.12066877  0.50135926  0.90332536  1
  O  O140  1  0.12374445  0.74799770  0.16854556  1
  O  O141  1  0.12522396  0.75159482  0.41816401  1
  O  O142  1  0.12470463  0.75100042  0.66101649  1
  O  O143  1  0.12001035  0.75493166  0.90629029  1
  O  O144  1  0.37359953  -0.00054047  0.16624627  1
  O  O145  1  0.37597626  0.00401469  0.41201335  1
  O  O146  1  0.38492297  0.00377764  0.66252422  1
  O  O147  1  0.38342411  0.00065349  0.91519124  1
  O  O148  1  0.37389052  0.25020060  0.16422736  1
  O  O149  1  0.37588386  0.24211962  0.41277264  1
  O  O150  1  0.38443500  0.24196670  0.66288108  1
  O  O151  1  0.38365328  0.25199793  0.91274753  1
  O  O152  1  0.37532769  0.50879052  0.16672700  1
  O  O153  1  0.37639574  0.49838570  0.41538470  1
  O  O154  1  0.38280618  0.49936475  0.65897519  1
  O  O155  1  0.38254340  0.50103000  0.91118501  1
  O  O156  1  0.37772679  0.74398645  0.16734708  1
  O  O157  1  0.37561563  0.75348763  0.42057783  1
  O  O158  1  0.38231102  0.75610002  0.65509716  1
  O  O159  1  0.38161458  0.75075485  0.91431051  1
  O  O160  1  0.63122137  -0.01159287  0.16881873  1
  O  O161  1  0.62535776  -0.00238703  0.40626131  1
  O  O162  1  0.62528795  0.00740846  0.65320116  1
  O  O163  1  0.63003600  -0.00002694  0.91517965  1
  O  O164  1  0.63113393  0.26335019  0.16769845  1
  O  O165  1  0.62668187  0.25561344  0.40783005  1
  O  O166  1  0.62731374  0.25404650  0.65972509  1
  O  O167  1  0.63271863  0.24798198  0.91073861  1
  O  O168  1  0.63077486  0.49954802  0.17055947  1
  O  O169  1  0.62750568  0.49528315  0.41088678  1
  O  O170  1  0.62693819  0.49824986  0.66341433  1
  O  O171  1  0.62966359  0.50498405  0.90572403  1
  O  O172  1  0.62858610  0.75115967  0.17288230  1
  O  O173  1  0.62630145  0.74612340  0.40878245  1
  O  O174  1  0.62921751  0.73987942  0.65395507  1
  O  O175  1  0.62845234  0.75616300  0.91411565  1
  O  O176  1  0.87769821  -0.00527242  0.16896813  1
  O  O177  1  0.87297983  0.00529188  0.40934835  1
  O  O178  1  0.86696138  0.00242544  0.65443405  1
  O  O179  1  0.86616224  -0.00122290  0.91578305  1
  O  O180  1  0.87757765  0.25831912  0.16374898  1
  O  O181  1  0.87383553  0.25629869  0.41719905  1
  O  O182  1  0.86568969  0.25697663  0.65759796  1
  O  O183  1  0.86364961  0.24237558  0.91049329  1
  O  O184  1  0.87622069  0.50008099  0.16803612  1
  O  O185  1  0.87232529  0.49236318  0.41632215  1
  O  O186  1  0.86799667  0.49728024  0.66489444  1
  O  O187  1  0.86589814  0.50211435  0.91236259  1
  O  O188  1  0.87627532  0.74970093  0.17221683  1
  O  O189  1  0.87441981  0.74402297  0.42052055  1
  O  O190  1  0.86555976  0.74140584  0.65268663  1
  O  O191  1  0.86626871  0.76082875  0.91075067  1
  O  O192  1  0.00515324  0.12239196  0.16996690  1
  O  O193  1  -0.00313541  0.12655407  0.41769172  1
  O  O194  1  -0.00528708  0.12685950  0.65485989  1
  O  O195  1  -0.01317849  0.12167659  0.90749004  1
  O  O196  1  -0.00540926  0.37906723  0.16571124  1
  O  O197  1  -0.00630793  0.37350682  0.41458538  1
  O  O198  1  -0.01088860  0.37576680  0.65642377  1
  O  O199  1  -0.00746749  0.37333908  0.90989520  1
  O  O200  1  -0.00097310  0.62670365  0.16751695  1
  O  O201  1  0.00682324  0.62522270  0.41839049  1
  O  O202  1  -0.01317036  0.62169111  0.65895258  1
  O  O203  1  -0.00519900  0.62996206  0.90674631  1
  O  O204  1  0.00075351  0.87182237  0.17239217  1
  O  O205  1  0.00948751  0.87596261  0.42002637  1
  O  O206  1  -0.00721046  0.87484666  0.65626951  1
  O  O207  1  -0.01324809  0.87885340  0.90552329  1
  O  O208  1  0.23891706  0.12172492  0.16181726  1
  O  O209  1  0.25501526  0.12336590  0.41574145  1
  O  O210  1  0.26099559  0.12369926  0.65745263  1
  O  O211  1  0.25023373  0.12423268  0.90734857  1
  O  O212  1  0.24565384  0.37794479  0.16487143  1
  O  O213  1  0.25093863  0.37253819  0.41766777  1
  O  O214  1  0.25278512  0.37364059  0.65723148  1
  O  O215  1  0.25064655  0.37435112  0.90344491  1
  O  O216  1  0.25391867  0.62972278  0.15736480  1
  O  O217  1  0.24201611  0.62730872  0.41939096  1
  O  O218  1  0.25454421  0.62598893  0.65701705  1
  O  O219  1  0.24976912  0.62767416  0.90530366  1
  O  O220  1  0.24438147  0.87154923  0.16496201  1
  O  O221  1  0.24405975  0.87583268  0.41891545  1
  O  O222  1  0.26485300  0.87968689  0.66085802  1
  O  O223  1  0.25046607  0.87806714  0.90450372  1
  O  O224  1  0.50128014  0.12494803  0.16553317  1
  O  O225  1  0.49537326  0.12410350  0.40794200  1
  O  O226  1  0.50836241  0.12781817  0.66345404  1
  O  O227  1  0.51365172  0.12639899  0.91626572  1
  O  O228  1  0.50721204  0.38037820  0.16384671  1
  O  O229  1  0.50736968  0.37384047  0.40836739  1
  O  O230  1  0.51107060  0.37417567  0.66312090  1
  O  O231  1  0.51584206  0.37655075  0.91673018  1
  O  O232  1  0.49992422  0.62552991  0.17006201  1
  O  O233  1  0.51199860  0.62248441  0.41511713  1
  O  O234  1  0.50972341  0.62265032  0.65719112  1
  O  O235  1  0.51201793  0.62976937  0.91527034  1
  O  O236  1  0.50842899  0.87176107  0.16559937  1
  O  O237  1  0.50594792  0.87377045  0.41058774  1
  O  O238  1  0.49969421  0.87694821  0.66245658  1
  O  O239  1  0.51275807  0.87765766  0.91602496  1
  O  O240  1  0.75735039  0.12536895  0.17426010  1
  O  O241  1  0.75379336  0.12864563  0.41003317  1
  O  O242  1  0.74053259  0.12985177  0.65818988  1
  O  O243  1  0.74696627  0.12198625  0.92267262  1
  O  O244  1  0.75689692  0.37992609  0.16844027  1
  O  O245  1  0.74914671  0.37420803  0.41223412  1
  O  O246  1  0.74532643  0.37669309  0.66518169  1
  O  O247  1  0.74084994  0.37733970  0.92157758  1
  O  O248  1  0.75117973  0.62594431  0.17125408  1
  O  O249  1  0.74290080  0.62025226  0.41429071  1
  O  O250  1  0.74688469  0.61868163  0.66412224  1
  O  O251  1  0.74110592  0.63167752  0.91860426  1
  O  O252  1  0.75175576  0.87020671  0.17085677  1
  O  O253  1  0.74237555  0.87318028  0.41159121  1
  O  O254  1  0.74648831  0.87368134  0.66011031  1
  O  O255  1  0.74605116  0.87806368  0.91990942  1
  O  O256  1  0.11648136  0.11847827  0.04807231  1
  O  O257  1  0.12588258  0.12242242  0.30457477  1
  O  O258  1  0.12500002  0.11641262  0.53362437  1
  O  O259  1  0.12371659  0.13184166  0.77673791  1
  O  O260  1  0.11782889  0.37332641  0.03422719  1
  O  O261  1  0.12763191  0.37199739  0.29227469  1
  O  O262  1  0.12300458  0.37831110  0.53028866  1
  O  O263  1  0.11757684  0.36571765  0.77784960  1
  O  O264  1  0.11844770  0.63299373  0.04558001  1
  O  O265  1  0.12549021  0.62555435  0.30396229  1
  O  O266  1  0.11705001  0.62643420  0.53878484  1
  O  O267  1  0.11893499  0.63067702  0.77222602  1
  O  O268  1  0.11908489  0.87325081  0.04784513  1
  O  O269  1  0.12604709  0.87419666  0.30521530  1
  O  O270  1  0.12794998  0.88344663  0.54029255  1
  O  O271  1  0.12454394  0.87661732  0.77299973  1
  O  O272  1  0.38042172  0.12469690  0.03454769  1
  O  O273  1  0.37089981  0.12244399  0.29605742  1
  O  O274  1  0.38243673  0.12493469  0.54893606  1
  O  O275  1  0.38935269  0.12230087  0.78482234  1
  O  O276  1  0.38373730  0.37863146  0.03943622  1
  O  O277  1  0.36979095  0.38059520  0.28404375  1
  O  O278  1  0.38447394  0.36794660  0.53645001  1
  O  O279  1  0.38759797  0.37409524  0.77934767  1
  O  O280  1  0.38047471  0.62527278  0.04960071  1
  O  O281  1  0.37945137  0.62922632  0.29612985  1
  O  O282  1  0.38268671  0.62467975  0.52914609  1
  O  O283  1  0.38775732  0.63013959  0.78028067  1
  O  O284  1  0.38416824  0.87444426  0.04020228  1
  O  O285  1  0.36813632  0.86694850  0.28548163  1
  O  O286  1  0.38313592  0.88075838  0.54644015  1
  O  O287  1  0.39000986  0.87528374  0.78382825  1
  O  O288  1  0.64033342  0.12499558  0.04817070  1
  O  O289  1  0.62822648  0.12683745  0.27903845  1
  O  O290  1  0.62110075  0.12683449  0.54199139  1
  O  O291  1  0.62913584  0.11961094  0.80177529  1
  O  O292  1  0.62854484  0.38157051  0.05335087  1
  O  O293  1  0.62752735  0.37816091  0.29513252  1
  O  O294  1  0.62633128  0.37552472  0.54694292  1
  O  O295  1  0.63034831  0.36624174  0.79858412  1
  O  O296  1  0.62403855  0.62749043  0.05538653  1
  O  O297  1  0.62662466  0.62331445  0.29706172  1
  O  O298  1  0.62863241  0.61672099  0.54406181  1
  O  O299  1  0.62540004  0.62754489  0.79661895  1
  O  O300  1  0.62944523  0.86757736  0.05445248  1
  O  O301  1  0.62609633  0.87369154  0.29775809  1
  O  O302  1  0.62300761  0.87767274  0.52957911  1
  O  O303  1  0.62763336  0.87358426  0.79938090  1
  O  O304  1  0.86842554  0.12291929  0.03921924  1
  O  O305  1  0.88125859  0.13103850  0.30472584  1
  O  O306  1  0.86777217  0.13002925  0.52605623  1
  O  O307  1  0.86361026  0.12357307  0.79940122  1
  O  O308  1  0.87121929  0.37817850  0.05003886  1
  O  O309  1  0.87909907  0.37554618  0.29984654  1
  O  O310  1  0.86808756  0.37941327  0.54830203  1
  O  O311  1  0.86291675  0.37300809  0.78336495  1
  O  O312  1  0.87335248  0.62802258  0.05269419  1
  O  O313  1  0.87921931  0.62189513  0.28987026  1
  O  O314  1  0.86803297  0.61443769  0.54736518  1
  O  O315  1  0.86265823  0.62798957  0.78126933  1
  O  O316  1  0.87749064  0.87250871  0.05241013  1
  O  O317  1  0.88189920  0.86700485  0.29725644  1
  O  O318  1  0.86388933  0.87725527  0.52315513  1
  O  O319  1  0.86372143  0.88206029  0.79582544  1
