# generated using pymatgen
data_VFe(PbO3)2
_symmetry_space_group_name_H-M   'P 1'
_cell_length_a   15.38242827
_cell_length_b   15.40352607
_cell_length_c   18.49819542
_cell_angle_alpha   90.00154638
_cell_angle_beta   90.01929233
_cell_angle_gamma   90.00232872
_symmetry_Int_Tables_number   1
_chemical_formula_structural   VFe(PbO3)2
_chemical_formula_sum   'V32 Fe32 Pb64 O192'
_cell_volume   4383.02940794
_cell_formula_units_Z   32
loop_
 _symmetry_equiv_pos_site_id
 _symmetry_equiv_pos_as_xyz
  1  'x, y, z'
loop_
 _atom_site_type_symbol
 _atom_site_label
 _atom_site_symmetry_multiplicity
 _atom_site_fract_x
 _atom_site_fract_y
 _atom_site_fract_z
 _atom_site_occupancy
  V  V0  1  0.62364047  0.86826123  0.14891916  1
  V  V1  1  0.12754416  0.62508298  0.14015895  1
  V  V2  1  0.87464541  0.87550679  0.63783498  1
  V  V3  1  0.62172095  0.37756172  0.38989451  1
  V  V4  1  0.87625874  0.12203605  0.63733507  1
  V  V5  1  0.62496669  0.87776308  0.63683619  1
  V  V6  1  0.37519626  0.37554454  0.14233745  1
  V  V7  1  0.12558567  0.37587965  0.14499141  1
  V  V8  1  0.87108489  0.37726030  0.14254508  1
  V  V9  1  0.12613793  0.62290944  0.38881603  1
  V  V10  1  0.87353008  0.37793688  0.39055362  1
  V  V11  1  0.12576393  0.12948429  0.38254060  1
  V  V12  1  0.87615060  0.12029822  0.15482141  1
  V  V13  1  0.62674997  0.12593473  0.89255224  1
  V  V14  1  0.87560652  0.37167618  0.89160213  1
  V  V15  1  0.62188321  0.37644911  0.14188689  1
  V  V16  1  0.62132207  0.62161150  0.13978019  1
  V  V17  1  0.62954087  0.12231744  0.63563904  1
  V  V18  1  0.12309946  0.12496359  0.89329511  1
  V  V19  1  0.62362027  0.12162658  0.15484388  1
  V  V20  1  0.12603905  0.12148547  0.63352086  1
  V  V21  1  0.87566140  0.12627552  0.89340762  1
  V  V22  1  0.12272677  0.37259967  0.88644019  1
  V  V23  1  0.37385339  0.12459060  0.14661348  1
  V  V24  1  0.37585963  0.87480439  0.14392500  1
  V  V25  1  0.62731800  0.37656216  0.63898039  1
  V  V26  1  0.62402041  0.62573678  0.39247709  1
  V  V27  1  0.37376990  0.62376372  0.14225139  1
  V  V28  1  0.37319163  0.37746831  0.39485636  1
  V  V29  1  0.62650908  0.62455806  0.88620261  1
  V  V30  1  0.37392950  0.37013025  0.88599118  1
  V  V31  1  0.12183173  0.62735245  0.63572020  1
  Fe  Fe32  1  0.37717677  0.62534919  0.63468260  1
  Fe  Fe33  1  0.62738758  0.87415500  0.88558720  1
  Fe  Fe34  1  0.37526081  0.62537577  0.87845268  1
  Fe  Fe35  1  0.37407340  0.12562287  0.88518600  1
  Fe  Fe36  1  0.37388575  0.37197119  0.63194396  1
  Fe  Fe37  1  0.12351484  0.87476993  0.88180794  1
  Fe  Fe38  1  0.37464961  0.62361963  0.39392201  1
  Fe  Fe39  1  0.37844504  0.12454863  0.63001056  1
  Fe  Fe40  1  0.87406805  0.87083767  0.14704643  1
  Fe  Fe41  1  0.12530781  0.87242543  0.38086600  1
  Fe  Fe42  1  0.12394330  0.62264353  0.88091075  1
  Fe  Fe43  1  0.87587638  0.62345738  0.38744165  1
  Fe  Fe44  1  0.87416672  0.87313923  0.37443133  1
  Fe  Fe45  1  0.37646533  0.87349249  0.38905989  1
  Fe  Fe46  1  0.87251955  0.62691037  0.63247562  1
  Fe  Fe47  1  0.87348118  0.87804431  0.88951832  1
  Fe  Fe48  1  0.62517704  0.12901477  0.37683562  1
  Fe  Fe49  1  0.62518011  0.87365093  0.37879112  1
  Fe  Fe50  1  0.12556632  0.37766359  0.39491853  1
  Fe  Fe51  1  0.87458975  0.37214442  0.63132323  1
  Fe  Fe52  1  0.12847976  0.87445793  0.14309817  1
  Fe  Fe53  1  0.37436745  0.12719840  0.38579070  1
  Fe  Fe54  1  0.87516510  0.61925980  0.13973475  1
  Fe  Fe55  1  0.37663344  0.87877632  0.88367560  1
  Fe  Fe56  1  0.12621606  0.12700643  0.14054653  1
  Fe  Fe57  1  0.87536507  0.62396315  0.88682002  1
  Fe  Fe58  1  0.37419972  0.87760919  0.62956272  1
  Fe  Fe59  1  0.62844016  0.63132313  0.63137759  1
  Fe  Fe60  1  0.87748224  0.12705669  0.37414120  1
  Fe  Fe61  1  0.62710152  0.37286088  0.88418289  1
  Fe  Fe62  1  0.12171397  0.87794173  0.63466599  1
  Fe  Fe63  1  0.12165479  0.37422347  0.62761444  1
  Pb  Pb64  1  0.00508414  -0.01578706  0.00997686  1
  Pb  Pb65  1  0.00870919  -0.01287516  0.25202506  1
  Pb  Pb66  1  0.00439910  -0.00517841  0.48734758  1
  Pb  Pb67  1  -0.00123296  -0.00919945  0.75441475  1
  Pb  Pb68  1  0.00460075  0.24295051  0.00866095  1
  Pb  Pb69  1  -0.00079898  0.25223899  0.25486460  1
  Pb  Pb70  1  -0.00023528  0.25588914  0.49791859  1
  Pb  Pb71  1  -0.00007288  0.25167947  0.74334119  1
  Pb  Pb72  1  -0.00416207  0.50665477  0.00076780  1
  Pb  Pb73  1  0.00732208  0.49605243  0.25661174  1
  Pb  Pb74  1  -0.00130847  0.49593936  0.50293099  1
  Pb  Pb75  1  -0.00340333  0.50759975  0.74504752  1
  Pb  Pb76  1  0.00250716  0.75295769  -0.00483992  1
  Pb  Pb77  1  -0.00149235  0.75074159  0.24691022  1
  Pb  Pb78  1  -0.00238320  0.75229324  0.49134343  1
  Pb  Pb79  1  0.00853025  0.74714868  0.75373852  1
  Pb  Pb80  1  0.24308084  -0.00560614  0.00017084  1
  Pb  Pb81  1  0.24958536  -0.00610326  0.25469326  1
  Pb  Pb82  1  0.25157275  -0.00792152  0.49430176  1
  Pb  Pb83  1  0.25749216  -0.00860642  0.74625006  1
  Pb  Pb84  1  0.24443432  0.24414959  0.00360140  1
  Pb  Pb85  1  0.25322666  0.24915895  0.25673198  1
  Pb  Pb86  1  0.25760086  0.24808958  0.50260916  1
  Pb  Pb87  1  0.25465750  0.24667272  0.74126008  1
  Pb  Pb88  1  0.24943521  0.50177340  -0.00829322  1
  Pb  Pb89  1  0.24685233  0.49752752  0.25858066  1
  Pb  Pb90  1  0.25746348  0.50214776  0.50679410  1
  Pb  Pb91  1  0.24828565  0.50417391  0.73964586  1
  Pb  Pb92  1  0.24712031  0.75369861  -0.01116707  1
  Pb  Pb93  1  0.26111302  0.75061569  0.25878752  1
  Pb  Pb94  1  0.25199540  0.75895025  0.49978620  1
  Pb  Pb95  1  0.25166502  0.75477838  0.74287644  1
  Pb  Pb96  1  0.49779710  -0.00032682  -0.00126202  1
  Pb  Pb97  1  0.49721903  -0.00842272  0.26019652  1
  Pb  Pb98  1  0.49760273  0.00204688  0.48711036  1
  Pb  Pb99  1  0.49053100  -0.00039748  0.74938807  1
  Pb  Pb100  1  0.50055668  0.24960832  0.00075638  1
  Pb  Pb101  1  0.49644203  0.24244710  0.25748914  1
  Pb  Pb102  1  0.49456559  0.24623528  0.50034365  1
  Pb  Pb103  1  0.50060917  0.24724475  0.74681972  1
  Pb  Pb104  1  0.50141829  0.49916612  -0.00704608  1
  Pb  Pb105  1  0.49221246  0.50661457  0.25631372  1
  Pb  Pb106  1  0.49947707  0.50610512  0.50909269  1
  Pb  Pb107  1  0.49688473  0.50496216  0.74341669  1
  Pb  Pb108  1  0.49762182  0.75116675  -0.00721910  1
  Pb  Pb109  1  0.49410124  0.75107573  0.25946173  1
  Pb  Pb110  1  0.49184628  0.75415976  0.50075930  1
  Pb  Pb111  1  0.49029087  0.74988529  0.74562892  1
  Pb  Pb112  1  0.75725904  -0.00689502  0.00871697  1
  Pb  Pb113  1  0.74473014  -0.01085369  0.25842202  1
  Pb  Pb114  1  0.75127207  0.00184570  0.47924756  1
  Pb  Pb115  1  0.74967716  -0.00710723  0.75544656  1
  Pb  Pb116  1  0.75021877  0.24783440  0.00649592  1
  Pb  Pb117  1  0.74828237  0.24537297  0.25687802  1
  Pb  Pb118  1  0.75568546  0.25297791  0.49455660  1
  Pb  Pb119  1  0.74403209  0.25279720  0.75037333  1
  Pb  Pb120  1  0.75325548  0.50438754  0.00104230  1
  Pb  Pb121  1  0.75283230  0.50602183  0.25514845  1
  Pb  Pb122  1  0.75202761  0.50941743  0.50671453  1
  Pb  Pb123  1  0.75864869  0.50866943  0.74560567  1
  Pb  Pb124  1  0.76557593  0.75513390  0.00392106  1
  Pb  Pb125  1  0.76048411  0.74280702  0.25451675  1
  Pb  Pb126  1  0.75368657  0.74562665  0.49521792  1
  Pb  Pb127  1  0.75286855  0.75831886  0.75107240  1
  O  O128  1  0.12737194  0.00263286  0.16805949  1
  O  O129  1  0.12452774  0.00839082  0.40427449  1
  O  O130  1  0.11844308  0.00869755  0.66395862  1
  O  O131  1  0.12233330  0.00898509  0.91225736  1
  O  O132  1  0.12713708  0.25668864  0.16838085  1
  O  O133  1  0.12444499  0.24694324  0.40943454  1
  O  O134  1  0.11909128  0.23867388  0.65917168  1
  O  O135  1  0.12344966  0.25146737  0.92121219  1
  O  O136  1  0.13055484  0.50118485  0.17156683  1
  O  O137  1  0.12404246  0.50678602  0.41930261  1
  O  O138  1  0.12234190  0.50571645  0.65525296  1
  O  O139  1  0.12496920  0.49066026  0.91290800  1
  O  O140  1  0.12981405  0.73958035  0.16092551  1
  O  O141  1  0.12543245  0.74206415  0.41002773  1
  O  O142  1  0.12018926  0.74705952  0.66043969  1
  O  O143  1  0.12390055  0.74889879  0.91115174  1
  O  O144  1  0.37689335  -0.00436107  0.16553056  1
  O  O145  1  0.37605183  0.00171772  0.40544911  1
  O  O146  1  0.37781486  0.00214811  0.66084162  1
  O  O147  1  0.37695101  0.00434701  0.91899797  1
  O  O148  1  0.37406003  0.25732527  0.16578376  1
  O  O149  1  0.37577656  0.25807902  0.41377951  1
  O  O150  1  0.37685112  0.24729138  0.66361410  1
  O  O151  1  0.37396863  0.25322883  0.91727639  1
  O  O152  1  0.37480753  0.49673080  0.16791198  1
  O  O153  1  0.37818476  0.49453041  0.41839762  1
  O  O154  1  0.37642440  0.49721948  0.66107066  1
  O  O155  1  0.37538433  0.48888946  0.90838267  1
  O  O156  1  0.37684660  0.75005665  0.16661314  1
  O  O157  1  0.37627099  0.74717754  0.41643289  1
  O  O158  1  0.37744538  0.75249059  0.65814909  1
  O  O159  1  0.37738773  0.75015915  0.91084046  1
  O  O160  1  0.62070062  -0.00226958  0.17019827  1
  O  O161  1  0.62552184  0.00306376  0.40016110  1
  O  O162  1  0.63072990  0.00275900  0.66249572  1
  O  O163  1  0.62760565  0.01119879  0.91641811  1
  O  O164  1  0.62360418  0.26134525  0.16741249  1
  O  O165  1  0.62729788  0.26113297  0.41143766  1
  O  O166  1  0.62962454  0.24226711  0.66236519  1
  O  O167  1  0.62654725  0.24649287  0.92242989  1
  O  O168  1  0.61914425  0.49827073  0.16926527  1
  O  O169  1  0.62629708  0.49360517  0.41847939  1
  O  O170  1  0.62801141  0.49197477  0.65620811  1
  O  O171  1  0.62328454  0.50087302  0.91228400  1
  O  O172  1  0.61901408  0.74957043  0.16415325  1
  O  O173  1  0.62581091  0.74152405  0.40575916  1
  O  O174  1  0.63197783  0.76210670  0.65786714  1
  O  O175  1  0.62491305  0.74056601  0.91153415  1
  O  O176  1  0.87283987  0.00528959  0.16509993  1
  O  O177  1  0.87602642  0.00179670  0.39764480  1
  O  O178  1  0.87240707  0.00414192  0.66595085  1
  O  O179  1  0.87310181  0.00924499  0.92220181  1
  O  O180  1  0.87442723  0.26436957  0.16981227  1
  O  O181  1  0.87554483  0.25664170  0.40886745  1
  O  O182  1  0.87263687  0.23919351  0.66178065  1
  O  O183  1  0.87507520  0.25041917  0.92415988  1
  O  O184  1  0.87583373  0.49358807  0.17065322  1
  O  O185  1  0.87331045  0.49511717  0.41450345  1
  O  O186  1  0.87242647  0.49846540  0.65729441  1
  O  O187  1  0.87494431  0.48877764  0.91455521  1
  O  O188  1  0.87250939  0.74288386  0.16352868  1
  O  O189  1  0.87297972  0.74865769  0.40865087  1
  O  O190  1  0.87169576  0.76066164  0.65744151  1
  O  O191  1  0.87356127  0.74964149  0.91475516  1
  O  O192  1  -0.00494176  0.13300064  0.16663229  1
  O  O193  1  0.00553520  0.12908092  0.40531139  1
  O  O194  1  -0.00610382  0.12251378  0.66123241  1
  O  O195  1  0.00165700  0.13113208  0.92011026  1
  O  O196  1  0.00006360  0.37952275  0.16711825  1
  O  O197  1  -0.00671484  0.37736122  0.41173311  1
  O  O198  1  -0.00079736  0.37022579  0.66240086  1
  O  O199  1  -0.00385841  0.36987011  0.91583458  1
  O  O200  1  0.01028492  0.61875710  0.16094441  1
  O  O201  1  0.00548333  0.62315433  0.41136490  1
  O  O202  1  0.00124347  0.62664549  0.65929956  1
  O  O203  1  0.00028881  0.61953856  0.91709383  1
  O  O204  1  0.00182523  0.87188433  0.16517390  1
  O  O205  1  0.00006901  0.87341967  0.40438945  1
  O  O206  1  -0.00913209  0.88198030  0.66094980  1
  O  O207  1  -0.00024898  0.87969835  0.91713477  1
  O  O208  1  0.25498705  0.12812161  0.16924885  1
  O  O209  1  0.24273000  0.12953550  0.40926274  1
  O  O210  1  0.24252779  0.12399462  0.65288447  1
  O  O211  1  0.24234358  0.13011234  0.91387025  1
  O  O212  1  0.25527239  0.37746344  0.16924254  1
  O  O213  1  0.25641501  0.37767548  0.41411023  1
  O  O214  1  0.24534946  0.37094935  0.65927986  1
  O  O215  1  0.25199928  0.37073564  0.91091938  1
  O  O216  1  0.25099860  0.62171674  0.16863449  1
  O  O217  1  0.24405459  0.62144621  0.41477706  1
  O  O218  1  0.24288431  0.62639482  0.65717575  1
  O  O219  1  0.25105577  0.61961625  0.91021907  1
  O  O220  1  0.25913498  0.87244011  0.16549032  1
  O  O221  1  0.24791472  0.87411604  0.41074574  1
  O  O222  1  0.24763667  0.87775028  0.65896835  1
  O  O223  1  0.24895119  0.87973073  0.91216237  1
  O  O224  1  0.49545698  0.12832769  0.17102655  1
  O  O225  1  0.50234254  0.13299009  0.40810293  1
  O  O226  1  0.51163779  0.12366325  0.65740785  1
  O  O227  1  0.50717141  0.12975088  0.91618826  1
  O  O228  1  0.49369570  0.37717794  0.16606339  1
  O  O229  1  0.50280263  0.37632090  0.41415935  1
  O  O230  1  0.50929445  0.36785938  0.66088098  1
  O  O231  1  0.49443684  0.36996641  0.91193560  1
  O  O232  1  0.49768395  0.62301353  0.17065259  1
  O  O233  1  0.50763612  0.61725614  0.41579389  1
  O  O234  1  0.50601366  0.62552236  0.66204880  1
  O  O235  1  0.50454245  0.62027825  0.91149049  1
  O  O236  1  0.49663036  0.87367106  0.16975313  1
  O  O237  1  0.50399464  0.87224869  0.41302558  1
  O  O238  1  0.50967579  0.88049076  0.65495150  1
  O  O239  1  0.50435360  0.87776506  0.91797848  1
  O  O240  1  0.75204246  0.13101121  0.17164923  1
  O  O241  1  0.75142981  0.13173634  0.40256628  1
  O  O242  1  0.75027009  0.12276345  0.66289362  1
  O  O243  1  0.74843662  0.13075182  0.92070927  1
  O  O244  1  0.75104979  0.38090391  0.16192209  1
  O  O245  1  0.75042253  0.37606655  0.41184252  1
  O  O246  1  0.74606822  0.36733048  0.66332618  1
  O  O247  1  0.75692628  0.37024738  0.91596584  1
  O  O248  1  0.74111376  0.62011378  0.16432192  1
  O  O249  1  0.74341866  0.61786987  0.41317047  1
  O  O250  1  0.74928338  0.62784305  0.66666062  1
  O  O251  1  0.74356026  0.61863090  0.91298027  1
  O  O252  1  0.74046847  0.87552875  0.16464649  1
  O  O253  1  0.74940089  0.87362988  0.40540611  1
  O  O254  1  0.75311302  0.88245379  0.66477944  1
  O  O255  1  0.74739118  0.87747450  0.92390929  1
  O  O256  1  0.12647112  0.13300654  0.04030128  1
  O  O257  1  0.12760348  0.13163848  0.29069818  1
  O  O258  1  0.12040904  0.11965924  0.54252232  1
  O  O259  1  0.11960744  0.13028287  0.80290278  1
  O  O260  1  0.12712147  0.37900866  0.05389150  1
  O  O261  1  0.12636689  0.38734289  0.29368164  1
  O  O262  1  0.11502726  0.37333945  0.52641114  1
  O  O263  1  0.12073350  0.36786626  0.79571048  1
  O  O264  1  0.13247931  0.61749317  0.04933413  1
  O  O265  1  0.12754478  0.61898590  0.29693273  1
  O  O266  1  0.12040877  0.62947092  0.54487744  1
  O  O267  1  0.11611226  0.62475711  0.78104786  1
  O  O268  1  0.12722454  0.88104552  0.04145944  1
  O  O269  1  0.12849967  0.87509781  0.27886280  1
  O  O270  1  0.12114022  0.88254845  0.53422716  1
  O  O271  1  0.11588275  0.87573498  0.78081490  1
  O  O272  1  0.37489649  0.12713186  0.05498516  1
  O  O273  1  0.37280207  0.13730042  0.28458937  1
  O  O274  1  0.37565039  0.13409347  0.52921501  1
  O  O275  1  0.37823119  0.12330202  0.78570627  1
  O  O276  1  0.37343036  0.37613266  0.05156750  1
  O  O277  1  0.37606406  0.37900061  0.30295185  1
  O  O278  1  0.37581195  0.36969959  0.53195095  1
  O  O279  1  0.37414197  0.36553409  0.79515675  1
  O  O280  1  0.37501725  0.62207444  0.05152241  1
  O  O281  1  0.37816022  0.62483681  0.29230236  1
  O  O282  1  0.37827699  0.61705221  0.53264041  1
  O  O283  1  0.38012171  0.62549141  0.77831890  1
  O  O284  1  0.37943833  0.87408827  0.05299183  1
  O  O285  1  0.37738532  0.86542340  0.28616765  1
  O  O286  1  0.37413886  0.87559704  0.52818366  1
  O  O287  1  0.37853102  0.88307516  0.78264389  1
  O  O288  1  0.62352482  0.12839278  0.06328995  1
  O  O289  1  0.62293204  0.13716146  0.27426036  1
  O  O290  1  0.63183159  0.12268002  0.54487451  1
  O  O291  1  0.62842152  0.12953938  0.80154979  1
  O  O292  1  0.62064935  0.37763342  0.05035401  1
  O  O293  1  0.62117410  0.38086071  0.29882038  1
  O  O294  1  0.62913557  0.37015448  0.54787683  1
  O  O295  1  0.62833052  0.36409836  0.78575231  1
  O  O296  1  0.61741969  0.61855649  0.04897181  1
  O  O297  1  0.62331513  0.61598756  0.30075038  1
  O  O298  1  0.63128019  0.62371488  0.53156561  1
  O  O299  1  0.62651212  0.62469248  0.79529294  1
  O  O300  1  0.61802136  0.87418809  0.05797073  1
  O  O301  1  0.62024293  0.87439274  0.27756906  1
  O  O302  1  0.63119209  0.88081883  0.54623723  1
  O  O303  1  0.63530273  0.87780433  0.78601913  1
  O  O304  1  0.87073766  0.13502850  0.06341514  1
  O  O305  1  0.87670927  0.13968819  0.27275378  1
  O  O306  1  0.87619890  0.12021675  0.54650306  1
  O  O307  1  0.87540751  0.12719120  0.80256146  1
  O  O308  1  0.87448455  0.37688105  0.05128012  1
  O  O309  1  0.87335425  0.38027205  0.29890443  1
  O  O310  1  0.87637875  0.36626245  0.53151324  1
  O  O311  1  0.87593484  0.36754526  0.80074290  1
  O  O312  1  0.87115637  0.60959567  0.03899743  1
  O  O313  1  0.86571318  0.62117547  0.28586394  1
  O  O314  1  0.86555844  0.62922251  0.53140822  1
  O  O315  1  0.87604100  0.61621067  0.78670679  1
  O  O316  1  0.86922292  0.87804055  0.04477147  1
  O  O317  1  0.87027615  0.86932579  0.27180150  1
  O  O318  1  0.87219396  0.88050601  0.54692917  1
  O  O319  1  0.86970462  0.88350078  0.78912645  1
