# generated using pymatgen
data_VFe(PbO3)2
_symmetry_space_group_name_H-M   'P 1'
_cell_length_a   15.39399591
_cell_length_b   15.38455399
_cell_length_c   18.53487224
_cell_angle_alpha   90.02670367
_cell_angle_beta   90.02982187
_cell_angle_gamma   89.99369116
_symmetry_Int_Tables_number   1
_chemical_formula_structural   VFe(PbO3)2
_chemical_formula_sum   'V32 Fe32 Pb64 O192'
_cell_volume   4389.60827005
_cell_formula_units_Z   32
loop_
 _symmetry_equiv_pos_site_id
 _symmetry_equiv_pos_as_xyz
  1  'x, y, z'
loop_
 _atom_site_type_symbol
 _atom_site_label
 _atom_site_symmetry_multiplicity
 _atom_site_fract_x
 _atom_site_fract_y
 _atom_site_fract_z
 _atom_site_occupancy
  V  V0  1  0.62221297  0.12615038  0.64720112  1
  V  V1  1  0.87916681  0.13017185  0.89047080  1
  V  V2  1  0.62454024  0.38189687  0.38669479  1
  V  V3  1  0.88089932  0.88214555  0.88385803  1
  V  V4  1  0.62553294  0.12457746  0.13217448  1
  V  V5  1  0.62742113  0.63056485  0.38591571  1
  V  V6  1  0.87382101  0.87497509  0.39404144  1
  V  V7  1  0.62707977  0.87658220  0.13075873  1
  V  V8  1  0.87632248  0.12689216  0.63961926  1
  V  V9  1  0.12886707  0.87017936  0.38818708  1
  V  V10  1  0.12504304  0.62802421  0.14553285  1
  V  V11  1  0.37623557  0.87282247  0.64579115  1
  V  V12  1  0.88038298  0.62705496  0.88737609  1
  V  V13  1  0.87983089  0.37842690  0.89298950  1
  V  V14  1  0.87193421  0.37950187  0.63731097  1
  V  V15  1  0.12587635  0.13002809  0.89187756  1
  V  V16  1  0.87627743  0.87490670  0.13754736  1
  V  V17  1  0.62473103  0.87594193  0.39041843  1
  V  V18  1  0.62676020  0.12896841  0.38697163  1
  V  V19  1  0.37896619  0.37667986  0.63637791  1
  V  V20  1  0.13074398  0.87038170  0.13307709  1
  V  V21  1  0.62380009  0.62259735  0.64738243  1
  V  V22  1  0.12600283  0.87438648  0.64013832  1
  V  V23  1  0.36867897  0.37387483  0.89494680  1
  V  V24  1  0.12742702  0.62383271  0.63762727  1
  V  V25  1  0.12324311  0.36618236  0.15258373  1
  V  V26  1  0.12657610  0.61942978  0.89221574  1
  V  V27  1  0.37375565  0.62235569  0.89349850  1
  V  V28  1  0.62628915  0.87444718  0.65279386  1
  V  V29  1  0.87159567  0.62285912  0.39245916  1
  V  V30  1  0.37488222  0.12671483  0.89186133  1
  V  V31  1  0.87534176  0.62634662  0.13779992  1
  Fe  Fe32  1  0.37856140  0.87347145  0.38489102  1
  Fe  Fe33  1  0.37804282  0.87414729  0.12293737  1
  Fe  Fe34  1  0.12789569  0.12411859  0.62941951  1
  Fe  Fe35  1  0.87362093  0.12168512  0.13761684  1
  Fe  Fe36  1  0.36865150  0.87639785  0.89481656  1
  Fe  Fe37  1  0.12347874  0.12060092  0.37840699  1
  Fe  Fe38  1  0.87005887  0.12330328  0.38297997  1
  Fe  Fe39  1  0.62622431  0.37628451  0.12626910  1
  Fe  Fe40  1  0.12299383  0.87928790  0.88831854  1
  Fe  Fe41  1  0.12570257  0.37444084  0.62929984  1
  Fe  Fe42  1  0.62578062  0.62320880  0.89738758  1
  Fe  Fe43  1  0.87449130  0.62551601  0.63820878  1
  Fe  Fe44  1  0.62542134  0.37558457  0.63682859  1
  Fe  Fe45  1  0.37642611  0.12548737  0.63378646  1
  Fe  Fe46  1  0.12475806  0.37477527  0.88904672  1
  Fe  Fe47  1  0.62518420  0.87695507  0.87942183  1
  Fe  Fe48  1  0.12516962  0.11759316  0.15066216  1
  Fe  Fe49  1  0.37595210  0.62389139  0.64042012  1
  Fe  Fe50  1  0.37853279  0.12212438  0.38781366  1
  Fe  Fe51  1  0.87029799  0.37435799  0.37766707  1
  Fe  Fe52  1  0.62323078  0.37323659  0.89825137  1
  Fe  Fe53  1  0.87324953  0.87473281  0.63857939  1
  Fe  Fe54  1  0.37806584  0.62811297  0.38368757  1
  Fe  Fe55  1  0.37811299  0.37551815  0.37545982  1
  Fe  Fe56  1  0.87707187  0.37493100  0.14346794  1
  Fe  Fe57  1  0.37584020  0.12114458  0.13364977  1
  Fe  Fe58  1  0.12415067  0.37733223  0.37404264  1
  Fe  Fe59  1  0.12361657  0.63039850  0.38078118  1
  Fe  Fe60  1  0.37619465  0.62830152  0.13011575  1
  Fe  Fe61  1  0.37432990  0.37547728  0.14251941  1
  Fe  Fe62  1  0.62672679  0.12739348  0.88432688  1
  Fe  Fe63  1  0.62753105  0.62910527  0.12316787  1
  Pb  Pb64  1  0.00590439  0.01728395  0.01102284  1
  Pb  Pb65  1  -0.00142902  0.00289298  0.25347693  1
  Pb  Pb66  1  0.00391906  0.00603466  0.49642626  1
  Pb  Pb67  1  0.00542702  -0.00187457  0.74744135  1
  Pb  Pb68  1  -0.00705516  0.24995655  0.01135482  1
  Pb  Pb69  1  -0.00648212  0.23851665  0.25296016  1
  Pb  Pb70  1  0.00543372  0.25078320  0.48405219  1
  Pb  Pb71  1  0.00744900  0.25366348  0.74499128  1
  Pb  Pb72  1  -0.00278414  0.48989813  0.00965399  1
  Pb  Pb73  1  0.00682092  0.50138031  0.25687809  1
  Pb  Pb74  1  0.00768042  0.49048608  0.49249640  1
  Pb  Pb75  1  0.00566611  0.49247400  0.74850737  1
  Pb  Pb76  1  0.00054096  0.74946703  -0.00054118  1
  Pb  Pb77  1  0.00237013  0.74951860  0.25509753  1
  Pb  Pb78  1  -0.01166996  0.74966566  0.50477349  1
  Pb  Pb79  1  0.00247045  0.75103201  0.74856634  1
  Pb  Pb80  1  0.24618355  0.01106109  0.00534152  1
  Pb  Pb81  1  0.25958496  0.01014790  0.25466991  1
  Pb  Pb82  1  0.25108779  0.01190230  0.49738484  1
  Pb  Pb83  1  0.25122288  -0.00545723  0.75363250  1
  Pb  Pb84  1  0.25447680  0.24880690  0.01175410  1
  Pb  Pb85  1  0.26133597  0.24387861  0.25304475  1
  Pb  Pb86  1  0.24346214  0.25099379  0.48364262  1
  Pb  Pb87  1  0.24785034  0.24865988  0.73969466  1
  Pb  Pb88  1  0.25930594  0.49702284  0.01260942  1
  Pb  Pb89  1  0.25415090  0.49759565  0.25287513  1
  Pb  Pb90  1  0.24855761  0.49685283  0.48523283  1
  Pb  Pb91  1  0.24738878  0.49301159  0.74691758  1
  Pb  Pb92  1  0.25222895  0.75105743  0.00093142  1
  Pb  Pb93  1  0.26751842  0.74974474  0.25246648  1
  Pb  Pb94  1  0.25673771  0.74155441  0.49744828  1
  Pb  Pb95  1  0.25098623  0.76058896  0.75920979  1
  Pb  Pb96  1  0.49754614  -0.00545601  -0.00719692  1
  Pb  Pb97  1  0.48978496  -0.00388373  0.24628927  1
  Pb  Pb98  1  0.49540994  0.00205922  0.50230042  1
  Pb  Pb99  1  0.49706314  -0.00612288  0.75767856  1
  Pb  Pb100  1  0.49659065  0.25301459  0.00346723  1
  Pb  Pb101  1  0.49591846  0.25277483  0.24269748  1
  Pb  Pb102  1  0.49317182  0.24973486  0.49763192  1
  Pb  Pb103  1  0.50749933  0.25320002  0.75420589  1
  Pb  Pb104  1  0.49697754  0.49727366  0.00541834  1
  Pb  Pb105  1  0.49906702  0.50469762  0.23407101  1
  Pb  Pb106  1  0.49184552  0.50338702  0.49720845  1
  Pb  Pb107  1  0.50932770  0.49675206  0.76064893  1
  Pb  Pb108  1  0.49683048  0.75297777  -0.00568517  1
  Pb  Pb109  1  0.49319297  0.74886685  0.24324947  1
  Pb  Pb110  1  0.49678830  0.74489237  0.50315749  1
  Pb  Pb111  1  0.50391951  0.74858937  0.76051826  1
  Pb  Pb112  1  0.75304906  0.00521132  -0.00666135  1
  Pb  Pb113  1  0.75026673  0.00366042  0.24939568  1
  Pb  Pb114  1  0.75133790  -0.00602689  0.50358938  1
  Pb  Pb115  1  0.74531657  0.00554889  0.75388446  1
  Pb  Pb116  1  0.75132503  0.25656093  0.00189259  1
  Pb  Pb117  1  0.75770638  0.25300962  0.24529174  1
  Pb  Pb118  1  0.74754595  0.25549841  0.49768395  1
  Pb  Pb119  1  0.74564704  0.25043613  0.75523122  1
  Pb  Pb120  1  0.74406203  0.49711110  0.00322010  1
  Pb  Pb121  1  0.74760763  0.49487480  0.24120866  1
  Pb  Pb122  1  0.74467339  0.49679392  0.50208734  1
  Pb  Pb123  1  0.73623396  0.49946467  0.76351482  1
  Pb  Pb124  1  0.74502895  0.74916906  -0.00623812  1
  Pb  Pb125  1  0.74742636  0.75209868  0.24561127  1
  Pb  Pb126  1  0.75482935  0.74924483  0.50909486  1
  Pb  Pb127  1  0.74718477  0.74696887  0.75461225  1
  O  O128  1  0.12296119  -0.02030604  0.16650431  1
  O  O129  1  0.12220188  -0.01238119  0.41208667  1
  O  O130  1  0.12717656  -0.00615329  0.66174043  1
  O  O131  1  0.12361232  0.01023535  0.91508279  1
  O  O132  1  0.12302579  0.25058449  0.16623302  1
  O  O133  1  0.12283509  0.24917089  0.39740587  1
  O  O134  1  0.12349190  0.25000224  0.65952835  1
  O  O135  1  0.12332385  0.24541150  0.91806244  1
  O  O136  1  0.11931907  0.51388544  0.16414771  1
  O  O137  1  0.12142619  0.50509373  0.40740430  1
  O  O138  1  0.12473187  0.50331658  0.65983797  1
  O  O139  1  0.12259146  0.50444586  0.92119839  1
  O  O140  1  0.11435458  0.75743218  0.16686281  1
  O  O141  1  0.11854199  0.75540256  0.41731175  1
  O  O142  1  0.12718359  0.75179558  0.66381098  1
  O  O143  1  0.12008957  0.73771139  0.91553207  1
  O  O144  1  0.37597696  -0.00651559  0.15928866  1
  O  O145  1  0.38085629  -0.00454063  0.41703441  1
  O  O146  1  0.37546148  -0.00720438  0.66652584  1
  O  O147  1  0.36901392  0.01037439  0.91065097  1
  O  O148  1  0.37494286  0.24644773  0.16399784  1
  O  O149  1  0.38170337  0.25030835  0.40940689  1
  O  O150  1  0.37842523  0.25786620  0.66159058  1
  O  O151  1  0.36914146  0.25134123  0.91777541  1
  O  O152  1  0.37135403  0.50487373  0.15995188  1
  O  O153  1  0.38123997  0.50072869  0.40812371  1
  O  O154  1  0.37507861  0.49421669  0.66554011  1
  O  O155  1  0.36865240  0.49788631  0.91827152  1
  O  O156  1  0.37644687  0.75409229  0.16002676  1
  O  O157  1  0.38026476  0.75227132  0.42013201  1
  O  O158  1  0.37426722  0.75377830  0.67156216  1
  O  O159  1  0.36935207  0.74062273  0.90968900  1
  O  O160  1  0.62887345  -0.00571017  0.16032020  1
  O  O161  1  0.62718608  -0.00495372  0.41340069  1
  O  O162  1  0.62521301  0.00526676  0.67022834  1
  O  O163  1  0.62903438  0.00124684  0.90998349  1
  O  O164  1  0.62489547  0.24007738  0.15098745  1
  O  O165  1  0.62654503  0.24806937  0.40693938  1
  O  O166  1  0.62617552  0.24787778  0.66748943  1
  O  O167  1  0.62496999  0.24776378  0.91772101  1
  O  O168  1  0.62946176  0.50408514  0.15006926  1
  O  O169  1  0.62803664  0.50073456  0.40938710  1
  O  O170  1  0.62591949  0.50233067  0.66979607  1
  O  O171  1  0.62655948  0.49836148  0.92010615  1
  O  O172  1  0.63330167  0.75882051  0.15392098  1
  O  O173  1  0.62852246  0.75329863  0.41545983  1
  O  O174  1  0.62322088  0.74537651  0.67209827  1
  O  O175  1  0.62958173  0.75252555  0.90883884  1
  O  O176  1  0.86964546  -0.00877095  0.16255583  1
  O  O177  1  0.86697719  -0.00401768  0.41774843  1
  O  O178  1  0.87310386  0.00783361  0.66538940  1
  O  O179  1  0.87956847  -0.00149121  0.90694636  1
  O  O180  1  0.87608607  0.24676518  0.16425003  1
  O  O181  1  0.86818558  0.24929853  0.40923249  1
  O  O182  1  0.87378629  0.24675001  0.66479553  1
  O  O183  1  0.88153159  0.25403010  0.91673847  1
  O  O184  1  0.87685771  0.51121316  0.15991700  1
  O  O185  1  0.86680100  0.50615352  0.41010987  1
  O  O186  1  0.87672685  0.49463588  0.65884141  1
  O  O187  1  0.88043018  0.49715783  0.91489218  1
  O  O188  1  0.87126830  0.75297024  0.16558487  1
  O  O189  1  0.86809786  0.74934798  0.42003558  1
  O  O190  1  0.87686975  0.74935117  0.67133739  1
  O  O191  1  0.88071092  0.74581096  0.90423408  1
  O  O192  1  -0.00219438  0.11661404  0.16839868  1
  O  O193  1  -0.00276120  0.11813346  0.40688870  1
  O  O194  1  -0.00518329  0.12430712  0.65976038  1
  O  O195  1  0.00283155  0.12694656  0.91821166  1
  O  O196  1  0.00533491  0.38020263  0.17059426  1
  O  O197  1  -0.00440304  0.37837268  0.40300805  1
  O  O198  1  -0.00798901  0.37251803  0.66135620  1
  O  O199  1  -0.00118936  0.37527364  0.92136478  1
  O  O200  1  -0.00703471  0.63405654  0.16790957  1
  O  O201  1  -0.01188075  0.62978219  0.41068164  1
  O  O202  1  0.01008069  0.62659432  0.66471426  1
  O  O203  1  -0.00221667  0.62011686  0.91671095  1
  O  O204  1  -0.01103502  0.87316586  0.16310249  1
  O  O205  1  -0.00378200  0.87301331  0.41436720  1
  O  O206  1  0.00598284  0.87562650  0.66245964  1
  O  O207  1  -0.00536344  0.87199808  0.91423404  1
  O  O208  1  0.25148368  0.11922094  0.16806515  1
  O  O209  1  0.24949363  0.11968747  0.40661749  1
  O  O210  1  0.25243115  0.12520475  0.66196204  1
  O  O211  1  0.24646598  0.12921005  0.91593894  1
  O  O212  1  0.24168590  0.38037159  0.16697364  1
  O  O213  1  0.25131788  0.37657171  0.40218218  1
  O  O214  1  0.25620539  0.37553379  0.65724704  1
  O  O215  1  0.25120341  0.37462749  0.91988098  1
  O  O216  1  0.24063171  0.63610729  0.15822425  1
  O  O217  1  0.24979896  0.62988005  0.40909987  1
  O  O218  1  0.24317989  0.62498476  0.66540299  1
  O  O219  1  0.24474100  0.62144644  0.91554904  1
  O  O220  1  0.24443467  0.86437135  0.13350690  1
  O  O221  1  0.24444438  0.87012916  0.40872684  1
  O  O222  1  0.25019827  0.87345533  0.66633677  1
  O  O223  1  0.24267532  0.87363796  0.92046133  1
  O  O224  1  0.50912503  0.11737966  0.15762358  1
  O  O225  1  0.51257913  0.12141273  0.41684751  1
  O  O226  1  0.50399328  0.12566150  0.66749433  1
  O  O227  1  0.49157457  0.12879704  0.91002914  1
  O  O228  1  0.50432604  0.37480950  0.15909223  1
  O  O229  1  0.50963627  0.37487073  0.40991755  1
  O  O230  1  0.49693115  0.37669974  0.66502710  1
  O  O231  1  0.48740970  0.37508999  0.91759455  1
  O  O232  1  0.50359195  0.63039322  0.15123928  1
  O  O233  1  0.50914168  0.62785102  0.41461023  1
  O  O234  1  0.50479950  0.62421453  0.67250891  1
  O  O235  1  0.49063766  0.62031790  0.91086827  1
  O  O236  1  0.51098181  0.87458095  0.14802778  1
  O  O237  1  0.51033917  0.87315389  0.41604899  1
  O  O238  1  0.49464550  0.87350633  0.67237036  1
  O  O239  1  0.49909382  0.87600338  0.90765899  1
  O  O240  1  0.74209966  0.11852201  0.16061504  1
  O  O241  1  0.74011833  0.12117091  0.41769658  1
  O  O242  1  0.75064512  0.12685452  0.66851783  1
  O  O243  1  0.75862723  0.12704785  0.91225009  1
  O  O244  1  0.74830183  0.37466954  0.16027250  1
  O  O245  1  0.74271996  0.37576684  0.41490023  1
  O  O246  1  0.75731504  0.37268460  0.66607117  1
  O  O247  1  0.76209262  0.37374892  0.91416888  1
  O  O248  1  0.75730955  0.63086144  0.15930613  1
  O  O249  1  0.74798053  0.62772019  0.42022137  1
  O  O250  1  0.74383367  0.62476516  0.66961495  1
  O  O251  1  0.76546104  0.62141602  0.91232022  1
  O  O252  1  0.75115923  0.87506427  0.16392429  1
  O  O253  1  0.74485662  0.87381142  0.42093178  1
  O  O254  1  0.74849562  0.87551288  0.67110746  1
  O  O255  1  0.76406757  0.87417652  0.90579530  1
  O  O256  1  0.12363679  0.11320677  0.04797811  1
  O  O257  1  0.12331505  0.11032462  0.27666376  1
  O  O258  1  0.12504943  0.11813544  0.52977996  1
  O  O259  1  0.12456897  0.12962394  0.80076458  1
  O  O260  1  0.12134876  0.37693209  0.06056990  1
  O  O261  1  0.12635356  0.39104653  0.27291310  1
  O  O262  1  0.11946473  0.37782346  0.53019166  1
  O  O263  1  0.12052434  0.37932178  0.78943417  1
  O  O264  1  0.11551718  0.63238758  0.05452640  1
  O  O265  1  0.11587949  0.63387510  0.28089107  1
  O  O266  1  0.12669332  0.62653547  0.54718321  1
  O  O267  1  0.12503958  0.61710477  0.80129309  1
  O  O268  1  0.10698408  0.87075535  0.04312940  1
  O  O269  1  0.12449174  0.86731347  0.29740258  1
  O  O270  1  0.12885402  0.87234137  0.55013087  1
  O  O271  1  0.12704656  0.87760785  0.78792647  1
  O  O272  1  0.36729310  0.12821722  0.03336155  1
  O  O273  1  0.38095182  0.11475664  0.28619756  1
  O  O274  1  0.38307372  0.12121126  0.53380305  1
  O  O275  1  0.37100630  0.13154479  0.80101027  1
  O  O276  1  0.36796875  0.37375580  0.04039170  1
  O  O277  1  0.37875239  0.37454377  0.27464348  1
  O  O278  1  0.38384334  0.37839987  0.54529772  1
  O  O279  1  0.36883940  0.37462933  0.80428971  1
  O  O280  1  0.36823800  0.62375057  0.02943118  1
  O  O281  1  0.37726301  0.64178117  0.28327257  1
  O  O282  1  0.38274881  0.62825080  0.54123038  1
  O  O283  1  0.36834915  0.61705694  0.80257763  1
  O  O284  1  0.38289674  0.87188010  0.02117172  1
  O  O285  1  0.38267650  0.86767025  0.28453645  1
  O  O286  1  0.37795175  0.87092193  0.55509025  1
  O  O287  1  0.36110569  0.87794015  0.79263373  1
  O  O288  1  0.62807735  0.11772024  0.04113283  1
  O  O289  1  0.62669608  0.12404833  0.29632046  1
  O  O290  1  0.62535029  0.12553876  0.55650570  1
  O  O291  1  0.62872276  0.13324203  0.78394644  1
  O  O292  1  0.62835868  0.37170290  0.02476741  1
  O  O293  1  0.62754680  0.38007931  0.29595427  1
  O  O294  1  0.63081949  0.37770036  0.53799744  1
  O  O295  1  0.62378161  0.37986893  0.79474925  1
  O  O296  1  0.63438321  0.63151975  0.02182066  1
  O  O297  1  0.63028476  0.63117950  0.29496304  1
  O  O298  1  0.62292345  0.62254031  0.55659098  1
  O  O299  1  0.62720754  0.61435120  0.79479725  1
  O  O300  1  0.63557582  0.87956414  0.03950503  1
  O  O301  1  0.62566082  0.87372843  0.29957743  1
  O  O302  1  0.62108806  0.87457607  0.56164781  1
  O  O303  1  0.62023577  0.87703410  0.77814080  1
  O  O304  1  0.88191315  0.12185648  0.03635116  1
  O  O305  1  0.86678027  0.11865391  0.28252405  1
  O  O306  1  0.87086844  0.12648391  0.54912790  1
  O  O307  1  0.88213933  0.13061217  0.79948132  1
  O  O308  1  0.88489170  0.37332411  0.04222413  1
  O  O309  1  0.86176064  0.37693826  0.27745692  1
  O  O310  1  0.86826590  0.37475114  0.54622563  1
  O  O311  1  0.88292837  0.37720675  0.80200742  1
  O  O312  1  0.87964948  0.62996756  0.04673876  1
  O  O313  1  0.86536661  0.62929902  0.30183165  1
  O  O314  1  0.87145892  0.63450939  0.53909041  1
  O  O315  1  0.88204366  0.61979618  0.79652916  1
  O  O316  1  0.87573623  0.87346066  0.04652553  1
  O  O317  1  0.86817619  0.87297527  0.30304991  1
  O  O318  1  0.86868748  0.86972421  0.53899074  1
  O  O319  1  0.88610949  0.88150071  0.79258719  1
