# generated using pymatgen
data_VFe(PbO3)2
_symmetry_space_group_name_H-M   'P 1'
_cell_length_a   15.38244456
_cell_length_b   15.37816514
_cell_length_c   18.44420491
_cell_angle_alpha   89.99127709
_cell_angle_beta   90.01714968
_cell_angle_gamma   90.00192418
_symmetry_Int_Tables_number   1
_chemical_formula_structural   VFe(PbO3)2
_chemical_formula_sum   'V32 Fe32 Pb64 O192'
_cell_volume   4363.04600623
_cell_formula_units_Z   32
loop_
 _symmetry_equiv_pos_site_id
 _symmetry_equiv_pos_as_xyz
  1  'x, y, z'
loop_
 _atom_site_type_symbol
 _atom_site_label
 _atom_site_symmetry_multiplicity
 _atom_site_fract_x
 _atom_site_fract_y
 _atom_site_fract_z
 _atom_site_occupancy
  V  V0  1  0.12129033  0.12483159  0.14551598  1
  V  V1  1  0.37624818  0.87739492  0.13919815  1
  V  V2  1  0.87680293  0.37439850  0.14705829  1
  V  V3  1  0.37291794  0.37501729  0.13744391  1
  V  V4  1  0.12947707  0.62654742  0.38234500  1
  V  V5  1  0.87738205  0.87610757  0.14887622  1
  V  V6  1  0.87373717  0.12537540  0.14365797  1
  V  V7  1  0.62629613  0.12474932  0.88900694  1
  V  V8  1  0.12859163  0.12396449  0.38870053  1
  V  V9  1  0.12423353  0.62555738  0.14357354  1
  V  V10  1  0.62113318  0.62483369  0.38575206  1
  V  V11  1  0.62248206  0.12761723  0.38900486  1
  V  V12  1  0.37595545  0.37621690  0.63751209  1
  V  V13  1  0.12420562  0.12373973  0.88620012  1
  V  V14  1  0.12531784  0.37298178  0.89014969  1
  V  V15  1  0.37682641  0.87628022  0.88942082  1
  V  V16  1  0.12508180  0.87240449  0.88816639  1
  V  V17  1  0.62570677  0.37464209  0.89199462  1
  V  V18  1  0.12320379  0.62260440  0.89290142  1
  V  V19  1  0.62536400  0.87395151  0.88658249  1
  V  V20  1  0.12353217  0.62115860  0.63557200  1
  V  V21  1  0.87421181  0.87419040  0.88943861  1
  V  V22  1  0.37855407  0.37492455  0.38452534  1
  V  V23  1  0.62763159  0.87737165  0.14274966  1
  V  V24  1  0.62737403  0.62512646  0.89441822  1
  V  V25  1  0.37450058  0.62371558  0.63795897  1
  V  V26  1  0.62636896  0.37760482  0.63577487  1
  V  V27  1  0.87492529  0.62553641  0.14406853  1
  V  V28  1  0.87607760  0.87249962  0.63246745  1
  V  V29  1  0.37535476  0.87478515  0.39144133  1
  V  V30  1  0.37252578  0.12547060  0.14049825  1
  V  V31  1  0.62463721  0.87583799  0.39167455  1
  Fe  Fe32  1  0.12503855  0.87725485  0.15097789  1
  Fe  Fe33  1  0.87641175  0.37715239  0.62598484  1
  Fe  Fe34  1  0.62795969  0.62753907  0.13638000  1
  Fe  Fe35  1  0.62372830  0.87198969  0.63392276  1
  Fe  Fe36  1  0.62295194  0.62093454  0.63236411  1
  Fe  Fe37  1  0.37396673  0.62667504  0.13905893  1
  Fe  Fe38  1  0.87438715  0.37704448  0.88742295  1
  Fe  Fe39  1  0.12624936  0.87194331  0.63436826  1
  Fe  Fe40  1  0.87416892  0.87521488  0.38378861  1
  Fe  Fe41  1  0.12700007  0.87466556  0.37803433  1
  Fe  Fe42  1  0.12827831  0.37540813  0.38070817  1
  Fe  Fe43  1  0.37559642  0.12399850  0.39539572  1
  Fe  Fe44  1  0.87454745  0.12596807  0.62492019  1
  Fe  Fe45  1  0.37382462  0.87260637  0.63170049  1
  Fe  Fe46  1  0.12546754  0.12638096  0.62810177  1
  Fe  Fe47  1  0.62212735  0.37555328  0.37705132  1
  Fe  Fe48  1  0.87815916  0.62342323  0.89041974  1
  Fe  Fe49  1  0.37681895  0.37512244  0.89069329  1
  Fe  Fe50  1  0.12840289  0.37758481  0.62936484  1
  Fe  Fe51  1  0.37316459  0.12717963  0.88712673  1
  Fe  Fe52  1  0.87702343  0.12729223  0.88649872  1
  Fe  Fe53  1  0.62539999  0.12212393  0.13753154  1
  Fe  Fe54  1  0.12249639  0.37320644  0.15085890  1
  Fe  Fe55  1  0.87402762  0.12186478  0.39345088  1
  Fe  Fe56  1  0.37422124  0.62397343  0.89654600  1
  Fe  Fe57  1  0.37602326  0.12578697  0.62553734  1
  Fe  Fe58  1  0.62486430  0.12748770  0.63087244  1
  Fe  Fe59  1  0.62467435  0.37274598  0.14485309  1
  Fe  Fe60  1  0.37468479  0.62566294  0.37901880  1
  Fe  Fe61  1  0.87218227  0.37480361  0.38603431  1
  Fe  Fe62  1  0.87440833  0.62370053  0.62432261  1
  Fe  Fe63  1  0.87508515  0.62829178  0.39232491  1
  Pb  Pb64  1  0.00588943  -0.00510098  0.00225250  1
  Pb  Pb65  1  -0.00793347  0.00318903  0.26162118  1
  Pb  Pb66  1  0.00310914  0.00202308  0.49445938  1
  Pb  Pb67  1  -0.00037297  0.00644879  0.73940606  1
  Pb  Pb68  1  0.00018844  0.25390799  0.00126928  1
  Pb  Pb69  1  -0.01299324  0.25046968  0.26377329  1
  Pb  Pb70  1  0.00118959  0.25276401  0.49366189  1
  Pb  Pb71  1  -0.00253928  0.25223996  0.73550605  1
  Pb  Pb72  1  0.00422125  0.49283941  0.00716231  1
  Pb  Pb73  1  -0.01199933  0.49882561  0.26143371  1
  Pb  Pb74  1  -0.00162110  0.49371794  0.49089642  1
  Pb  Pb75  1  -0.01127056  0.49354885  0.74495705  1
  Pb  Pb76  1  0.00719909  0.75686550  0.00577386  1
  Pb  Pb77  1  -0.00713861  0.74690055  0.25915716  1
  Pb  Pb78  1  0.00090180  0.75382418  0.49091441  1
  Pb  Pb79  1  -0.00675858  0.74145053  0.74626096  1
  Pb  Pb80  1  0.24388793  -0.00706476  0.00063962  1
  Pb  Pb81  1  0.25127970  0.00190714  0.25655962  1
  Pb  Pb82  1  0.24540256  -0.00477882  0.50309480  1
  Pb  Pb83  1  0.25390999  0.00433683  0.73772307  1
  Pb  Pb84  1  0.24891810  0.25254337  0.00114442  1
  Pb  Pb85  1  0.24912181  0.24986617  0.25577341  1
  Pb  Pb86  1  0.24236555  0.24808020  0.50046213  1
  Pb  Pb87  1  0.25292999  0.24538248  0.74355047  1
  Pb  Pb88  1  0.25340030  0.50054444  0.00612828  1
  Pb  Pb89  1  0.24620420  0.49663886  0.25161659  1
  Pb  Pb90  1  0.24670514  0.49448888  0.49421038  1
  Pb  Pb91  1  0.25975901  0.50040155  0.75592025  1
  Pb  Pb92  1  0.25364434  0.74929239  0.00549036  1
  Pb  Pb93  1  0.24888494  0.75293341  0.25143131  1
  Pb  Pb94  1  0.25099964  0.75846518  0.49969406  1
  Pb  Pb95  1  0.25210228  0.74734507  0.74852672  1
  Pb  Pb96  1  0.50500288  0.00525716  -0.00156058  1
  Pb  Pb97  1  0.49251107  0.00727656  0.25631622  1
  Pb  Pb98  1  0.50202075  -0.00202974  0.50603278  1
  Pb  Pb99  1  0.49652201  0.00400980  0.73821043  1
  Pb  Pb100  1  0.50821809  0.24973813  0.00410257  1
  Pb  Pb101  1  0.49985403  0.24683947  0.24952325  1
  Pb  Pb102  1  0.50012526  0.24187886  0.50031823  1
  Pb  Pb103  1  0.49316159  0.24635862  0.74791531  1
  Pb  Pb104  1  0.50405028  0.50359519  0.00721932  1
  Pb  Pb105  1  0.50220204  0.50402177  0.24347978  1
  Pb  Pb106  1  0.50453570  0.50491902  0.49552971  1
  Pb  Pb107  1  0.49096724  0.49937060  0.75638330  1
  Pb  Pb108  1  0.49959096  0.74320454  0.00526776  1
  Pb  Pb109  1  0.49565337  0.74517257  0.24994580  1
  Pb  Pb110  1  0.50257628  0.75351519  0.50269591  1
  Pb  Pb111  1  0.50076804  0.74890836  0.74635869  1
  Pb  Pb112  1  0.74909716  0.00435692  -0.00129118  1
  Pb  Pb113  1  0.75729186  0.00187850  0.25831174  1
  Pb  Pb114  1  0.74807475  0.00587409  0.50164315  1
  Pb  Pb115  1  0.75219170  0.00529936  0.74069813  1
  Pb  Pb116  1  0.74488715  0.25184079  0.00413419  1
  Pb  Pb117  1  0.74774364  0.25358202  0.25462394  1
  Pb  Pb118  1  0.75849730  0.25557223  0.49600656  1
  Pb  Pb119  1  0.76452291  0.24646749  0.74482763  1
  Pb  Pb120  1  0.74560626  0.49837230  0.00569804  1
  Pb  Pb121  1  0.74848375  0.49525509  0.25379177  1
  Pb  Pb122  1  0.75829420  0.49863671  0.49496443  1
  Pb  Pb123  1  0.75899711  0.50088782  0.74546374  1
  Pb  Pb124  1  0.74839717  0.74782364  0.00200586  1
  Pb  Pb125  1  0.75827621  0.74893726  0.25866531  1
  Pb  Pb126  1  0.74359618  0.74554995  0.49992973  1
  Pb  Pb127  1  0.75173615  0.74082133  0.74217149  1
  O  O128  1  0.12475846  0.00899471  0.17146583  1
  O  O129  1  0.12939655  0.00300223  0.40843540  1
  O  O130  1  0.12542579  -0.00162735  0.66165800  1
  O  O131  1  0.12395507  -0.00254474  0.91476923  1
  O  O132  1  0.12554760  0.24041109  0.17133460  1
  O  O133  1  0.12837504  0.24568628  0.40763986  1
  O  O134  1  0.12811443  0.25311820  0.65986690  1
  O  O135  1  0.12439036  0.25339437  0.91143216  1
  O  O136  1  0.12194618  0.50844299  0.16857767  1
  O  O137  1  0.12952926  0.50588475  0.40582299  1
  O  O138  1  0.13062969  0.50748665  0.66265955  1
  O  O139  1  0.12483335  0.50167234  0.91536685  1
  O  O140  1  0.12267876  0.74381870  0.16759654  1
  O  O141  1  0.12967280  0.74532071  0.40564538  1
  O  O142  1  0.12781759  0.73850793  0.66559002  1
  O  O143  1  0.12432454  0.74877618  0.91834419  1
  O  O144  1  0.37482771  -0.00191963  0.16675840  1
  O  O145  1  0.37681654  -0.00831077  0.41557575  1
  O  O146  1  0.37536805  0.00004104  0.65351893  1
  O  O147  1  0.37464666  -0.00379905  0.91553970  1
  O  O148  1  0.37237761  0.24983470  0.16409920  1
  O  O149  1  0.37820277  0.25798071  0.41044377  1
  O  O150  1  0.37635861  0.25835137  0.65628170  1
  O  O151  1  0.37325045  0.25083564  0.92134679  1
  O  O152  1  0.37309066  0.49378424  0.15693934  1
  O  O153  1  0.37692051  0.49594138  0.40816924  1
  O  O154  1  0.37467031  0.50168708  0.66631457  1
  O  O155  1  0.37441880  0.49835991  0.92601436  1
  O  O156  1  0.37437234  0.75942441  0.16140619  1
  O  O157  1  0.37642372  0.75449046  0.40996271  1
  O  O158  1  0.37382309  0.74014806  0.66193826  1
  O  O159  1  0.37436491  0.75524720  0.91959411  1
  O  O160  1  0.62314134  -0.00654327  0.16895648  1
  O  O161  1  0.62082038  -0.00469739  0.41362610  1
  O  O162  1  0.62526809  -0.00105594  0.66166853  1
  O  O163  1  0.62622334  -0.00164792  0.91448673  1
  O  O164  1  0.62456667  0.24499450  0.16792819  1
  O  O165  1  0.62007327  0.24426602  0.40305277  1
  O  O166  1  0.62022219  0.26183817  0.66078571  1
  O  O167  1  0.62615618  0.25290689  0.91464423  1
  O  O168  1  0.62616518  0.50168257  0.16366852  1
  O  O169  1  0.61945666  0.50700966  0.40241025  1
  O  O170  1  0.61922625  0.49333996  0.66579765  1
  O  O171  1  0.62637331  0.50181745  0.91636604  1
  O  O172  1  0.62472823  0.76096783  0.16675269  1
  O  O173  1  0.61916455  0.75156496  0.41164880  1
  O  O174  1  0.62336594  0.74590730  0.66706100  1
  O  O175  1  0.62658144  0.74808816  0.91569780  1
  O  O176  1  0.87503148  -0.00185672  0.16950246  1
  O  O177  1  0.87172991  -0.00364337  0.41541998  1
  O  O178  1  0.87500035  -0.00782156  0.65484840  1
  O  O179  1  0.87556979  -0.00525151  0.91692514  1
  O  O180  1  0.87658903  0.25014765  0.16803208  1
  O  O181  1  0.87282415  0.24825497  0.40941038  1
  O  O182  1  0.87296841  0.25273455  0.65404599  1
  O  O183  1  0.87648435  0.25251577  0.91948229  1
  O  O184  1  0.87637053  0.49837887  0.16647030  1
  O  O185  1  0.87333312  0.50226661  0.40725601  1
  O  O186  1  0.87466170  0.50084347  0.65874934  1
  O  O187  1  0.87625399  0.49979142  0.92327971  1
  O  O188  1  0.87357753  0.75440164  0.16799823  1
  O  O189  1  0.87300083  0.75311613  0.41459191  1
  O  O190  1  0.87762208  0.75092465  0.65829531  1
  O  O191  1  0.87635856  0.75424643  0.91982774  1
  O  O192  1  0.00111540  0.12404955  0.17013950  1
  O  O193  1  0.00805282  0.12322026  0.40984473  1
  O  O194  1  -0.00162703  0.12423318  0.65687766  1
  O  O195  1  0.00635776  0.12442791  0.91665884  1
  O  O196  1  -0.00672752  0.37387147  0.17284468  1
  O  O197  1  0.00305403  0.37534181  0.40335572  1
  O  O198  1  0.00243886  0.37911655  0.65459138  1
  O  O199  1  0.00843351  0.37723914  0.91766736  1
  O  O200  1  -0.00136563  0.62733985  0.17107728  1
  O  O201  1  0.01136943  0.62587848  0.40858491  1
  O  O202  1  0.00598507  0.62384667  0.65538660  1
  O  O203  1  0.00835497  0.62645438  0.92061061  1
  O  O204  1  -0.00693046  0.87620971  0.16821180  1
  O  O205  1  0.00291346  0.87472691  0.40396772  1
  O  O206  1  -0.00565263  0.87108736  0.66069161  1
  O  O207  1  0.00116200  0.87415934  0.91836368  1
  O  O208  1  0.24887217  0.12342488  0.16733927  1
  O  O209  1  0.24647218  0.12462959  0.41127643  1
  O  O210  1  0.25256442  0.12838179  0.65785837  1
  O  O211  1  0.24221671  0.12440922  0.91670913  1
  O  O212  1  0.25641169  0.37281358  0.16633239  1
  O  O213  1  0.25821906  0.37570653  0.40907771  1
  O  O214  1  0.25888337  0.37983289  0.66168617  1
  O  O215  1  0.24117668  0.37680544  0.91767222  1
  O  O216  1  0.24342950  0.62637038  0.16186749  1
  O  O217  1  0.24748076  0.62502271  0.40787176  1
  O  O218  1  0.25361854  0.62236467  0.66323682  1
  O  O219  1  0.24059965  0.62641834  0.92070866  1
  O  O220  1  0.25827238  0.87846695  0.16514548  1
  O  O221  1  0.25514320  0.87417495  0.40936130  1
  O  O222  1  0.25057791  0.86880052  0.66805921  1
  O  O223  1  0.24900071  0.87479753  0.91631359  1
  O  O224  1  0.49413072  0.12231043  0.16521788  1
  O  O225  1  0.50586700  0.12005390  0.41520182  1
  O  O226  1  0.49963623  0.13011365  0.66090180  1
  O  O227  1  0.50485789  0.12532267  0.91502386  1
  O  O228  1  0.48964427  0.37167091  0.16136232  1
  O  O229  1  0.49676283  0.37669706  0.40989027  1
  O  O230  1  0.49445921  0.37917759  0.66458115  1
  O  O231  1  0.50895878  0.37690745  0.91760511  1
  O  O232  1  0.50057324  0.62926895  0.16135991  1
  O  O233  1  0.50179798  0.62814998  0.41091936  1
  O  O234  1  0.49194228  0.62105172  0.66279459  1
  O  O235  1  0.50732418  0.62556541  0.91827060  1
  O  O236  1  0.49691851  0.87755626  0.16320200  1
  O  O237  1  0.49947850  0.87391292  0.41510613  1
  O  O238  1  0.49734696  0.87016467  0.66586186  1
  O  O239  1  0.50291699  0.87432858  0.91535243  1
  O  O240  1  0.75444928  0.12182016  0.16590287  1
  O  O241  1  0.73907687  0.11920729  0.40969126  1
  O  O242  1  0.75032361  0.12583411  0.65993125  1
  O  O243  1  0.74705364  0.12494966  0.91638796  1
  O  O244  1  0.75841769  0.37359446  0.16592493  1
  O  O245  1  0.74314333  0.37547484  0.40868916  1
  O  O246  1  0.74229963  0.37907204  0.65441760  1
  O  O247  1  0.74309429  0.37676158  0.91815657  1
  O  O248  1  0.75502549  0.62814765  0.16690494  1
  O  O249  1  0.73810825  0.63023929  0.40696620  1
  O  O250  1  0.74989952  0.62332519  0.65874465  1
  O  O251  1  0.74631942  0.62586439  0.91732722  1
  O  O252  1  0.74760410  0.87787010  0.16601797  1
  O  O253  1  0.74032488  0.87279293  0.41177854  1
  O  O254  1  0.75864970  0.87044134  0.65942710  1
  O  O255  1  0.74860483  0.87394840  0.91731964  1
  O  O256  1  0.12113190  0.12382770  0.05400587  1
  O  O257  1  0.12843008  0.12403834  0.29658733  1
  O  O258  1  0.12766495  0.12575946  0.52742981  1
  O  O259  1  0.12396263  0.12333245  0.79494923  1
  O  O260  1  0.11873638  0.37399366  0.05002511  1
  O  O261  1  0.13628476  0.37579566  0.27814815  1
  O  O262  1  0.13431337  0.37800752  0.52823097  1
  O  O263  1  0.12547975  0.37562905  0.79949687  1
  O  O264  1  0.11891186  0.62583124  0.05187618  1
  O  O265  1  0.12885163  0.62648559  0.29042229  1
  O  O266  1  0.12816101  0.62254179  0.54433350  1
  O  O267  1  0.12313761  0.62391426  0.80202067  1
  O  O268  1  0.12166823  0.88003015  0.04909242  1
  O  O269  1  0.13490352  0.87496319  0.27623493  1
  O  O270  1  0.13502583  0.87084742  0.53401804  1
  O  O271  1  0.12245680  0.86937666  0.79745231  1
  O  O272  1  0.37176381  0.12331733  0.04916517  1
  O  O273  1  0.37947586  0.11943879  0.29367321  1
  O  O274  1  0.38068311  0.13067734  0.52354076  1
  O  O275  1  0.37462238  0.13371385  0.78743746  1
  O  O276  1  0.36934322  0.37063698  0.04571871  1
  O  O277  1  0.37699999  0.37424751  0.29270651  1
  O  O278  1  0.37810803  0.38191358  0.54644158  1
  O  O279  1  0.37593042  0.38338736  0.79043576  1
  O  O280  1  0.37285164  0.63227091  0.03683532  1
  O  O281  1  0.37799087  0.62971911  0.27852416  1
  O  O282  1  0.37387026  0.62107464  0.54670481  1
  O  O283  1  0.37231864  0.61563492  0.79606746  1
  O  O284  1  0.37468516  0.88017312  0.04769276  1
  O  O285  1  0.37822810  0.87740952  0.29914453  1
  O  O286  1  0.37041089  0.86605381  0.53147935  1
  O  O287  1  0.37540983  0.87309600  0.79838617  1
  O  O288  1  0.62390265  0.12252734  0.03700286  1
  O  O289  1  0.61877862  0.11901518  0.29688753  1
  O  O290  1  0.62214188  0.12511557  0.53067258  1
  O  O291  1  0.62726369  0.12643983  0.79775809  1
  O  O292  1  0.62802801  0.36971965  0.04298801  1
  O  O293  1  0.62577237  0.37480708  0.27566658  1
  O  O294  1  0.61955351  0.38043610  0.54408639  1
  O  O295  1  0.62643544  0.37553329  0.80153905  1
  O  O296  1  0.62784068  0.62910993  0.03579871  1
  O  O297  1  0.61861687  0.63109978  0.29373283  1
  O  O298  1  0.61910241  0.62460614  0.53228887  1
  O  O299  1  0.62679768  0.62386338  0.80335050  1
  O  O300  1  0.62694936  0.87768136  0.05127225  1
  O  O301  1  0.62186079  0.87597852  0.30028664  1
  O  O302  1  0.61915841  0.86788812  0.53349135  1
  O  O303  1  0.62742748  0.87248294  0.79586177  1
  O  O304  1  0.87797562  0.12396683  0.05236418  1
  O  O305  1  0.87832900  0.11789659  0.28972523  1
  O  O306  1  0.87171596  0.12336923  0.52347811  1
  O  O307  1  0.87155634  0.12794841  0.78677627  1
  O  O308  1  0.88070943  0.37353122  0.05528472  1
  O  O309  1  0.87198525  0.37442091  0.28292011  1
  O  O310  1  0.86955631  0.37838898  0.52419681  1
  O  O311  1  0.87475870  0.38098120  0.78684085  1
  O  O312  1  0.87804599  0.62741411  0.05271651  1
  O  O313  1  0.87746174  0.63371378  0.28878695  1
  O  O314  1  0.87314494  0.62273869  0.52338909  1
  O  O315  1  0.88058657  0.62364821  0.79027620  1
  O  O316  1  0.87430866  0.87691458  0.05740399  1
  O  O317  1  0.86685656  0.87582916  0.28154199  1
  O  O318  1  0.87658617  0.87029633  0.54135999  1
  O  O319  1  0.87553159  0.87284511  0.79841623  1
