# generated using pymatgen
data_VFe(PbO3)2
_symmetry_space_group_name_H-M   'P 1'
_cell_length_a   15.39680096
_cell_length_b   15.37983663
_cell_length_c   18.49954579
_cell_angle_alpha   89.99266314
_cell_angle_beta   89.97640625
_cell_angle_gamma   89.98831471
_symmetry_Int_Tables_number   1
_chemical_formula_structural   VFe(PbO3)2
_chemical_formula_sum   'V32 Fe32 Pb64 O192'
_cell_volume   4380.69718743
_cell_formula_units_Z   32
loop_
 _symmetry_equiv_pos_site_id
 _symmetry_equiv_pos_as_xyz
  1  'x, y, z'
loop_
 _atom_site_type_symbol
 _atom_site_label
 _atom_site_symmetry_multiplicity
 _atom_site_fract_x
 _atom_site_fract_y
 _atom_site_fract_z
 _atom_site_occupancy
  V  V0  1  0.62216717  0.62169854  0.89059110  1
  V  V1  1  0.62779063  0.62275194  0.14137446  1
  V  V2  1  0.63873642  0.87577315  0.38323970  1
  V  V3  1  0.12613412  0.37573570  0.89353063  1
  V  V4  1  0.87387633  0.37399685  0.63989708  1
  V  V5  1  0.37453531  0.37615639  0.89417960  1
  V  V6  1  0.62329970  0.37693259  0.89035512  1
  V  V7  1  0.12222199  0.36967490  0.38555065  1
  V  V8  1  0.87385697  0.87380043  0.64762191  1
  V  V9  1  0.62425019  0.37262917  0.15248899  1
  V  V10  1  0.87379574  0.62095787  0.89510179  1
  V  V11  1  0.37680121  0.87509931  0.64174317  1
  V  V12  1  0.12466221  0.62438337  0.38796845  1
  V  V13  1  0.37633482  0.62271032  0.89398568  1
  V  V14  1  0.62207105  0.37682321  0.63566410  1
  V  V15  1  0.62309944  0.88053461  0.89528228  1
  V  V16  1  0.87368998  0.37421187  0.13996095  1
  V  V17  1  0.88275380  0.87288957  0.38675836  1
  V  V18  1  0.38543767  0.87224305  0.38345497  1
  V  V19  1  0.62554607  0.87324300  0.64691363  1
  V  V20  1  0.37393909  0.62510392  0.13928387  1
  V  V21  1  0.12630386  0.87393668  0.38632955  1
  V  V22  1  0.12599931  0.12723444  0.89157671  1
  V  V23  1  0.12783366  0.62267962  0.89436301  1
  V  V24  1  0.62690143  0.12610478  0.13943941  1
  V  V25  1  0.87250295  0.62616155  0.64226012  1
  V  V26  1  0.37656601  0.62613815  0.63829244  1
  V  V27  1  0.37680774  0.12856867  0.89584856  1
  V  V28  1  0.12371794  0.87454666  0.13010230  1
  V  V29  1  0.87273428  0.12565403  0.13560528  1
  V  V30  1  0.12279250  0.12286838  0.64114596  1
  V  V31  1  0.37339693  0.12440493  0.63957412  1
  Fe  Fe32  1  0.37635723  0.12384086  0.13880531  1
  Fe  Fe33  1  0.37217844  0.37689849  0.37568264  1
  Fe  Fe34  1  0.12345675  0.11994189  0.37860826  1
  Fe  Fe35  1  0.37089284  0.63170385  0.38191001  1
  Fe  Fe36  1  0.12537795  0.87393786  0.64691552  1
  Fe  Fe37  1  0.37454939  0.87510142  0.89937134  1
  Fe  Fe38  1  0.37885286  0.87443742  0.12691585  1
  Fe  Fe39  1  0.87853619  0.62864858  0.38222029  1
  Fe  Fe40  1  0.37673744  0.37527306  0.14892839  1
  Fe  Fe41  1  0.62502139  0.12013317  0.38335457  1
  Fe  Fe42  1  0.12234890  0.37502188  0.13401685  1
  Fe  Fe43  1  0.87315287  0.13080175  0.87923271  1
  Fe  Fe44  1  0.62063433  0.13157644  0.88038226  1
  Fe  Fe45  1  0.87767291  0.37567905  0.88437402  1
  Fe  Fe46  1  0.87654023  0.12102260  0.38696642  1
  Fe  Fe47  1  0.12709020  0.87451127  0.88519497  1
  Fe  Fe48  1  0.87589731  0.87490786  0.89486807  1
  Fe  Fe49  1  0.87569215  0.37715765  0.38343237  1
  Fe  Fe50  1  0.62812907  0.87654449  0.12791143  1
  Fe  Fe51  1  0.12290545  0.12627336  0.13607166  1
  Fe  Fe52  1  0.12585451  0.37482766  0.63242836  1
  Fe  Fe53  1  0.62258742  0.12116851  0.64802449  1
  Fe  Fe54  1  0.37402156  0.37480439  0.62929484  1
  Fe  Fe55  1  0.12447560  0.62434538  0.12923027  1
  Fe  Fe56  1  0.62647199  0.37474920  0.37651704  1
  Fe  Fe57  1  0.87445313  0.62358834  0.13197217  1
  Fe  Fe58  1  0.37247207  0.11938094  0.37951355  1
  Fe  Fe59  1  0.87353501  0.87684185  0.12410051  1
  Fe  Fe60  1  0.62579799  0.62870974  0.63978086  1
  Fe  Fe61  1  0.87513873  0.12280183  0.64660966  1
  Fe  Fe62  1  0.62439340  0.62952521  0.38131972  1
  Fe  Fe63  1  0.12441071  0.62619056  0.63815809  1
  Pb  Pb64  1  -0.00372189  -0.00149675  -0.00658559  1
  Pb  Pb65  1  -0.00062295  0.00733397  0.24648498  1
  Pb  Pb66  1  -0.00336729  0.00295100  0.50364894  1
  Pb  Pb67  1  -0.00173950  -0.01165847  0.76096020  1
  Pb  Pb68  1  0.00785228  0.25117887  0.00092346  1
  Pb  Pb69  1  -0.00312466  0.24623211  0.24920023  1
  Pb  Pb70  1  -0.00544176  0.24383590  0.49659892  1
  Pb  Pb71  1  -0.00692554  0.25102952  0.75155995  1
  Pb  Pb72  1  0.00118902  0.50553759  0.00544674  1
  Pb  Pb73  1  -0.00721567  0.50491175  0.24552434  1
  Pb  Pb74  1  0.00562226  0.50205607  0.49774244  1
  Pb  Pb75  1  -0.00198969  0.49554985  0.74977345  1
  Pb  Pb76  1  -0.00243442  0.74586090  -0.00019992  1
  Pb  Pb77  1  -0.00629286  0.74670744  0.23815145  1
  Pb  Pb78  1  0.00987267  0.75220470  0.50712663  1
  Pb  Pb79  1  0.00135981  0.75314882  0.75843261  1
  Pb  Pb80  1  0.24979865  0.01053212  0.00431592  1
  Pb  Pb81  1  0.25207837  0.00416925  0.24008532  1
  Pb  Pb82  1  0.24606880  -0.00191589  0.49422958  1
  Pb  Pb83  1  0.25225344  -0.00831525  0.75734256  1
  Pb  Pb84  1  0.24377246  0.25173601  0.01284372  1
  Pb  Pb85  1  0.25002729  0.24838086  0.24236914  1
  Pb  Pb86  1  0.25334160  0.25478612  0.49133926  1
  Pb  Pb87  1  0.24883465  0.25203231  0.74702356  1
  Pb  Pb88  1  0.24506203  0.49275401  0.00860031  1
  Pb  Pb89  1  0.24880966  0.49508971  0.24577351  1
  Pb  Pb90  1  0.25158404  0.49421250  0.49740917  1
  Pb  Pb91  1  0.24688385  0.49740825  0.74462506  1
  Pb  Pb92  1  0.24805451  0.75277083  -0.00086589  1
  Pb  Pb93  1  0.25572794  0.75072453  0.24403758  1
  Pb  Pb94  1  0.23853648  0.75334370  0.50511900  1
  Pb  Pb95  1  0.24782651  0.75310465  0.75352126  1
  Pb  Pb96  1  0.49180392  0.00585945  0.00713771  1
  Pb  Pb97  1  0.49958900  0.00122569  0.24433029  1
  Pb  Pb98  1  0.50748427  0.01223942  0.50521946  1
  Pb  Pb99  1  0.49247427  -0.00637001  0.75983076  1
  Pb  Pb100  1  0.48689947  0.25439641  0.01183091  1
  Pb  Pb101  1  0.49180547  0.24537428  0.25605843  1
  Pb  Pb102  1  0.49635986  0.25326483  0.48375523  1
  Pb  Pb103  1  0.50147403  0.24711342  0.74825502  1
  Pb  Pb104  1  0.49343187  0.49276009  0.01011073  1
  Pb  Pb105  1  0.50124030  0.50985303  0.25795546  1
  Pb  Pb106  1  0.49563781  0.49831162  0.48386533  1
  Pb  Pb107  1  0.49991646  0.50110167  0.74568219  1
  Pb  Pb108  1  0.50433177  0.75626995  0.00608318  1
  Pb  Pb109  1  0.50382957  0.74695732  0.24663893  1
  Pb  Pb110  1  0.50362459  0.74237080  0.49992123  1
  Pb  Pb111  1  0.49369003  0.75589186  0.75928306  1
  Pb  Pb112  1  0.75148260  0.00025366  -0.00663118  1
  Pb  Pb113  1  0.75177275  0.00558109  0.24739213  1
  Pb  Pb114  1  0.75238118  0.01745787  0.51208644  1
  Pb  Pb115  1  0.75457507  0.00346729  0.75826519  1
  Pb  Pb116  1  0.75069887  0.24832148  -0.00678904  1
  Pb  Pb117  1  0.75082845  0.25253321  0.25792365  1
  Pb  Pb118  1  0.74757928  0.24845214  0.49129455  1
  Pb  Pb119  1  0.74874114  0.24358888  0.75048097  1
  Pb  Pb120  1  0.75293533  0.50262259  0.00402095  1
  Pb  Pb121  1  0.75246855  0.49416879  0.25631022  1
  Pb  Pb122  1  0.74685538  0.50320782  0.48751853  1
  Pb  Pb123  1  0.75427673  0.49364587  0.75158758  1
  Pb  Pb124  1  0.74884192  0.75422363  0.00365464  1
  Pb  Pb125  1  0.75470290  0.74832467  0.24073088  1
  Pb  Pb126  1  0.74740044  0.74245244  0.49900749  1
  Pb  Pb127  1  0.75453861  0.75493367  0.76180611  1
  O  O128  1  0.12339924  -0.00783793  0.15610395  1
  O  O129  1  0.12025197  -0.00978497  0.41130048  1
  O  O130  1  0.12756922  0.00693572  0.66951466  1
  O  O131  1  0.13029323  0.00946120  0.91065306  1
  O  O132  1  0.12010426  0.25109896  0.16502317  1
  O  O133  1  0.12364305  0.25310776  0.40285498  1
  O  O134  1  0.12917350  0.24318785  0.66510130  1
  O  O135  1  0.13062835  0.24873600  0.91760578  1
  O  O136  1  0.12367773  0.50049683  0.16111609  1
  O  O137  1  0.12422532  0.50558141  0.40769730  1
  O  O138  1  0.12466451  0.50105602  0.66645276  1
  O  O139  1  0.12905997  0.49905213  0.91827217  1
  O  O140  1  0.12551164  0.75567852  0.15594481  1
  O  O141  1  0.12114060  0.75337306  0.41576893  1
  O  O142  1  0.12475339  0.74709469  0.67501329  1
  O  O143  1  0.12569785  0.74438842  0.91252944  1
  O  O144  1  0.37847421  -0.00331286  0.15881262  1
  O  O145  1  0.36960132  -0.01531283  0.41323377  1
  O  O146  1  0.37605176  0.00077854  0.67008292  1
  O  O147  1  0.37655356  0.00901958  0.91559704  1
  O  O148  1  0.38045512  0.24774883  0.16577845  1
  O  O149  1  0.37059470  0.24831738  0.40375662  1
  O  O150  1  0.37390174  0.24322467  0.65867985  1
  O  O151  1  0.37662806  0.25136761  0.92014031  1
  O  O152  1  0.37963471  0.50944429  0.16561290  1
  O  O153  1  0.36954108  0.50448754  0.40560053  1
  O  O154  1  0.37656697  0.50697821  0.65889853  1
  O  O155  1  0.37475267  0.50039636  0.92239174  1
  O  O156  1  0.37755213  0.74560099  0.15821634  1
  O  O157  1  0.36856251  0.76117345  0.41722596  1
  O  O158  1  0.37755020  0.74890842  0.66807360  1
  O  O159  1  0.37785350  0.73931444  0.91500589  1
  O  O160  1  0.63084371  0.00832995  0.15476059  1
  O  O161  1  0.62256936  -0.01466487  0.41619578  1
  O  O162  1  0.62448925  -0.01175006  0.67449315  1
  O  O163  1  0.62388295  -0.00170982  0.90524938  1
  O  O164  1  0.63055974  0.24945468  0.16784236  1
  O  O165  1  0.62420118  0.24742225  0.40776853  1
  O  O166  1  0.62370610  0.26023459  0.66225790  1
  O  O167  1  0.61940358  0.26083141  0.91214022  1
  O  O168  1  0.62625491  0.50055120  0.16825069  1
  O  O169  1  0.62393009  0.50295876  0.40533317  1
  O  O170  1  0.62515319  0.49592775  0.66396763  1
  O  O171  1  0.62179973  0.49708287  0.92083945  1
  O  O172  1  0.62795423  0.74205764  0.15584014  1
  O  O173  1  0.62325872  0.76289206  0.41491761  1
  O  O174  1  0.62525694  0.75661654  0.67464233  1
  O  O175  1  0.62411653  0.74063916  0.91610752  1
  O  O176  1  0.87224691  0.00787867  0.15332391  1
  O  O177  1  0.87657402  -0.01381418  0.41811027  1
  O  O178  1  0.87349971  -0.00883364  0.67025310  1
  O  O179  1  0.87379526  0.00591680  0.90932140  1
  O  O180  1  0.87158657  0.24918577  0.16342475  1
  O  O181  1  0.87799768  0.24932871  0.41389458  1
  O  O182  1  0.87484523  0.25735533  0.66077238  1
  O  O183  1  0.87497650  0.25292181  0.91367883  1
  O  O184  1  0.87225870  0.49309145  0.15953920  1
  O  O185  1  0.87863305  0.50410254  0.41423319  1
  O  O186  1  0.87289974  0.50201543  0.66423980  1
  O  O187  1  0.87469393  0.50038938  0.91785282  1
  O  O188  1  0.87346960  0.75114043  0.15294993  1
  O  O189  1  0.87764367  0.75881026  0.41502971  1
  O  O190  1  0.87228327  0.74954487  0.67153568  1
  O  O191  1  0.87352285  0.73994372  0.91383767  1
  O  O192  1  -0.00942196  0.12658186  0.15720192  1
  O  O193  1  0.00214429  0.11980577  0.41970284  1
  O  O194  1  0.00762621  0.12576360  0.66390218  1
  O  O195  1  0.00817212  0.12980293  0.90740012  1
  O  O196  1  -0.00945658  0.37261762  0.16013725  1
  O  O197  1  0.00752635  0.37871527  0.41327895  1
  O  O198  1  -0.00550815  0.37722098  0.66197617  1
  O  O199  1  0.00607030  0.37481641  0.91288151  1
  O  O200  1  -0.00021195  0.62452590  0.15860285  1
  O  O201  1  0.00740754  0.62993497  0.41481836  1
  O  O202  1  -0.01123305  0.62601406  0.66731667  1
  O  O203  1  -0.00257116  0.62023225  0.91350871  1
  O  O204  1  0.00360967  0.87513704  0.15166853  1
  O  O205  1  0.00041723  0.87275346  0.41310420  1
  O  O206  1  -0.00705578  0.87250565  0.66961338  1
  O  O207  1  0.00364563  0.87621069  0.91396711  1
  O  O208  1  0.24900119  0.12322600  0.15853011  1
  O  O209  1  0.24707283  0.11673458  0.41087778  1
  O  O210  1  0.25428156  0.12226538  0.66711511  1
  O  O211  1  0.25373172  0.12986122  0.91855561  1
  O  O212  1  0.24853632  0.37612958  0.16235080  1
  O  O213  1  0.24054334  0.37851077  0.40834164  1
  O  O214  1  0.25199021  0.37510187  0.66548910  1
  O  O215  1  0.25218327  0.37542804  0.91998975  1
  O  O216  1  0.25556036  0.62624169  0.15738646  1
  O  O217  1  0.24075248  0.63326720  0.41188391  1
  O  O218  1  0.25920867  0.62805318  0.66413689  1
  O  O219  1  0.25629138  0.62148863  0.91733060  1
  O  O220  1  0.24540926  0.87378478  0.15411060  1
  O  O221  1  0.24007513  0.87216403  0.40997017  1
  O  O222  1  0.25580304  0.87501097  0.66968793  1
  O  O223  1  0.24902426  0.87404324  0.91569780  1
  O  O224  1  0.51107164  0.12703240  0.16077068  1
  O  O225  1  0.49738859  0.11702611  0.41481727  1
  O  O226  1  0.49087781  0.12328042  0.66710717  1
  O  O227  1  0.49608556  0.12895051  0.91551046  1
  O  O228  1  0.50930595  0.37536010  0.16954164  1
  O  O229  1  0.49881646  0.37593718  0.40088107  1
  O  O230  1  0.50292892  0.37743913  0.65855493  1
  O  O231  1  0.50040092  0.37891564  0.92037801  1
  O  O232  1  0.50282519  0.62475430  0.16285827  1
  O  O233  1  0.49743425  0.63342648  0.41338871  1
  O  O234  1  0.49558412  0.62734666  0.66698660  1
  O  O235  1  0.49624684  0.61876030  0.91815994  1
  O  O236  1  0.50478679  0.87333880  0.15603836  1
  O  O237  1  0.49791827  0.87132642  0.39347399  1
  O  O238  1  0.50179806  0.87355620  0.67198734  1
  O  O239  1  0.50693801  0.87038046  0.91711881  1
  O  O240  1  0.75213654  0.12866164  0.16381648  1
  O  O241  1  0.75026084  0.11744313  0.41703858  1
  O  O242  1  0.74847343  0.12369775  0.66918409  1
  O  O243  1  0.74495317  0.13090879  0.90669240  1
  O  O244  1  0.75332946  0.37390446  0.16723235  1
  O  O245  1  0.75002168  0.37563278  0.41281421  1
  O  O246  1  0.75003049  0.37820035  0.66184355  1
  O  O247  1  0.74101277  0.37880055  0.90991712  1
  O  O248  1  0.74577409  0.62074186  0.16067864  1
  O  O249  1  0.75083129  0.63340604  0.41064084  1
  O  O250  1  0.75553806  0.62636726  0.67073716  1
  O  O251  1  0.74991700  0.61846633  0.91505777  1
  O  O252  1  0.75102614  0.87622763  0.15940158  1
  O  O253  1  0.75218019  0.87173362  0.40218022  1
  O  O254  1  0.74982950  0.87236730  0.67261676  1
  O  O255  1  0.74235294  0.87011632  0.91225754  1
  O  O256  1  0.12670053  0.13118515  0.03457932  1
  O  O257  1  0.11446012  0.11582136  0.27847927  1
  O  O258  1  0.12687719  0.12092774  0.55006630  1
  O  O259  1  0.13294629  0.13208340  0.80071200  1
  O  O260  1  0.12728439  0.36920262  0.03255922  1
  O  O261  1  0.12060248  0.37728184  0.29462925  1
  O  O262  1  0.12854297  0.37690605  0.53343352  1
  O  O263  1  0.13021343  0.37407825  0.80194571  1
  O  O264  1  0.12271563  0.62235462  0.02891604  1
  O  O265  1  0.12389927  0.62914547  0.29697974  1
  O  O266  1  0.12275511  0.63448735  0.53854288  1
  O  O267  1  0.12877988  0.61912165  0.80279429  1
  O  O268  1  0.12523578  0.87454780  0.03861118  1
  O  O269  1  0.12322624  0.87219424  0.29556997  1
  O  O270  1  0.12377418  0.86614085  0.54656128  1
  O  O271  1  0.12374256  0.87886424  0.78302219  1
  O  O272  1  0.38296484  0.12344951  0.03640366  1
  O  O273  1  0.38227392  0.11429690  0.27901775  1
  O  O274  1  0.37338131  0.11674006  0.54889571  1
  O  O275  1  0.37470021  0.13075852  0.80459487  1
  O  O276  1  0.38504126  0.37698296  0.04595279  1
  O  O277  1  0.37060516  0.37692527  0.27445614  1
  O  O278  1  0.36528501  0.37555344  0.53003817  1
  O  O279  1  0.37660207  0.37665630  0.80318499  1
  O  O280  1  0.37841676  0.62221103  0.04809441  1
  O  O281  1  0.37742972  0.63868297  0.28228911  1
  O  O282  1  0.37795503  0.63180187  0.54751565  1
  O  O283  1  0.37681692  0.61857032  0.80294855  1
  O  O284  1  0.38236672  0.87380541  0.02494638  1
  O  O285  1  0.36879401  0.86989628  0.29204160  1
  O  O286  1  0.37943302  0.87695043  0.55120286  1
  O  O287  1  0.38305413  0.87706164  0.79702733  1
  O  O288  1  0.62919443  0.13287675  0.04827517  1
  O  O289  1  0.62931412  0.11302879  0.28389272  1
  O  O290  1  0.62193065  0.10834261  0.54691147  1
  O  O291  1  0.61742089  0.13724437  0.77930852  1
  O  O292  1  0.62775924  0.37369796  0.06099471  1
  O  O293  1  0.63872389  0.37451715  0.27539097  1
  O  O294  1  0.62441285  0.37732383  0.54538339  1
  O  O295  1  0.61737245  0.38110279  0.79923343  1
  O  O296  1  0.62559617  0.61657530  0.05008420  1
  O  O297  1  0.61919725  0.63358129  0.28116947  1
  O  O298  1  0.62648858  0.64110669  0.54102958  1
  O  O299  1  0.62077661  0.61869619  0.79935665  1
  O  O300  1  0.62884757  0.87096340  0.02643342  1
  O  O301  1  0.63380556  0.87696685  0.29161216  1
  O  O302  1  0.62596511  0.87378982  0.55644535  1
  O  O303  1  0.62073739  0.86830353  0.80371672  1
  O  O304  1  0.86851394  0.13160533  0.04446553  1
  O  O305  1  0.87989095  0.11404767  0.28688120  1
  O  O306  1  0.87641139  0.11453733  0.54530534  1
  O  O307  1  0.87728645  0.13386089  0.77700036  1
  O  O308  1  0.86967669  0.37173963  0.04860357  1
  O  O309  1  0.87323690  0.37675596  0.28345278  1
  O  O310  1  0.87412259  0.37784483  0.54950561  1
  O  O311  1  0.87747712  0.38040318  0.78400108  1
  O  O312  1  0.87626893  0.61588708  0.03124451  1
  O  O313  1  0.88281513  0.62999660  0.28195988  1
  O  O314  1  0.87085036  0.63078328  0.55166763  1
  O  O315  1  0.87307289  0.61879841  0.80356410  1
  O  O316  1  0.86977827  0.87773210  0.02211283  1
  O  O317  1  0.88331562  0.87503807  0.29547941  1
  O  O318  1  0.87127533  0.87214473  0.55711862  1
  O  O319  1  0.87496846  0.87090748  0.79273577  1
