# generated using pymatgen
data_VFe(PbO3)2
_symmetry_space_group_name_H-M   'P 1'
_cell_length_a   15.37709095
_cell_length_b   15.39018161
_cell_length_c   18.52453873
_cell_angle_alpha   90.03354308
_cell_angle_beta   90.00630798
_cell_angle_gamma   89.99943454
_symmetry_Int_Tables_number   1
_chemical_formula_structural   VFe(PbO3)2
_chemical_formula_sum   'V32 Fe32 Pb64 O192'
_cell_volume   4383.94658024
_cell_formula_units_Z   32
loop_
 _symmetry_equiv_pos_site_id
 _symmetry_equiv_pos_as_xyz
  1  'x, y, z'
loop_
 _atom_site_type_symbol
 _atom_site_label
 _atom_site_symmetry_multiplicity
 _atom_site_fract_x
 _atom_site_fract_y
 _atom_site_fract_z
 _atom_site_occupancy
  V  V0  1  0.37632118  0.87162066  0.14416865  1
  V  V1  1  0.37383100  0.62177821  0.13977789  1
  V  V2  1  0.12496422  0.12441894  0.13631476  1
  V  V3  1  0.62489591  0.62558962  0.13860416  1
  V  V4  1  0.87628575  0.12777057  0.64185721  1
  V  V5  1  0.37439181  0.12530143  0.64238779  1
  V  V6  1  0.12365436  0.62549975  0.14142383  1
  V  V7  1  0.37777732  0.37150089  0.39171437  1
  V  V8  1  0.37403370  0.38359407  0.65412971  1
  V  V9  1  0.87404899  0.37587715  0.13685599  1
  V  V10  1  0.37358486  0.87643715  0.63871363  1
  V  V11  1  0.12294788  0.62555009  0.63943634  1
  V  V12  1  0.87565208  0.87542274  0.64274207  1
  V  V13  1  0.37513838  0.87627483  0.88746077  1
  V  V14  1  0.87552726  0.62587297  0.88843178  1
  V  V15  1  0.12479852  0.12673264  0.38818922  1
  V  V16  1  0.62967398  0.87470022  0.89228381  1
  V  V17  1  0.62498330  0.37427822  0.64563593  1
  V  V18  1  0.62507518  0.12644847  0.39180142  1
  V  V19  1  0.12483504  0.87450433  0.63869007  1
  V  V20  1  0.62379262  0.87431820  0.38870085  1
  V  V21  1  0.62828956  0.62492161  0.64504920  1
  V  V22  1  0.62385175  0.87371164  0.63998613  1
  V  V23  1  0.62454747  0.12410188  0.13448771  1
  V  V24  1  0.87300410  0.87362145  0.13850457  1
  V  V25  1  0.37533225  0.12344975  0.88471137  1
  V  V26  1  0.87110628  0.88015941  0.38783130  1
  V  V27  1  0.12429009  0.12448203  0.64590052  1
  V  V28  1  0.62430410  0.37691806  0.39076598  1
  V  V29  1  0.87567455  0.12260559  0.88861907  1
  V  V30  1  0.87559851  0.38290052  0.64572062  1
  V  V31  1  0.37357250  0.12445432  0.13563816  1
  Fe  Fe32  1  0.62641266  0.12438273  0.64895345  1
  Fe  Fe33  1  0.12276971  0.87478515  0.88560593  1
  Fe  Fe34  1  0.87556858  0.62777179  0.63590247  1
  Fe  Fe35  1  0.87513796  0.37503222  0.88025857  1
  Fe  Fe36  1  0.62339719  0.12107995  0.87794530  1
  Fe  Fe37  1  0.62299912  0.37375406  0.13007040  1
  Fe  Fe38  1  0.37613562  0.37386459  0.13068035  1
  Fe  Fe39  1  0.12739264  0.37340911  0.13641281  1
  Fe  Fe40  1  0.62711198  0.37402062  0.88475697  1
  Fe  Fe41  1  0.12324066  0.87673045  0.37770799  1
  Fe  Fe42  1  0.37629455  0.87977635  0.38506935  1
  Fe  Fe43  1  0.87445628  0.87387768  0.88332553  1
  Fe  Fe44  1  0.12599255  0.62451001  0.38067394  1
  Fe  Fe45  1  0.12271692  0.37409944  0.87844010  1
  Fe  Fe46  1  0.87145842  0.62285000  0.37785066  1
  Fe  Fe47  1  0.12548133  0.37438260  0.64491248  1
  Fe  Fe48  1  0.62515755  0.62751526  0.88437553  1
  Fe  Fe49  1  0.37451501  0.37539558  0.87494330  1
  Fe  Fe50  1  0.12732989  0.12144700  0.88123235  1
  Fe  Fe51  1  0.37520445  0.62938092  0.87794547  1
  Fe  Fe52  1  0.87571063  0.62540097  0.14214370  1
  Fe  Fe53  1  0.12644982  0.37473794  0.38392016  1
  Fe  Fe54  1  0.87428979  0.12792482  0.38607807  1
  Fe  Fe55  1  0.87280668  0.37090967  0.38342881  1
  Fe  Fe56  1  0.62352802  0.87571358  0.13537626  1
  Fe  Fe57  1  0.37744903  0.62467291  0.38602777  1
  Fe  Fe58  1  0.12583608  0.62696560  0.88372475  1
  Fe  Fe59  1  0.12753595  0.87593159  0.14601618  1
  Fe  Fe60  1  0.37460469  0.12688989  0.38908650  1
  Fe  Fe61  1  0.62285407  0.62391928  0.38414998  1
  Fe  Fe62  1  0.37552142  0.62979200  0.64683847  1
  Fe  Fe63  1  0.87581615  0.12459371  0.13242933  1
  Pb  Pb64  1  0.00085001  -0.00305144  -0.00189456  1
  Pb  Pb65  1  0.00251427  -0.00040595  0.24724782  1
  Pb  Pb66  1  -0.00068961  0.00131396  0.49668470  1
  Pb  Pb67  1  0.00534557  -0.00377190  0.75519330  1
  Pb  Pb68  1  0.00513746  0.25214768  -0.00698409  1
  Pb  Pb69  1  -0.00708975  0.25530557  0.24870851  1
  Pb  Pb70  1  0.00308112  0.25958921  0.49962302  1
  Pb  Pb71  1  0.00024476  0.25498878  0.75497825  1
  Pb  Pb72  1  0.00413959  0.49663988  -0.00542317  1
  Pb  Pb73  1  0.00746025  0.49618686  0.25153754  1
  Pb  Pb74  1  -0.00050422  0.49963598  0.48967921  1
  Pb  Pb75  1  0.00891915  0.50242960  0.75365066  1
  Pb  Pb76  1  0.00143727  0.75300108  -0.00020340  1
  Pb  Pb77  1  0.00786414  0.74978071  0.25239919  1
  Pb  Pb78  1  -0.00201449  0.74419359  0.48990357  1
  Pb  Pb79  1  0.00370399  0.75666111  0.75269684  1
  Pb  Pb80  1  0.24145702  -0.00529683  0.00085884  1
  Pb  Pb81  1  0.26058341  0.00067315  0.25506738  1
  Pb  Pb82  1  0.25117265  -0.00224070  0.49478567  1
  Pb  Pb83  1  0.24172648  -0.00111496  0.75284851  1
  Pb  Pb84  1  0.24708910  0.26419018  -0.00457692  1
  Pb  Pb85  1  0.24908485  0.25321670  0.24575331  1
  Pb  Pb86  1  0.24341446  0.25864497  0.50655813  1
  Pb  Pb87  1  0.24946656  0.25477402  0.75568243  1
  Pb  Pb88  1  0.25198844  0.49609750  -0.01394008  1
  Pb  Pb89  1  0.24509362  0.49683348  0.25161057  1
  Pb  Pb90  1  0.24536011  0.50225627  0.49902004  1
  Pb  Pb91  1  0.24476212  0.51079535  0.75674104  1
  Pb  Pb92  1  0.24277038  0.75168336  -0.00214151  1
  Pb  Pb93  1  0.25375590  0.74340944  0.25544998  1
  Pb  Pb94  1  0.24955137  0.74986953  0.48957744  1
  Pb  Pb95  1  0.24560193  0.74826493  0.75157587  1
  Pb  Pb96  1  0.50504645  -0.00410133  0.00043635  1
  Pb  Pb97  1  0.49179968  0.00236963  0.25291587  1
  Pb  Pb98  1  0.50376488  0.00551521  0.50281101  1
  Pb  Pb99  1  0.50254321  0.00233967  0.75208786  1
  Pb  Pb100  1  0.50056005  0.26047022  -0.00709980  1
  Pb  Pb101  1  0.49775074  0.24943619  0.24315080  1
  Pb  Pb102  1  0.50562482  0.24632771  0.50673837  1
  Pb  Pb103  1  0.50150981  0.25768839  0.75620654  1
  Pb  Pb104  1  0.49701560  0.49631038  -0.01360564  1
  Pb  Pb105  1  0.50170576  0.50526763  0.24782372  1
  Pb  Pb106  1  0.49281728  0.50671324  0.50592116  1
  Pb  Pb107  1  0.50858019  0.50507228  0.76008687  1
  Pb  Pb108  1  0.50451405  0.75198401  -0.00142157  1
  Pb  Pb109  1  0.49911808  0.74298844  0.25478632  1
  Pb  Pb110  1  0.48770540  0.74209136  0.50348606  1
  Pb  Pb111  1  0.50124500  0.74388767  0.75444705  1
  Pb  Pb112  1  0.75482094  0.00515558  0.00031106  1
  Pb  Pb113  1  0.75368217  0.00577361  0.24642073  1
  Pb  Pb114  1  0.74353578  0.00689016  0.50533221  1
  Pb  Pb115  1  0.75393286  -0.00024846  0.75284845  1
  Pb  Pb116  1  0.74647030  0.24940185  -0.00776506  1
  Pb  Pb117  1  0.75827019  0.25019888  0.24862826  1
  Pb  Pb118  1  0.74893415  0.24743222  0.50319049  1
  Pb  Pb119  1  0.74990311  0.25848108  0.75708713  1
  Pb  Pb120  1  0.74654328  0.49626851  -0.00446272  1
  Pb  Pb121  1  0.75601217  0.49833468  0.24883290  1
  Pb  Pb122  1  0.75849885  0.50724034  0.49727964  1
  Pb  Pb123  1  0.74495058  0.49776578  0.75752669  1
  Pb  Pb124  1  0.76007060  0.74102936  0.00537530  1
  Pb  Pb125  1  0.74832712  0.74210279  0.25088972  1
  Pb  Pb126  1  0.75525452  0.74498305  0.49810215  1
  Pb  Pb127  1  0.75542981  0.75340974  0.75298532  1
  O  O128  1  0.12602422  0.00811638  0.16490998  1
  O  O129  1  0.12062607  0.00595128  0.41153587  1
  O  O130  1  0.12270456  -0.00192577  0.66595924  1
  O  O131  1  0.12585498  -0.00077997  0.91736762  1
  O  O132  1  0.12763909  0.24179298  0.16230447  1
  O  O133  1  0.12769306  0.24575967  0.41520509  1
  O  O134  1  0.12497645  0.24416301  0.66788078  1
  O  O135  1  0.12353133  0.24606302  0.90557917  1
  O  O136  1  0.12878417  0.50549202  0.16261902  1
  O  O137  1  0.12746059  0.49912076  0.41520082  1
  O  O138  1  0.12422934  0.50622097  0.66241225  1
  O  O139  1  0.12326503  0.50089815  0.90979327  1
  O  O140  1  0.12815633  0.74416954  0.16633252  1
  O  O141  1  0.12237829  0.75239764  0.40871816  1
  O  O142  1  0.12442967  0.74883586  0.66292681  1
  O  O143  1  0.12437770  0.75099274  0.91629270  1
  O  O144  1  0.37571742  0.00000123  0.16469425  1
  O  O145  1  0.37691182  0.00337178  0.42192355  1
  O  O146  1  0.37500929  -0.00270332  0.66678144  1
  O  O147  1  0.37729661  -0.00650465  0.91608417  1
  O  O148  1  0.37527784  0.24444264  0.16276203  1
  O  O149  1  0.37748463  0.25475570  0.42002687  1
  O  O150  1  0.37443007  0.23869688  0.66771925  1
  O  O151  1  0.37607021  0.23944096  0.90096665  1
  O  O152  1  0.37690091  0.50641561  0.15829289  1
  O  O153  1  0.37944762  0.49000055  0.41753310  1
  O  O154  1  0.37641677  0.49882119  0.66574278  1
  O  O155  1  0.37522387  0.50068573  0.89846569  1
  O  O156  1  0.37619245  0.75021849  0.16461211  1
  O  O157  1  0.37902073  0.75378419  0.41393404  1
  O  O158  1  0.37593877  0.75939233  0.66622218  1
  O  O159  1  0.37735917  0.76051741  0.91186729  1
  O  O160  1  0.62339699  0.00668291  0.16233954  1
  O  O161  1  0.62825942  0.00033003  0.41880994  1
  O  O162  1  0.62680828  -0.01038072  0.66509854  1
  O  O163  1  0.62318681  -0.00527743  0.91398871  1
  O  O164  1  0.62290686  0.24146532  0.15957352  1
  O  O165  1  0.62234877  0.25176872  0.42070358  1
  O  O166  1  0.62578577  0.25307019  0.66712027  1
  O  O167  1  0.62590053  0.24453510  0.90452890  1
  O  O168  1  0.62111859  0.50665573  0.15920611  1
  O  O169  1  0.62122928  0.49206340  0.41225373  1
  O  O170  1  0.62638551  0.50312538  0.66777021  1
  O  O171  1  0.62613250  0.50190183  0.91153426  1
  O  O172  1  0.62196168  0.74545053  0.16382526  1
  O  O173  1  0.62892346  0.75984623  0.40919641  1
  O  O174  1  0.62663684  0.75235606  0.66592976  1
  O  O175  1  0.62420884  0.75667644  0.91454032  1
  O  O176  1  0.87365207  -0.00467648  0.16265163  1
  O  O177  1  0.87342510  -0.00081554  0.41657742  1
  O  O178  1  0.87627217  -0.00068751  0.66599267  1
  O  O179  1  0.87286881  0.00189545  0.91365178  1
  O  O180  1  0.87424521  0.25367130  0.16030799  1
  O  O181  1  0.87154787  0.24943107  0.42109105  1
  O  O182  1  0.87493073  0.24413409  0.66420986  1
  O  O183  1  0.87425204  0.24181982  0.90827511  1
  O  O184  1  0.87357035  0.49387378  0.16149778  1
  O  O185  1  0.86997327  0.49712029  0.40978138  1
  O  O186  1  0.87396708  0.49855426  0.66286557  1
  O  O187  1  0.87476763  0.50664928  0.90882701  1
  O  O188  1  0.87348729  0.75732879  0.16600909  1
  O  O189  1  0.86934750  0.75967918  0.40844025  1
  O  O190  1  0.87399999  0.75340164  0.66622045  1
  O  O191  1  0.87308137  0.74611429  0.91497766  1
  O  O192  1  0.00612005  0.12549821  0.15813755  1
  O  O193  1  0.00578798  0.12786798  0.41502818  1
  O  O194  1  -0.00493862  0.12222624  0.66782271  1
  O  O195  1  -0.00553413  0.12022965  0.90997659  1
  O  O196  1  -0.00451991  0.37448805  0.16113940  1
  O  O197  1  0.00024088  0.37245693  0.41257461  1
  O  O198  1  -0.00723623  0.37220492  0.66417944  1
  O  O199  1  -0.00242708  0.37428693  0.91184197  1
  O  O200  1  0.00663022  0.62468673  0.16073635  1
  O  O201  1  -0.00353437  0.62619247  0.40685417  1
  O  O202  1  0.00445307  0.62706215  0.66251558  1
  O  O203  1  -0.00645425  0.62732770  0.91283212  1
  O  O204  1  -0.00726471  0.87569450  0.16427387  1
  O  O205  1  -0.00940123  0.87825358  0.41021871  1
  O  O206  1  0.00124273  0.87375379  0.66569439  1
  O  O207  1  -0.00305958  0.87486640  0.91551242  1
  O  O208  1  0.24894058  0.12351818  0.16260302  1
  O  O209  1  0.24266073  0.12454077  0.41542618  1
  O  O210  1  0.25325173  0.11885183  0.66666268  1
  O  O211  1  0.25936030  0.11603585  0.90886039  1
  O  O212  1  0.25300964  0.37450205  0.16546827  1
  O  O213  1  0.25840567  0.37282444  0.41511605  1
  O  O214  1  0.25579064  0.37167720  0.66788643  1
  O  O215  1  0.25001582  0.37144616  0.90271350  1
  O  O216  1  0.25448931  0.62745953  0.16354077  1
  O  O217  1  0.25259908  0.62405138  0.41408388  1
  O  O218  1  0.24352925  0.62723168  0.66358342  1
  O  O219  1  0.25236686  0.62923873  0.91142511  1
  O  O220  1  0.25919855  0.87508086  0.16814795  1
  O  O221  1  0.24776548  0.87978546  0.40964720  1
  O  O222  1  0.24814098  0.87596885  0.66194239  1
  O  O223  1  0.25679856  0.87644184  0.91024030  1
  O  O224  1  0.50139062  0.12344662  0.16020679  1
  O  O225  1  0.50399803  0.12621184  0.42120376  1
  O  O226  1  0.49269971  0.11846744  0.66504957  1
  O  O227  1  0.49352959  0.11622433  0.90863507  1
  O  O228  1  0.50010419  0.37343173  0.16433487  1
  O  O229  1  0.50079848  0.37068073  0.41988985  1
  O  O230  1  0.49947511  0.37381282  0.67036043  1
  O  O231  1  0.49855843  0.37164993  0.90377958  1
  O  O232  1  0.49751255  0.62795692  0.16237768  1
  O  O233  1  0.50201377  0.62419181  0.42114454  1
  O  O234  1  0.50899781  0.62719034  0.66809147  1
  O  O235  1  0.49900462  0.63043282  0.91097910  1
  O  O236  1  0.49474431  0.87603019  0.16635430  1
  O  O237  1  0.51012461  0.88212865  0.41154342  1
  O  O238  1  0.50474760  0.87401273  0.66320904  1
  O  O239  1  0.49987232  0.87622037  0.91396339  1
  O  O240  1  0.74379675  0.12418995  0.15780427  1
  O  O241  1  0.74597204  0.12601442  0.42040085  1
  O  O242  1  0.75957398  0.12032333  0.66646810  1
  O  O243  1  0.75299813  0.11979987  0.91022109  1
  O  O244  1  0.75260484  0.37439751  0.15824225  1
  O  O245  1  0.73938207  0.37130529  0.41495091  1
  O  O246  1  0.75384423  0.37384754  0.66790390  1
  O  O247  1  0.75342145  0.37433029  0.91297601  1
  O  O248  1  0.74217758  0.62571585  0.16140490  1
  O  O249  1  0.74675955  0.62618610  0.41380423  1
  O  O250  1  0.74576664  0.62614703  0.66650872  1
  O  O251  1  0.75483968  0.62740422  0.91382700  1
  O  O252  1  0.75327866  0.87606990  0.16302409  1
  O  O253  1  0.75051742  0.88129218  0.41675218  1
  O  O254  1  0.74628878  0.87319581  0.66532946  1
  O  O255  1  0.74547887  0.87604773  0.91159085  1
  O  O256  1  0.12899667  0.12297432  0.04511981  1
  O  O257  1  0.12459381  0.12805375  0.29752395  1
  O  O258  1  0.12344830  0.12316856  0.55466679  1
  O  O259  1  0.12501702  0.11158233  0.78106652  1
  O  O260  1  0.12856078  0.36901282  0.03624636  1
  O  O261  1  0.12682283  0.37950105  0.28317154  1
  O  O262  1  0.13056489  0.36877762  0.54437561  1
  O  O263  1  0.11866640  0.37811425  0.77555008  1
  O  O264  1  0.12873148  0.62718928  0.05043051  1
  O  O265  1  0.12944034  0.62112864  0.28030400  1
  O  O266  1  0.12384998  0.62704835  0.54826395  1
  O  O267  1  0.12674349  0.62432830  0.78290837  1
  O  O268  1  0.13120258  0.87600299  0.04555580  1
  O  O269  1  0.11596460  0.87630363  0.27682056  1
  O  O270  1  0.12068204  0.87518946  0.54795084  1
  O  O271  1  0.12130540  0.87476492  0.78460041  1
  O  O272  1  0.37306960  0.12462738  0.04513729  1
  O  O273  1  0.37704964  0.11938715  0.28972541  1
  O  O274  1  0.37271631  0.12543875  0.55117066  1
  O  O275  1  0.37587418  0.11523428  0.79343637  1
  O  O276  1  0.37388644  0.36676445  0.03064974  1
  O  O277  1  0.38028345  0.37099848  0.30103406  1
  O  O278  1  0.37742306  0.37052574  0.56309995  1
  O  O279  1  0.37592601  0.36465799  0.77230127  1
  O  O280  1  0.37362665  0.62677796  0.04952216  1
  O  O281  1  0.38186326  0.62672869  0.28550976  1
  O  O282  1  0.38500819  0.62739991  0.54602931  1
  O  O283  1  0.37413422  0.63421210  0.77540300  1
  O  O284  1  0.37588644  0.87305370  0.05318506  1
  O  O285  1  0.37805861  0.88734558  0.28524146  1
  O  O286  1  0.37558239  0.87694700  0.54745558  1
  O  O287  1  0.37772594  0.87806570  0.79639826  1
  O  O288  1  0.62253851  0.12261115  0.04324987  1
  O  O289  1  0.62528297  0.12704139  0.30100097  1
  O  O290  1  0.62648803  0.12171807  0.54818869  1
  O  O291  1  0.62489771  0.11332024  0.77660320  1
  O  O292  1  0.62041120  0.37048538  0.03034157  1
  O  O293  1  0.62276367  0.37233523  0.29999474  1
  O  O294  1  0.62510008  0.37871047  0.55473873  1
  O  O295  1  0.63163142  0.38023067  0.78201563  1
  O  O296  1  0.62327797  0.62880035  0.04743594  1
  O  O297  1  0.61723895  0.62589140  0.28437259  1
  O  O298  1  0.62628112  0.62496271  0.55392025  1
  O  O299  1  0.62326456  0.62492978  0.78425563  1
  O  O300  1  0.61769331  0.87599835  0.03640123  1
  O  O301  1  0.62736556  0.87901835  0.29778589  1
  O  O302  1  0.62517398  0.87250898  0.54921937  1
  O  O303  1  0.62593424  0.87473434  0.80087676  1
  O  O304  1  0.87188102  0.11946082  0.03371782  1
  O  O305  1  0.86905241  0.13035960  0.28607395  1
  O  O306  1  0.87737270  0.12572413  0.55069905  1
  O  O307  1  0.87415498  0.11971765  0.79720250  1
  O  O308  1  0.87602722  0.37503852  0.04590835  1
  O  O309  1  0.86941929  0.36643587  0.28301702  1
  O  O310  1  0.87231444  0.37564561  0.55469467  1
  O  O311  1  0.87318511  0.36937168  0.77979671  1
  O  O312  1  0.87052881  0.63242316  0.04284616  1
  O  O313  1  0.86472544  0.62304944  0.27645133  1
  O  O314  1  0.86736673  0.62855695  0.53667959  1
  O  O315  1  0.87465943  0.62937836  0.79710235  1
  O  O316  1  0.87317751  0.87225575  0.04692853  1
  O  O317  1  0.86746296  0.88362616  0.29725112  1
  O  O318  1  0.87545285  0.87628253  0.55168183  1
  O  O319  1  0.87288758  0.87198024  0.78337527  1
