# generated using pymatgen
data_VFe(PbO3)2
_symmetry_space_group_name_H-M   'P 1'
_cell_length_a   15.39024473
_cell_length_b   15.37547348
_cell_length_c   18.54365618
_cell_angle_alpha   89.99135536
_cell_angle_beta   89.96839657
_cell_angle_gamma   89.99019213
_symmetry_Int_Tables_number   1
_chemical_formula_structural   VFe(PbO3)2
_chemical_formula_sum   'V32 Fe32 Pb64 O192'
_cell_volume   4388.02722282
_cell_formula_units_Z   32
loop_
 _symmetry_equiv_pos_site_id
 _symmetry_equiv_pos_as_xyz
  1  'x, y, z'
loop_
 _atom_site_type_symbol
 _atom_site_label
 _atom_site_symmetry_multiplicity
 _atom_site_fract_x
 _atom_site_fract_y
 _atom_site_fract_z
 _atom_site_occupancy
  V  V0  1  0.62655087  0.87314027  0.64311109  1
  V  V1  1  0.62500067  0.37439844  0.63963838  1
  V  V2  1  0.12584308  0.87734128  0.89384784  1
  V  V3  1  0.37441666  0.87308214  0.38566787  1
  V  V4  1  0.12438444  0.62342282  0.13707954  1
  V  V5  1  0.61658645  0.37586432  0.13830725  1
  V  V6  1  0.12480789  0.12647282  0.88931476  1
  V  V7  1  0.62615063  0.62604996  0.64274709  1
  V  V8  1  0.62770138  0.12180795  0.63891117  1
  V  V9  1  0.12226336  0.37717865  0.38838870  1
  V  V10  1  0.37649330  0.87535260  0.64088415  1
  V  V11  1  0.37771993  0.62469327  0.64168768  1
  V  V12  1  0.87465566  0.37668224  0.13829446  1
  V  V13  1  0.37396278  0.87481790  0.13613373  1
  V  V14  1  0.87511422  0.37367976  0.64265515  1
  V  V15  1  0.37053372  0.12404759  0.89203427  1
  V  V16  1  0.87393845  0.12610219  0.89282008  1
  V  V17  1  0.62472551  0.87537035  0.13580396  1
  V  V18  1  0.12558239  0.12298016  0.13714822  1
  V  V19  1  0.87493379  0.87639034  0.64138815  1
  V  V20  1  0.12716104  0.12660798  0.38570474  1
  V  V21  1  0.37629077  0.37417697  0.89389150  1
  V  V22  1  0.62399263  0.62513191  0.38475854  1
  V  V23  1  0.12410037  0.37499570  0.63769207  1
  V  V24  1  0.37357793  0.62628919  0.89373129  1
  V  V25  1  0.12366713  0.37202223  0.13741754  1
  V  V26  1  0.62086261  0.12624142  0.89415154  1
  V  V27  1  0.12821451  0.62230525  0.89131042  1
  V  V28  1  0.87732986  0.62534483  0.38599657  1
  V  V29  1  0.62577998  0.62320373  0.89481952  1
  V  V30  1  0.12600469  0.37283272  0.89161412  1
  V  V31  1  0.12120326  0.12028985  0.64148956  1
  Fe  Fe32  1  0.87559665  0.87248944  0.37648832  1
  Fe  Fe33  1  0.12844607  0.87457482  0.13643543  1
  Fe  Fe34  1  0.87758594  0.12726255  0.14569243  1
  Fe  Fe35  1  0.62560904  0.62327543  0.12990246  1
  Fe  Fe36  1  0.37604495  0.37538107  0.63365834  1
  Fe  Fe37  1  0.37335403  0.12442316  0.13964418  1
  Fe  Fe38  1  0.62639736  0.87298384  0.37932473  1
  Fe  Fe39  1  0.62494924  0.12434419  0.37382573  1
  Fe  Fe40  1  0.12346775  0.87340201  0.63598071  1
  Fe  Fe41  1  0.87375415  0.37218007  0.88820519  1
  Fe  Fe42  1  0.62883770  0.37680186  0.37767227  1
  Fe  Fe43  1  0.37417766  0.62640243  0.37941410  1
  Fe  Fe44  1  0.87817363  0.37796550  0.38196865  1
  Fe  Fe45  1  0.37649254  0.87640743  0.88797956  1
  Fe  Fe46  1  0.12172618  0.62612411  0.63828340  1
  Fe  Fe47  1  0.37831010  0.12484139  0.63313444  1
  Fe  Fe48  1  0.87792409  0.12530108  0.37443710  1
  Fe  Fe49  1  0.36972016  0.37497909  0.14084181  1
  Fe  Fe50  1  0.87194423  0.87769466  0.89835691  1
  Fe  Fe51  1  0.12515902  0.87475692  0.37981981  1
  Fe  Fe52  1  0.37606829  0.62585853  0.13993848  1
  Fe  Fe53  1  0.37251928  0.12344194  0.38405509  1
  Fe  Fe54  1  0.62312470  0.37352426  0.88966044  1
  Fe  Fe55  1  0.62507534  0.12740720  0.14415316  1
  Fe  Fe56  1  0.62139155  0.87584130  0.88996226  1
  Fe  Fe57  1  0.37400075  0.37644175  0.38081988  1
  Fe  Fe58  1  0.12565566  0.62454218  0.38227560  1
  Fe  Fe59  1  0.87418032  0.62383357  0.12645136  1
  Fe  Fe60  1  0.87666195  0.87446933  0.13144794  1
  Fe  Fe61  1  0.87183043  0.62519925  0.64051168  1
  Fe  Fe62  1  0.87229925  0.12442648  0.63598579  1
  Fe  Fe63  1  0.87718905  0.62477403  0.89480889  1
  Pb  Pb64  1  -0.01057432  0.00132311  0.01120584  1
  Pb  Pb65  1  -0.00945376  -0.00649221  0.24726050  1
  Pb  Pb66  1  -0.00391453  -0.00380281  0.49004407  1
  Pb  Pb67  1  -0.00965213  -0.00686910  0.75504885  1
  Pb  Pb68  1  -0.00398345  0.24145181  0.00432903  1
  Pb  Pb69  1  -0.00564990  0.25379292  0.25280521  1
  Pb  Pb70  1  -0.00697649  0.24342013  0.49630045  1
  Pb  Pb71  1  -0.00435129  0.25411011  0.75118089  1
  Pb  Pb72  1  -0.00382555  0.50106882  -0.00125637  1
  Pb  Pb73  1  0.00114788  0.50388893  0.24833184  1
  Pb  Pb74  1  -0.00052287  0.51489777  0.50461788  1
  Pb  Pb75  1  -0.01027502  0.50563064  0.75455262  1
  Pb  Pb76  1  -0.00569240  0.75425674  0.00299686  1
  Pb  Pb77  1  -0.00266585  0.75766030  0.24206530  1
  Pb  Pb78  1  0.00882671  0.75354120  0.49718242  1
  Pb  Pb79  1  -0.00764768  0.74469083  0.75495301  1
  Pb  Pb80  1  0.24508498  -0.00379721  0.00317064  1
  Pb  Pb81  1  0.24986324  -0.00182723  0.24898439  1
  Pb  Pb82  1  0.24653997  -0.00456515  0.49791330  1
  Pb  Pb83  1  0.25549576  -0.00357367  0.74884822  1
  Pb  Pb84  1  0.26043723  0.25064359  0.00640878  1
  Pb  Pb85  1  0.26060563  0.25173539  0.25387052  1
  Pb  Pb86  1  0.26179585  0.24978165  0.49915412  1
  Pb  Pb87  1  0.25160222  0.24911913  0.74459133  1
  Pb  Pb88  1  0.26173222  0.49740352  0.00857889  1
  Pb  Pb89  1  0.25295179  0.50562989  0.25055225  1
  Pb  Pb90  1  0.25277037  0.50103332  0.49407722  1
  Pb  Pb91  1  0.24715028  0.49795355  0.74677810  1
  Pb  Pb92  1  0.24456393  0.75344897  0.00462121  1
  Pb  Pb93  1  0.23805114  0.74560370  0.25207707  1
  Pb  Pb94  1  0.23945020  0.74609970  0.49721837  1
  Pb  Pb95  1  0.24910661  0.75404335  0.74890062  1
  Pb  Pb96  1  0.49818348  0.00384293  0.00444606  1
  Pb  Pb97  1  0.50611141  0.00179229  0.24896689  1
  Pb  Pb98  1  0.50149638  0.00643333  0.49084111  1
  Pb  Pb99  1  0.50053524  -0.00713569  0.75400272  1
  Pb  Pb100  1  0.49596018  0.24018605  0.00989895  1
  Pb  Pb101  1  0.49317390  0.24079141  0.25183328  1
  Pb  Pb102  1  0.49891371  0.25005516  0.48653340  1
  Pb  Pb103  1  0.50184444  0.25100352  0.74627968  1
  Pb  Pb104  1  0.49609966  0.50610361  0.00786428  1
  Pb  Pb105  1  0.48984750  0.50227127  0.24873485  1
  Pb  Pb106  1  0.49347302  0.49034357  0.49249237  1
  Pb  Pb107  1  0.50664683  0.49651335  0.75262561  1
  Pb  Pb108  1  0.49934444  0.74254039  0.00411938  1
  Pb  Pb109  1  0.50158337  0.74881938  0.24502441  1
  Pb  Pb110  1  0.49907829  0.75037499  0.49420976  1
  Pb  Pb111  1  0.50165622  0.75706285  0.75671217  1
  Pb  Pb112  1  0.75124392  0.00444813  0.00733305  1
  Pb  Pb113  1  0.75298748  0.00500304  0.24496694  1
  Pb  Pb114  1  0.75425354  0.00367633  0.48284892  1
  Pb  Pb115  1  0.74887903  -0.01159867  0.75885390  1
  Pb  Pb116  1  0.74298158  0.24396934  0.00805094  1
  Pb  Pb117  1  0.74344548  0.25271672  0.25212666  1
  Pb  Pb118  1  0.75195078  0.24642609  0.48403526  1
  Pb  Pb119  1  0.74775938  0.25709864  0.75471903  1
  Pb  Pb120  1  0.75193366  0.49779919  -0.00241995  1
  Pb  Pb121  1  0.74978520  0.49514913  0.24545044  1
  Pb  Pb122  1  0.75439776  0.50279448  0.49644635  1
  Pb  Pb123  1  0.75081689  0.49323588  0.75705160  1
  Pb  Pb124  1  0.75483179  0.75202365  -0.00049044  1
  Pb  Pb125  1  0.75378377  0.75487508  0.23960198  1
  Pb  Pb126  1  0.75576774  0.74962667  0.49505273  1
  Pb  Pb127  1  0.75716380  0.74903992  0.75869631  1
  O  O128  1  0.12993261  0.00650850  0.15728458  1
  O  O129  1  0.12744667  0.00553170  0.40908343  1
  O  O130  1  0.12305025  0.00348741  0.66549825  1
  O  O131  1  0.12756882  -0.00221683  0.91392779  1
  O  O132  1  0.12158693  0.25504341  0.15916855  1
  O  O133  1  0.12560630  0.24792461  0.41176468  1
  O  O134  1  0.12257363  0.24988957  0.66688787  1
  O  O135  1  0.12542623  0.24793663  0.91484042  1
  O  O136  1  0.12378557  0.50085042  0.16066878  1
  O  O137  1  0.12275608  0.49451081  0.41099487  1
  O  O138  1  0.12332698  0.49616700  0.66790011  1
  O  O139  1  0.12865632  0.50331593  0.91451914  1
  O  O140  1  0.12787486  0.74301024  0.15821396  1
  O  O141  1  0.12509297  0.74983157  0.41281560  1
  O  O142  1  0.12563968  0.75043806  0.67038443  1
  O  O143  1  0.13134784  0.74806033  0.91425280  1
  O  O144  1  0.37295088  -0.00613256  0.16297247  1
  O  O145  1  0.37351059  -0.00820509  0.41148917  1
  O  O146  1  0.37582277  -0.00141028  0.66473022  1
  O  O147  1  0.37402317  0.00549693  0.91621096  1
  O  O148  1  0.37099743  0.25071582  0.16609557  1
  O  O149  1  0.37092771  0.25115482  0.41007243  1
  O  O150  1  0.37495780  0.24899774  0.66536721  1
  O  O151  1  0.37166109  0.24781738  0.91781121  1
  O  O152  1  0.37260799  0.49967060  0.16478123  1
  O  O153  1  0.37410478  0.50169868  0.41186383  1
  O  O154  1  0.37851540  0.50612357  0.66472852  1
  O  O155  1  0.37137329  0.50172129  0.91804882  1
  O  O156  1  0.37795039  0.75768777  0.15865864  1
  O  O157  1  0.37610449  0.75429843  0.41239452  1
  O  O158  1  0.37872975  0.74677012  0.66804205  1
  O  O159  1  0.37294025  0.74341153  0.91318043  1
  O  O160  1  0.62253738  -0.00693588  0.16072012  1
  O  O161  1  0.62425739  -0.00166242  0.40856356  1
  O  O162  1  0.62522955  0.00210997  0.66429433  1
  O  O163  1  0.62462686  0.01067721  0.91951782  1
  O  O164  1  0.62954613  0.26108165  0.16479647  1
  O  O165  1  0.62652614  0.25004327  0.40553916  1
  O  O166  1  0.62551320  0.24827776  0.66452691  1
  O  O167  1  0.62516275  0.24306238  0.91941025  1
  O  O168  1  0.63074259  0.49198325  0.15855791  1
  O  O169  1  0.62778391  0.51007388  0.41117028  1
  O  O170  1  0.62510925  0.49981900  0.66930534  1
  O  O171  1  0.61944733  0.50399000  0.91626103  1
  O  O172  1  0.62053012  0.75650821  0.15646682  1
  O  O173  1  0.62689164  0.74264375  0.41431807  1
  O  O174  1  0.62475270  0.75060850  0.67178547  1
  O  O175  1  0.61800184  0.74243627  0.91354226  1
  O  O176  1  0.87722319  -0.00136163  0.16092757  1
  O  O177  1  0.87846999  0.00021643  0.40372136  1
  O  O178  1  0.87273485  -0.00424905  0.66750978  1
  O  O179  1  0.87623776  0.00944543  0.91975586  1
  O  O180  1  0.88556629  0.26021245  0.16208327  1
  O  O181  1  0.88041458  0.25033897  0.40793433  1
  O  O182  1  0.87379840  0.25367811  0.66629854  1
  O  O183  1  0.87770950  0.24279689  0.91727785  1
  O  O184  1  0.88101978  0.49579262  0.15943098  1
  O  O185  1  0.87564244  0.50733049  0.41425480  1
  O  O186  1  0.87273321  0.49214228  0.66725699  1
  O  O187  1  0.87728509  0.49746241  0.91454416  1
  O  O188  1  0.87584609  0.74838026  0.15440386  1
  O  O189  1  0.87424122  0.74175733  0.41006374  1
  O  O190  1  0.87081006  0.75777104  0.66774299  1
  O  O191  1  0.87610203  0.75086775  0.91702492  1
  O  O192  1  0.01276275  0.12724239  0.16601023  1
  O  O193  1  0.00888058  0.12542895  0.40970612  1
  O  O194  1  0.00334268  0.12608387  0.66840909  1
  O  O195  1  -0.00035095  0.12425600  0.91611558  1
  O  O196  1  0.00554812  0.37956985  0.16457303  1
  O  O197  1  0.00704378  0.37400768  0.41561477  1
  O  O198  1  -0.00416455  0.37344782  0.66577686  1
  O  O199  1  0.00680553  0.37428733  0.91497204  1
  O  O200  1  0.00538658  0.62344980  0.15812917  1
  O  O201  1  -0.00522464  0.62410828  0.40977042  1
  O  O202  1  -0.00356214  0.62492575  0.67152475  1
  O  O203  1  0.01252788  0.62645088  0.91335179  1
  O  O204  1  0.00372511  0.87416228  0.15621837  1
  O  O205  1  -0.00026013  0.87358406  0.40820480  1
  O  O206  1  -0.00787597  0.87634838  0.66420196  1
  O  O207  1  0.01003596  0.87436246  0.91504658  1
  O  O208  1  0.24106707  0.12976743  0.16336212  1
  O  O209  1  0.24335875  0.12456020  0.41518182  1
  O  O210  1  0.24137626  0.12556660  0.66480114  1
  O  O211  1  0.24713075  0.12450307  0.91532969  1
  O  O212  1  0.23773736  0.37741579  0.16371605  1
  O  O213  1  0.24020522  0.37491990  0.41353350  1
  O  O214  1  0.24745982  0.37576862  0.66419059  1
  O  O215  1  0.24912930  0.37433309  0.91940846  1
  O  O216  1  0.24388671  0.62297835  0.16005760  1
  O  O217  1  0.25066582  0.62503749  0.41244866  1
  O  O218  1  0.25898978  0.62523858  0.66410937  1
  O  O219  1  0.25032282  0.62365538  0.91764339  1
  O  O220  1  0.25749748  0.87402069  0.16281522  1
  O  O221  1  0.25612092  0.87349580  0.41209879  1
  O  O222  1  0.25341244  0.87527774  0.66571285  1
  O  O223  1  0.24765961  0.87522984  0.91743624  1
  O  O224  1  0.49820486  0.12648279  0.16467456  1
  O  O225  1  0.49895750  0.12308339  0.40695416  1
  O  O226  1  0.50878342  0.12519725  0.66456142  1
  O  O227  1  0.50078820  0.12749222  0.91430128  1
  O  O228  1  0.50255560  0.37583415  0.15301872  1
  O  O229  1  0.50243082  0.37844858  0.40658108  1
  O  O230  1  0.50310372  0.37535268  0.66590458  1
  O  O231  1  0.49390114  0.37303729  0.91622648  1
  O  O232  1  0.50373129  0.62307326  0.16504552  1
  O  O233  1  0.50603211  0.62708848  0.40751341  1
  O  O234  1  0.49919964  0.62577031  0.67147571  1
  O  O235  1  0.49288793  0.62170277  0.91520540  1
  O  O236  1  0.49683027  0.87731010  0.15990120  1
  O  O237  1  0.49465650  0.87218278  0.41200527  1
  O  O238  1  0.50122640  0.87494021  0.66996923  1
  O  O239  1  0.49838918  0.87750552  0.92043344  1
  O  O240  1  0.75138932  0.12842175  0.16216044  1
  O  O241  1  0.75180924  0.12488927  0.40032373  1
  O  O242  1  0.74304306  0.12553518  0.66588058  1
  O  O243  1  0.75253360  0.12637739  0.91449740  1
  O  O244  1  0.75912665  0.37529214  0.15643565  1
  O  O245  1  0.75299024  0.37938909  0.41317194  1
  O  O246  1  0.75140734  0.37385106  0.66743428  1
  O  O247  1  0.74808872  0.37242395  0.91990107  1
  O  O248  1  0.74981080  0.62338214  0.15640094  1
  O  O249  1  0.75113506  0.62509881  0.41086390  1
  O  O250  1  0.74532035  0.62563608  0.67159281  1
  O  O251  1  0.74279385  0.62414988  0.91019391  1
  O  O252  1  0.74321907  0.87442735  0.15221197  1
  O  O253  1  0.75180055  0.87056657  0.41147751  1
  O  O254  1  0.75139217  0.87635872  0.66984472  1
  O  O255  1  0.74417828  0.87794142  0.92086899  1
  O  O256  1  0.12316223  0.12640738  0.04545292  1
  O  O257  1  0.12985825  0.12737909  0.29519139  1
  O  O258  1  0.12053334  0.12142178  0.55100965  1
  O  O259  1  0.12324716  0.12368572  0.79885154  1
  O  O260  1  0.12305585  0.37436809  0.04642735  1
  O  O261  1  0.12145323  0.37559965  0.29733925  1
  O  O262  1  0.12239598  0.37478787  0.54746424  1
  O  O263  1  0.12833254  0.37492344  0.80063274  1
  O  O264  1  0.12582684  0.62313075  0.04575453  1
  O  O265  1  0.12808039  0.62566814  0.28264743  1
  O  O266  1  0.11719666  0.62734723  0.53845048  1
  O  O267  1  0.13173660  0.62228875  0.80042152  1
  O  O268  1  0.13774410  0.87447414  0.03572458  1
  O  O269  1  0.13295280  0.87079461  0.27930127  1
  O  O270  1  0.12573864  0.87311312  0.53669136  1
  O  O271  1  0.12794449  0.87595124  0.80263612  1
  O  O272  1  0.37634351  0.13083106  0.03816772  1
  O  O273  1  0.36757906  0.12841213  0.28341442  1
  O  O274  1  0.37391086  0.12553703  0.53428638  1
  O  O275  1  0.37266231  0.12566154  0.80091572  1
  O  O276  1  0.36249890  0.37352018  0.03914938  1
  O  O277  1  0.36832841  0.37644200  0.28010829  1
  O  O278  1  0.37589758  0.37853215  0.53462026  1
  O  O279  1  0.37239697  0.37519694  0.80284107  1
  O  O280  1  0.37918083  0.62019762  0.03840432  1
  O  O281  1  0.37587715  0.62199854  0.27918451  1
  O  O282  1  0.38151301  0.62773950  0.55128958  1
  O  O283  1  0.37301808  0.62219537  0.80319413  1
  O  O284  1  0.37215236  0.87790453  0.04470374  1
  O  O285  1  0.37361961  0.87324405  0.29497644  1
  O  O286  1  0.37936681  0.87222419  0.55045227  1
  O  O287  1  0.37829269  0.87866511  0.78788124  1
  O  O288  1  0.62277143  0.13261538  0.04171854  1
  O  O289  1  0.62342474  0.12492646  0.27223836  1
  O  O290  1  0.62714260  0.12243896  0.54850386  1
  O  O291  1  0.62363303  0.12594543  0.80345177  1
  O  O292  1  0.62721070  0.37168590  0.04686180  1
  O  O293  1  0.63640576  0.38025394  0.27781738  1
  O  O294  1  0.62626110  0.37614692  0.54949475  1
  O  O295  1  0.62822811  0.37345378  0.78947725  1
  O  O296  1  0.61345308  0.62427889  0.02976649  1
  O  O297  1  0.62705254  0.62690318  0.29408709  1
  O  O298  1  0.62525243  0.62666204  0.55241532  1
  O  O299  1  0.61872864  0.62113676  0.80352901  1
  O  O300  1  0.61857829  0.87844955  0.04476222  1
  O  O301  1  0.62260963  0.87007681  0.28043031  1
  O  O302  1  0.62518524  0.87025639  0.55293418  1
  O  O303  1  0.62163150  0.88187548  0.78896868  1
  O  O304  1  0.88696896  0.12581505  0.04338853  1
  O  O305  1  0.88503497  0.12595248  0.27311026  1
  O  O306  1  0.87919362  0.12550401  0.53804346  1
  O  O307  1  0.87540353  0.12420556  0.80181620  1
  O  O308  1  0.88011969  0.37546424  0.04672408  1
  O  O309  1  0.88170657  0.38149824  0.28263943  1
  O  O310  1  0.87463352  0.37538392  0.55231923  1
  O  O311  1  0.87049989  0.36936026  0.78821088  1
  O  O312  1  0.87889279  0.62188374  0.02521504  1
  O  O313  1  0.87651792  0.62328668  0.29516881  1
  O  O314  1  0.87476256  0.62051968  0.54125675  1
  O  O315  1  0.87954373  0.62856442  0.79252006  1
  O  O316  1  0.87878769  0.88004134  0.02806488  1
  O  O317  1  0.87573504  0.86826380  0.27574319  1
  O  O318  1  0.87192597  0.87533325  0.55087329  1
  O  O319  1  0.87196941  0.88479143  0.79685218  1
