# generated using pymatgen
data_VFe(PbO3)2
_symmetry_space_group_name_H-M   'P 1'
_cell_length_a   15.38738283
_cell_length_b   15.39070958
_cell_length_c   18.47731014
_cell_angle_alpha   89.98063348
_cell_angle_beta   89.96505988
_cell_angle_gamma   90.02181277
_symmetry_Int_Tables_number   1
_chemical_formula_structural   VFe(PbO3)2
_chemical_formula_sum   'V32 Fe32 Pb64 O192'
_cell_volume   4375.84583973
_cell_formula_units_Z   32
loop_
 _symmetry_equiv_pos_site_id
 _symmetry_equiv_pos_as_xyz
  1  'x, y, z'
loop_
 _atom_site_type_symbol
 _atom_site_label
 _atom_site_symmetry_multiplicity
 _atom_site_fract_x
 _atom_site_fract_y
 _atom_site_fract_z
 _atom_site_occupancy
  V  V0  1  0.37855538  0.87216131  0.38885700  1
  V  V1  1  0.12381086  0.62629608  0.89052070  1
  V  V2  1  0.37766636  0.62315871  0.39848956  1
  V  V3  1  0.87506489  0.12221050  0.64575023  1
  V  V4  1  0.62486021  0.12468675  0.13291934  1
  V  V5  1  0.12452984  0.62446204  0.38979533  1
  V  V6  1  0.62446204  0.62438756  0.39245391  1
  V  V7  1  0.12443703  0.62294232  0.14199209  1
  V  V8  1  0.62772384  0.87731449  0.64552022  1
  V  V9  1  0.12563304  0.37388924  0.14188587  1
  V  V10  1  0.12140855  0.62825889  0.63765429  1
  V  V11  1  0.87002199  0.62802225  0.88617498  1
  V  V12  1  0.12893107  0.87670225  0.89496482  1
  V  V13  1  0.62648855  0.12462508  0.64652896  1
  V  V14  1  0.87788686  0.12728597  0.13767395  1
  V  V15  1  0.37665838  0.87967164  0.13791181  1
  V  V16  1  0.12555930  0.13256619  0.89066479  1
  V  V17  1  0.12429867  0.87784978  0.63663545  1
  V  V18  1  0.87270769  0.37830738  0.38876928  1
  V  V19  1  0.36903601  0.62554850  0.88587291  1
  V  V20  1  0.37680016  0.37607077  0.39595622  1
  V  V21  1  0.87615307  0.62334687  0.64283453  1
  V  V22  1  0.87615673  0.87443079  0.64053696  1
  V  V23  1  0.37296891  0.87280677  0.88878499  1
  V  V24  1  0.87363406  0.62123016  0.13663601  1
  V  V25  1  0.37423620  0.62304355  0.13865959  1
  V  V26  1  0.37679808  0.87587564  0.64066113  1
  V  V27  1  0.62500764  0.37650564  0.39133438  1
  V  V28  1  0.62167604  0.87466630  0.38939121  1
  V  V29  1  0.36868757  0.37067134  0.88494874  1
  V  V30  1  0.12027913  0.12318342  0.63623696  1
  V  V31  1  0.87598037  0.37203654  0.64402395  1
  Fe  Fe32  1  0.62344962  0.12522208  0.88154061  1
  Fe  Fe33  1  0.87449882  0.87460403  0.13354680  1
  Fe  Fe34  1  0.12542174  0.12622383  0.37747616  1
  Fe  Fe35  1  0.62371194  0.87548054  0.88573447  1
  Fe  Fe36  1  0.87032107  0.12651801  0.38077706  1
  Fe  Fe37  1  0.37560282  0.12853571  0.13518628  1
  Fe  Fe38  1  0.87821647  0.12362761  0.88325158  1
  Fe  Fe39  1  0.61966589  0.62562034  0.88060377  1
  Fe  Fe40  1  0.12133840  0.37213476  0.63164722  1
  Fe  Fe41  1  0.62633029  0.37432497  0.64602015  1
  Fe  Fe42  1  0.62384401  0.12746414  0.38597216  1
  Fe  Fe43  1  0.12807062  0.87299402  0.37646096  1
  Fe  Fe44  1  0.87949098  0.87291578  0.89535580  1
  Fe  Fe45  1  0.87110271  0.62251365  0.38470874  1
  Fe  Fe46  1  0.37351852  0.12072745  0.64078171  1
  Fe  Fe47  1  0.62415270  0.62511380  0.12750364  1
  Fe  Fe48  1  0.37612171  0.37775858  0.13304951  1
  Fe  Fe49  1  0.12631105  0.12526745  0.14382237  1
  Fe  Fe50  1  0.37301505  0.62765594  0.63401895  1
  Fe  Fe51  1  0.38067473  0.12597514  0.38573444  1
  Fe  Fe52  1  0.62722248  0.62810032  0.64754350  1
  Fe  Fe53  1  0.12604479  0.87154552  0.14875761  1
  Fe  Fe54  1  0.87074097  0.87038703  0.37978583  1
  Fe  Fe55  1  0.62309705  0.37545245  0.87883685  1
  Fe  Fe56  1  0.88027769  0.37695270  0.88811596  1
  Fe  Fe57  1  0.62403087  0.87345489  0.13045255  1
  Fe  Fe58  1  0.87553090  0.37467388  0.13178272  1
  Fe  Fe59  1  0.62598268  0.37614354  0.12988208  1
  Fe  Fe60  1  0.12836227  0.37946489  0.88281519  1
  Fe  Fe61  1  0.37353840  0.37404255  0.63266348  1
  Fe  Fe62  1  0.36945646  0.12127964  0.88332597  1
  Fe  Fe63  1  0.12579139  0.37687425  0.39346276  1
  Pb  Pb64  1  0.00145632  -0.00489988  0.00634169  1
  Pb  Pb65  1  -0.00101719  -0.00922334  0.24787762  1
  Pb  Pb66  1  0.00028675  -0.00110980  0.48192867  1
  Pb  Pb67  1  -0.00912089  -0.00315949  0.75660314  1
  Pb  Pb68  1  -0.00500666  0.25602694  -0.00083256  1
  Pb  Pb69  1  0.00080609  0.24385254  0.25338767  1
  Pb  Pb70  1  0.00441227  0.24775375  0.49382678  1
  Pb  Pb71  1  -0.00654095  0.25331360  0.75602118  1
  Pb  Pb72  1  -0.00387312  0.49650841  0.00079218  1
  Pb  Pb73  1  0.00372550  0.49379881  0.25452228  1
  Pb  Pb74  1  0.00289534  0.49502112  0.50219860  1
  Pb  Pb75  1  0.00110299  0.49052827  0.75587198  1
  Pb  Pb76  1  0.00321288  0.75972692  0.01141969  1
  Pb  Pb77  1  -0.01127043  0.75064150  0.25325291  1
  Pb  Pb78  1  -0.00439373  0.75498828  0.49086263  1
  Pb  Pb79  1  -0.00691073  0.75625164  0.75437664  1
  Pb  Pb80  1  0.24481152  0.00994750  0.01181001  1
  Pb  Pb81  1  0.24381818  0.00663728  0.25021811  1
  Pb  Pb82  1  0.25200851  0.00829757  0.49306544  1
  Pb  Pb83  1  0.25001339  0.00528603  0.75213709  1
  Pb  Pb84  1  0.25090161  0.23895391  0.00902873  1
  Pb  Pb85  1  0.25390269  0.24512832  0.25084120  1
  Pb  Pb86  1  0.25322373  0.24711966  0.49710486  1
  Pb  Pb87  1  0.25245395  0.24842834  0.74293553  1
  Pb  Pb88  1  0.25814921  0.49708136  0.00119106  1
  Pb  Pb89  1  0.24595093  0.49310832  0.25665933  1
  Pb  Pb90  1  0.25568821  0.49593603  0.50759286  1
  Pb  Pb91  1  0.24511832  0.49213069  0.74260794  1
  Pb  Pb92  1  0.24559638  0.75605973  0.00782550  1
  Pb  Pb93  1  0.24958498  0.74967092  0.25315227  1
  Pb  Pb94  1  0.25495384  0.74708258  0.50040236  1
  Pb  Pb95  1  0.24591408  0.75195075  0.74837610  1
  Pb  Pb96  1  0.49905075  0.00511976  -0.00673663  1
  Pb  Pb97  1  0.50404684  0.01426156  0.25231714  1
  Pb  Pb98  1  0.49560607  0.00828930  0.50358282  1
  Pb  Pb99  1  0.50874818  0.00166905  0.75781184  1
  Pb  Pb100  1  0.49721646  0.25114475  -0.00849117  1
  Pb  Pb101  1  0.49866907  0.24717109  0.24541158  1
  Pb  Pb102  1  0.49858981  0.25545742  0.50616525  1
  Pb  Pb103  1  0.49926245  0.24974312  0.74757413  1
  Pb  Pb104  1  0.50333909  0.49265929  -0.00291996  1
  Pb  Pb105  1  0.50439722  0.49597655  0.24401989  1
  Pb  Pb106  1  0.50250917  0.49340798  0.51278355  1
  Pb  Pb107  1  0.50079117  0.50156600  0.74160017  1
  Pb  Pb108  1  0.50768623  0.74759804  -0.00153924  1
  Pb  Pb109  1  0.50493678  0.74762069  0.24526602  1
  Pb  Pb110  1  0.50429721  0.73981109  0.50957215  1
  Pb  Pb111  1  0.50672064  0.74766315  0.75303893  1
  Pb  Pb112  1  0.75261741  -0.00307430  -0.00978921  1
  Pb  Pb113  1  0.75262597  0.00068485  0.24387960  1
  Pb  Pb114  1  0.75330020  0.00125927  0.49333264  1
  Pb  Pb115  1  0.75049634  0.00172733  0.75949951  1
  Pb  Pb116  1  0.74926018  0.25510607  -0.01260663  1
  Pb  Pb117  1  0.74860123  0.24452238  0.24585515  1
  Pb  Pb118  1  0.74600536  0.25419439  0.50068897  1
  Pb  Pb119  1  0.74532946  0.25034814  0.75969932  1
  Pb  Pb120  1  0.73664358  0.49342043  -0.00620202  1
  Pb  Pb121  1  0.75004989  0.49968301  0.24223099  1
  Pb  Pb122  1  0.73677260  0.50026848  0.51005795  1
  Pb  Pb123  1  0.74261342  0.49790305  0.75562715  1
  Pb  Pb124  1  0.73797527  0.75566651  -0.00151589  1
  Pb  Pb125  1  0.75438349  0.75136026  0.24462428  1
  Pb  Pb126  1  0.74487059  0.74396892  0.50222921  1
  Pb  Pb127  1  0.74736638  0.75927622  0.75752621  1
  O  O128  1  0.12782194  -0.00123344  0.16543495  1
  O  O129  1  0.12676278  -0.00190795  0.40320792  1
  O  O130  1  0.12091185  -0.00066104  0.66576376  1
  O  O131  1  0.12855585  -0.00706280  0.91498322  1
  O  O132  1  0.12490855  0.25911212  0.16320685  1
  O  O133  1  0.12583748  0.25043965  0.41403396  1
  O  O134  1  0.12131863  0.24062413  0.65445645  1
  O  O135  1  0.12921140  0.24775784  0.90647157  1
  O  O136  1  0.12627531  0.50176671  0.16905932  1
  O  O137  1  0.12764627  0.50842757  0.41986844  1
  O  O138  1  0.11906354  0.51117604  0.65706879  1
  O  O139  1  0.13292534  0.51000416  0.91209318  1
  O  O140  1  0.12922392  0.73725289  0.16755313  1
  O  O141  1  0.12953080  0.74345908  0.41100245  1
  O  O142  1  0.12117830  0.75169788  0.66463242  1
  O  O143  1  0.13050330  0.74860998  0.91957091  1
  O  O144  1  0.37626604  -0.00604791  0.15636557  1
  O  O145  1  0.38159361  -0.00980815  0.41173932  1
  O  O146  1  0.37240173  -0.00843900  0.66857452  1
  O  O147  1  0.36677220  -0.01004352  0.91070147  1
  O  O148  1  0.37601106  0.25374324  0.16279926  1
  O  O149  1  0.37912985  0.25697947  0.41352978  1
  O  O150  1  0.37083211  0.24647703  0.66219819  1
  O  O151  1  0.36935700  0.25509015  0.90409921  1
  O  O152  1  0.37219494  0.50611538  0.16706022  1
  O  O153  1  0.37778125  0.49884586  0.42177272  1
  O  O154  1  0.37187603  0.50264270  0.65922089  1
  O  O155  1  0.36743965  0.50725010  0.90547936  1
  O  O156  1  0.37295164  0.74094955  0.16403617  1
  O  O157  1  0.37939106  0.75314576  0.41849465  1
  O  O158  1  0.37034043  0.75902996  0.66542433  1
  O  O159  1  0.36858381  0.75237143  0.91471511  1
  O  O160  1  0.62479395  0.00473490  0.15734197  1
  O  O161  1  0.62245846  -0.00923628  0.41151654  1
  O  O162  1  0.62769741  0.00118216  0.67071687  1
  O  O163  1  0.62121952  -0.00019788  0.91200992  1
  O  O164  1  0.62526273  0.24298966  0.15628517  1
  O  O165  1  0.62435744  0.25662451  0.41668240  1
  O  O166  1  0.63091312  0.24234619  0.66484101  1
  O  O167  1  0.61961607  0.25173194  0.90815992  1
  O  O168  1  0.62617927  0.50369693  0.16253394  1
  O  O169  1  0.62375230  0.49979395  0.42141177  1
  O  O170  1  0.63022017  0.50146741  0.66658773  1
  O  O171  1  0.62080400  0.50119228  0.90521626  1
  O  O172  1  0.62161840  0.74704878  0.16208965  1
  O  O173  1  0.62166866  0.74995258  0.41898493  1
  O  O174  1  0.62790621  0.75764065  0.66868013  1
  O  O175  1  0.62051899  0.74892224  0.90987990  1
  O  O176  1  0.87363613  0.00732582  0.15914177  1
  O  O177  1  0.86991748  -0.00322861  0.40837208  1
  O  O178  1  0.87710179  -0.00244761  0.66896531  1
  O  O179  1  0.88331605  0.00036426  0.91656830  1
  O  O180  1  0.87409144  0.24631330  0.16145972  1
  O  O181  1  0.87110822  0.26024755  0.41448105  1
  O  O182  1  0.87851580  0.25263086  0.66550195  1
  O  O183  1  0.88314779  0.24861196  0.91207807  1
  O  O184  1  0.87878856  0.50444170  0.16274848  1
  O  O185  1  0.87240989  0.49519704  0.41564858  1
  O  O186  1  0.87914134  0.50355767  0.66323934  1
  O  O187  1  0.88326954  0.51327529  0.91253539  1
  O  O188  1  0.87981349  0.73963877  0.15901540  1
  O  O189  1  0.87219298  0.74677517  0.41621551  1
  O  O190  1  0.87762905  0.75057311  0.66744648  1
  O  O191  1  0.88332827  0.73902447  0.91739909  1
  O  O192  1  -0.00581890  0.12775116  0.16117287  1
  O  O193  1  -0.00300968  0.12681155  0.40778395  1
  O  O194  1  0.00351044  0.12144292  0.66504854  1
  O  O195  1  0.01271593  0.12070030  0.91634955  1
  O  O196  1  0.00566645  0.37877997  0.16521498  1
  O  O197  1  -0.00829038  0.37846878  0.41345809  1
  O  O198  1  -0.00403244  0.37692006  0.66512506  1
  O  O199  1  0.00736443  0.38012869  0.91649814  1
  O  O200  1  0.00563030  0.62119152  0.16225324  1
  O  O201  1  0.00660619  0.62474013  0.41063863  1
  O  O202  1  -0.00132773  0.63050363  0.66629162  1
  O  O203  1  0.01094605  0.62731496  0.91191439  1
  O  O204  1  -0.00228756  0.87198161  0.16573121  1
  O  O205  1  0.00094381  0.86989224  0.40414211  1
  O  O206  1  0.00018629  0.87498252  0.66599507  1
  O  O207  1  0.01193122  0.86992161  0.91965608  1
  O  O208  1  0.25326544  0.12718271  0.16804153  1
  O  O209  1  0.25391961  0.12481666  0.40958844  1
  O  O210  1  0.23839524  0.11856136  0.66196976  1
  O  O211  1  0.24305640  0.12111362  0.91842107  1
  O  O212  1  0.24434606  0.37952660  0.16613483  1
  O  O213  1  0.25781359  0.37857201  0.41483218  1
  O  O214  1  0.24479483  0.37682808  0.65775061  1
  O  O215  1  0.25406551  0.38004216  0.91400221  1
  O  O216  1  0.24954959  0.62070477  0.16736725  1
  O  O217  1  0.24963045  0.62507991  0.41786588  1
  O  O218  1  0.23907603  0.63146162  0.65979037  1
  O  O219  1  0.25203507  0.63045159  0.91917380  1
  O  O220  1  0.26235426  0.86841151  0.16784380  1
  O  O221  1  0.26050732  0.87114464  0.40736626  1
  O  O222  1  0.24790078  0.87587794  0.66359504  1
  O  O223  1  0.24797332  0.87040849  0.91990993  1
  O  O224  1  0.50549252  0.12401653  0.15853412  1
  O  O225  1  0.50261385  0.12508988  0.42185908  1
  O  O226  1  0.50681114  0.12134589  0.66184619  1
  O  O227  1  0.49380181  0.12333157  0.90962162  1
  O  O228  1  0.50163537  0.37898535  0.16305822  1
  O  O229  1  0.50003322  0.37866331  0.42019465  1
  O  O230  1  0.49872720  0.37189982  0.66357972  1
  O  O231  1  0.48688020  0.37996157  0.90501687  1
  O  O232  1  0.49209898  0.62265652  0.15888573  1
  O  O233  1  0.50184158  0.62430841  0.42405620  1
  O  O234  1  0.49743427  0.63103906  0.66254439  1
  O  O235  1  0.48577848  0.62913643  0.90424388  1
  O  O236  1  0.49213024  0.86803223  0.16228233  1
  O  O237  1  0.50225445  0.87012856  0.41990048  1
  O  O238  1  0.49560369  0.87644838  0.66356819  1
  O  O239  1  0.48863674  0.87307483  0.90873996  1
  O  O240  1  0.74833250  0.12549051  0.15749136  1
  O  O241  1  0.74706960  0.12610414  0.41858955  1
  O  O242  1  0.75143676  0.12180418  0.67056278  1
  O  O243  1  0.75147776  0.12526481  0.90786164  1
  O  O244  1  0.75120596  0.37624651  0.16126567  1
  O  O245  1  0.75074940  0.37802793  0.41698805  1
  O  O246  1  0.76076198  0.37533825  0.66863042  1
  O  O247  1  0.75199979  0.37791281  0.90449786  1
  O  O248  1  0.75646217  0.62433981  0.15437273  1
  O  O249  1  0.74406196  0.62419643  0.41808271  1
  O  O250  1  0.76267633  0.62835048  0.66928827  1
  O  O251  1  0.75493442  0.62656159  0.89829985  1
  O  O252  1  0.74901180  0.87239879  0.15804316  1
  O  O253  1  0.73901833  0.86991991  0.41160851  1
  O  O254  1  0.75309009  0.87704647  0.66879257  1
  O  O255  1  0.75143781  0.87168685  0.90941955  1
  O  O256  1  0.13604350  0.12785467  0.04186632  1
  O  O257  1  0.12483423  0.13294933  0.27587137  1
  O  O258  1  0.12070590  0.11695389  0.54491756  1
  O  O259  1  0.12669809  0.12268035  0.79952150  1
  O  O260  1  0.12727486  0.37828051  0.05052754  1
  O  O261  1  0.12339428  0.38678839  0.29313114  1
  O  O262  1  0.11670978  0.37947795  0.53076944  1
  O  O263  1  0.12382755  0.38345008  0.78249967  1
  O  O264  1  0.12795549  0.62202423  0.05091112  1
  O  O265  1  0.12857236  0.61966299  0.29842178  1
  O  O266  1  0.11864839  0.63208613  0.54674199  1
  O  O267  1  0.12812428  0.63017789  0.79904399  1
  O  O268  1  0.12669961  0.86434607  0.04656327  1
  O  O269  1  0.13193463  0.86830442  0.27556449  1
  O  O270  1  0.12513372  0.87737173  0.54567514  1
  O  O271  1  0.12892051  0.87298442  0.80365627  1
  O  O272  1  0.36527159  0.12669232  0.03377577  1
  O  O273  1  0.38942926  0.12590152  0.28507800  1
  O  O274  1  0.37194920  0.11285877  0.53989939  1
  O  O275  1  0.36151223  0.12163981  0.78239612  1
  O  O276  1  0.37503848  0.38376509  0.03292461  1
  O  O277  1  0.38002509  0.38036666  0.30469612  1
  O  O278  1  0.37834692  0.37381418  0.53167570  1
  O  O279  1  0.36350107  0.37507014  0.79326128  1
  O  O280  1  0.37104916  0.62111003  0.04738359  1
  O  O281  1  0.37905717  0.62284111  0.30740491  1
  O  O282  1  0.37026022  0.63315867  0.53329733  1
  O  O283  1  0.36117549  0.63163175  0.79488801  1
  O  O284  1  0.37362398  0.87251247  0.04656118  1
  O  O285  1  0.38585499  0.86936970  0.29824309  1
  O  O286  1  0.37543448  0.87681968  0.54952444  1
  O  O287  1  0.36717019  0.87001332  0.79762524  1
  O  O288  1  0.62251858  0.12452480  0.04190096  1
  O  O289  1  0.62041356  0.12278295  0.28589142  1
  O  O290  1  0.63179667  0.12047165  0.55529057  1
  O  O291  1  0.62478172  0.12182154  0.78025331  1
  O  O292  1  0.62147252  0.38349555  0.02876462  1
  O  O293  1  0.62418162  0.37866725  0.30017816  1
  O  O294  1  0.62945802  0.37746073  0.54373415  1
  O  O295  1  0.62848362  0.37052393  0.77652335  1
  O  O296  1  0.62217232  0.62694060  0.02680787  1
  O  O297  1  0.62321282  0.62513753  0.30122325  1
  O  O298  1  0.63349751  0.62984836  0.54554817  1
  O  O299  1  0.62294183  0.63082189  0.77833487  1
  O  O300  1  0.62048479  0.86465868  0.03006628  1
  O  O301  1  0.61741202  0.87007897  0.29828425  1
  O  O302  1  0.62652888  0.87968429  0.55430374  1
  O  O303  1  0.62105760  0.87799068  0.78355281  1
  O  O304  1  0.87819263  0.12845427  0.04648480  1
  O  O305  1  0.86543193  0.13171936  0.28099740  1
  O  O306  1  0.87378008  0.12372624  0.55467747  1
  O  O307  1  0.88572742  0.12285813  0.78194934  1
  O  O308  1  0.88351998  0.37662639  0.03145081  1
  O  O309  1  0.87200687  0.37780355  0.29745476  1
  O  O310  1  0.87536719  0.37407561  0.55294261  1
  O  O311  1  0.88947985  0.37683311  0.78666901  1
  O  O312  1  0.87909195  0.61898566  0.04580951  1
  O  O313  1  0.87107928  0.62751832  0.28540446  1
  O  O314  1  0.87568422  0.62546939  0.55171880  1
  O  O315  1  0.88288955  0.63067044  0.79492071  1
  O  O316  1  0.88521905  0.87358338  0.03161869  1
  O  O317  1  0.86965870  0.86587694  0.27900166  1
  O  O318  1  0.87556556  0.87420074  0.54941355  1
  O  O319  1  0.88711817  0.87167586  0.79383575  1
