# generated using pymatgen
data_VFe(PbO3)2
_symmetry_space_group_name_H-M   'P 1'
_cell_length_a   15.37764995
_cell_length_b   15.37673370
_cell_length_c   18.48106763
_cell_angle_alpha   90.00003910
_cell_angle_beta   90.00458353
_cell_angle_gamma   90.00552220
_symmetry_Int_Tables_number   1
_chemical_formula_structural   VFe(PbO3)2
_chemical_formula_sum   'V32 Fe32 Pb64 O192'
_cell_volume   4369.99677522
_cell_formula_units_Z   32
loop_
 _symmetry_equiv_pos_site_id
 _symmetry_equiv_pos_as_xyz
  1  'x, y, z'
loop_
 _atom_site_type_symbol
 _atom_site_label
 _atom_site_symmetry_multiplicity
 _atom_site_fract_x
 _atom_site_fract_y
 _atom_site_fract_z
 _atom_site_occupancy
  V  V0  1  0.12379003  0.62309095  0.63255489  1
  V  V1  1  0.37631975  0.37304972  0.38811983  1
  V  V2  1  0.12565760  0.37534524  0.14253027  1
  V  V3  1  0.12438181  0.87351258  0.14758214  1
  V  V4  1  0.12540226  0.87417866  0.63477439  1
  V  V5  1  0.12400596  0.12284184  0.89078744  1
  V  V6  1  0.87646658  0.12470924  0.89162843  1
  V  V7  1  0.87386223  0.12781973  0.39070323  1
  V  V8  1  0.12886483  0.12462834  0.38445931  1
  V  V9  1  0.12479344  0.62564043  0.88979339  1
  V  V10  1  0.87394686  0.87678150  0.63800134  1
  V  V11  1  0.87736271  0.12563107  0.14020535  1
  V  V12  1  0.62374911  0.87397954  0.63967625  1
  V  V13  1  0.62655099  0.37341520  0.38937339  1
  V  V14  1  0.12714511  0.87507755  0.89363406  1
  V  V15  1  0.87427139  0.37194350  0.63653988  1
  V  V16  1  0.87532377  0.87357481  0.89596393  1
  V  V17  1  0.12430819  0.12606084  0.14068733  1
  V  V18  1  0.62473874  0.62621460  0.88862815  1
  V  V19  1  0.37396088  0.62105097  0.14355503  1
  V  V20  1  0.37604658  0.87086920  0.89366010  1
  V  V21  1  0.62330223  0.87839509  0.38560585  1
  V  V22  1  0.12388560  0.12592231  0.63737261  1
  V  V23  1  0.62595376  0.12590613  0.64281520  1
  V  V24  1  0.87256324  0.87564593  0.38552121  1
  V  V25  1  0.87401698  0.37607752  0.14473606  1
  V  V26  1  0.37490500  0.87660230  0.63667348  1
  V  V27  1  0.62131528  0.37703237  0.13728997  1
  V  V28  1  0.62627575  0.37164166  0.88633349  1
  V  V29  1  0.37725760  0.87420400  0.14428503  1
  V  V30  1  0.87654319  0.62678451  0.14385273  1
  V  V31  1  0.62612781  0.87230923  0.13829136  1
  Fe  Fe32  1  0.37709404  0.62513883  0.38977396  1
  Fe  Fe33  1  0.87352207  0.62398117  0.38280332  1
  Fe  Fe34  1  0.87410089  0.87561635  0.13612219  1
  Fe  Fe35  1  0.12307132  0.87865265  0.38171172  1
  Fe  Fe36  1  0.12468761  0.37323585  0.38998945  1
  Fe  Fe37  1  0.62449997  0.62372541  0.14292293  1
  Fe  Fe38  1  0.87602474  0.62660464  0.88348028  1
  Fe  Fe39  1  0.37313436  0.62858555  0.88492030  1
  Fe  Fe40  1  0.62541752  0.37432278  0.63326884  1
  Fe  Fe41  1  0.87591824  0.12242151  0.63591144  1
  Fe  Fe42  1  0.87569216  0.37804267  0.88838012  1
  Fe  Fe43  1  0.12565001  0.62493985  0.14787815  1
  Fe  Fe44  1  0.37207952  0.12225227  0.88331338  1
  Fe  Fe45  1  0.37400487  0.62687369  0.62921597  1
  Fe  Fe46  1  0.87735656  0.62516654  0.63610455  1
  Fe  Fe47  1  0.62427496  0.87416045  0.88595417  1
  Fe  Fe48  1  0.37458660  0.37311301  0.63339935  1
  Fe  Fe49  1  0.37482929  0.12042841  0.64143776  1
  Fe  Fe50  1  0.37254341  0.12689318  0.14091558  1
  Fe  Fe51  1  0.62494856  0.12292407  0.88902366  1
  Fe  Fe52  1  0.12508823  0.37447281  0.63049707  1
  Fe  Fe53  1  0.37897815  0.12679830  0.38039028  1
  Fe  Fe54  1  0.12489590  0.62512178  0.37769931  1
  Fe  Fe55  1  0.62659682  0.62511053  0.63133900  1
  Fe  Fe56  1  0.12169134  0.37418353  0.88365201  1
  Fe  Fe57  1  0.62593584  0.62614805  0.38551894  1
  Fe  Fe58  1  0.62680025  0.12471518  0.38000926  1
  Fe  Fe59  1  0.37573022  0.87789172  0.37975535  1
  Fe  Fe60  1  0.37229901  0.37721656  0.88878018  1
  Fe  Fe61  1  0.87317893  0.37374584  0.38114966  1
  Fe  Fe62  1  0.62728339  0.12679592  0.13837480  1
  Fe  Fe63  1  0.37515735  0.37668109  0.13325867  1
  Pb  Pb64  1  -0.00436255  -0.00684685  0.00608967  1
  Pb  Pb65  1  0.00432586  -0.00254183  0.25253339  1
  Pb  Pb66  1  -0.00501360  0.00700462  0.49967392  1
  Pb  Pb67  1  0.00249882  -0.00258687  0.74816635  1
  Pb  Pb68  1  0.00011331  0.25377816  0.00024738  1
  Pb  Pb69  1  0.00208822  0.26116959  0.25684556  1
  Pb  Pb70  1  0.00236329  0.25523990  0.49920243  1
  Pb  Pb71  1  0.00048158  0.25961912  0.75242127  1
  Pb  Pb72  1  0.00116573  0.50494286  -0.00010218  1
  Pb  Pb73  1  0.00044887  0.50008319  0.25704236  1
  Pb  Pb74  1  -0.00290135  0.50163146  0.48895501  1
  Pb  Pb75  1  -0.00143824  0.48898592  0.75090248  1
  Pb  Pb76  1  0.00071693  0.74829566  0.00678663  1
  Pb  Pb77  1  0.00293782  0.74720529  0.25495164  1
  Pb  Pb78  1  -0.00060811  0.74410093  0.49193422  1
  Pb  Pb79  1  -0.00167067  0.74544097  0.74922989  1
  Pb  Pb80  1  0.25582721  0.00344978  0.00476747  1
  Pb  Pb81  1  0.25305023  -0.00566023  0.25335606  1
  Pb  Pb82  1  0.25850787  0.00321269  0.49488389  1
  Pb  Pb83  1  0.25407576  0.00233997  0.75125327  1
  Pb  Pb84  1  0.26000096  0.25303403  0.00095667  1
  Pb  Pb85  1  0.25335561  0.25182039  0.25057466  1
  Pb  Pb86  1  0.25738682  0.25964880  0.50602399  1
  Pb  Pb87  1  0.25845675  0.25702396  0.75127705  1
  Pb  Pb88  1  0.25216753  0.49592726  -0.00251958  1
  Pb  Pb89  1  0.24113069  0.50047862  0.25674293  1
  Pb  Pb90  1  0.25067829  0.49949221  0.49427153  1
  Pb  Pb91  1  0.25982121  0.49177537  0.74586579  1
  Pb  Pb92  1  0.24116324  0.74214857  0.00892083  1
  Pb  Pb93  1  0.25961384  0.75127536  0.25857038  1
  Pb  Pb94  1  0.25107624  0.75010395  0.48560959  1
  Pb  Pb95  1  0.25286501  0.74490643  0.74712670  1
  Pb  Pb96  1  0.50063869  0.00871360  0.00074861  1
  Pb  Pb97  1  0.49663434  0.00574487  0.24713807  1
  Pb  Pb98  1  0.49481878  0.01116994  0.49625040  1
  Pb  Pb99  1  0.51031456  -0.00043359  0.75690647  1
  Pb  Pb100  1  0.48674704  0.24171898  0.00004462  1
  Pb  Pb101  1  0.49666344  0.24156666  0.24655428  1
  Pb  Pb102  1  0.49869058  0.25442785  0.50092134  1
  Pb  Pb103  1  0.49026484  0.25167266  0.74957493  1
  Pb  Pb104  1  0.49923620  0.50017944  -0.00280407  1
  Pb  Pb105  1  0.49881121  0.51182711  0.25735431  1
  Pb  Pb106  1  0.50269222  0.50284908  0.50082755  1
  Pb  Pb107  1  0.49586213  0.49915845  0.73926286  1
  Pb  Pb108  1  0.50742452  0.74191829  0.00536877  1
  Pb  Pb109  1  0.49621380  0.74610147  0.25675655  1
  Pb  Pb110  1  0.49755110  0.74188299  0.49754903  1
  Pb  Pb111  1  0.49714335  0.74285953  0.74610677  1
  Pb  Pb112  1  0.74249803  0.00242451  0.00327492  1
  Pb  Pb113  1  0.74270749  0.00377252  0.24875125  1
  Pb  Pb114  1  0.75277010  0.00435833  0.50032543  1
  Pb  Pb115  1  0.74148708  -0.00257972  0.75689595  1
  Pb  Pb116  1  0.74188366  0.24730812  0.00293507  1
  Pb  Pb117  1  0.75034996  0.25403344  0.25049305  1
  Pb  Pb118  1  0.74419464  0.25388497  0.50103999  1
  Pb  Pb119  1  0.75019569  0.24574658  0.75034333  1
  Pb  Pb120  1  0.74700423  0.50580522  -0.00118131  1
  Pb  Pb121  1  0.75450056  0.50343196  0.25409786  1
  Pb  Pb122  1  0.75034373  0.50783983  0.49829399  1
  Pb  Pb123  1  0.75389649  0.50355932  0.74384808  1
  Pb  Pb124  1  0.75332937  0.75208910  0.00157143  1
  Pb  Pb125  1  0.75053041  0.74025719  0.25339788  1
  Pb  Pb126  1  0.74982630  0.74068500  0.50081649  1
  Pb  Pb127  1  0.75352968  0.74585824  0.74861610  1
  O  O128  1  0.12269936  0.00003102  0.16566300  1
  O  O129  1  0.11856464  0.00936518  0.41239370  1
  O  O130  1  0.12403443  -0.00467707  0.66669539  1
  O  O131  1  0.12260774  0.00085708  0.92061168  1
  O  O132  1  0.12235636  0.25338386  0.16595579  1
  O  O133  1  0.12157860  0.23861436  0.41209660  1
  O  O134  1  0.12178757  0.24039355  0.65703261  1
  O  O135  1  0.11872840  0.23945663  0.91029134  1
  O  O136  1  0.12285549  0.49299009  0.16532322  1
  O  O137  1  0.12536227  0.49988398  0.41111448  1
  O  O138  1  0.12260352  0.50776456  0.65052319  1
  O  O139  1  0.12272960  0.50867851  0.90988880  1
  O  O140  1  0.12475302  0.75653575  0.16813886  1
  O  O141  1  0.12136619  0.75275358  0.40525902  1
  O  O142  1  0.12433482  0.75334370  0.66297255  1
  O  O143  1  0.12485346  0.75081648  0.92046279  1
  O  O144  1  0.37351725  -0.00322867  0.16276567  1
  O  O145  1  0.37613161  0.00208801  0.41191274  1
  O  O146  1  0.37442979  -0.00868608  0.66774342  1
  O  O147  1  0.37004784  -0.00788585  0.91747418  1
  O  O148  1  0.37256006  0.25472343  0.16580396  1
  O  O149  1  0.37746851  0.25352639  0.41014801  1
  O  O150  1  0.37263596  0.24546356  0.66499497  1
  O  O151  1  0.37289089  0.24882833  0.91259302  1
  O  O152  1  0.37565272  0.50375887  0.16397045  1
  O  O153  1  0.37814034  0.49107316  0.41136803  1
  O  O154  1  0.37190784  0.50177193  0.65793432  1
  O  O155  1  0.37399188  0.50426075  0.91520837  1
  O  O156  1  0.37505501  0.74787012  0.16820776  1
  O  O157  1  0.37875455  0.75497314  0.41073703  1
  O  O158  1  0.37301010  0.75811087  0.66049125  1
  O  O159  1  0.37174519  0.75500365  0.92025027  1
  O  O160  1  0.62659833  -0.00650385  0.16099907  1
  O  O161  1  0.63224981  -0.00468568  0.41249437  1
  O  O162  1  0.62671864  -0.00115188  0.66787029  1
  O  O163  1  0.62615016  -0.00296310  0.91980294  1
  O  O164  1  0.63122147  0.25894620  0.16161430  1
  O  O165  1  0.62506943  0.25300759  0.41238611  1
  O  O166  1  0.62882709  0.24247443  0.66476446  1
  O  O167  1  0.62986205  0.25500080  0.90986173  1
  O  O168  1  0.62845669  0.49270787  0.16560291  1
  O  O169  1  0.62399943  0.49206598  0.41010408  1
  O  O170  1  0.62823868  0.49944614  0.66218362  1
  O  O171  1  0.62572816  0.50366914  0.91130320  1
  O  O172  1  0.62410497  0.75603735  0.16474258  1
  O  O173  1  0.62959546  0.76167525  0.40947293  1
  O  O174  1  0.62670413  0.75553501  0.66245863  1
  O  O175  1  0.62385302  0.74600239  0.91460235  1
  O  O176  1  0.87761865  0.00695712  0.16206401  1
  O  O177  1  0.87279850  0.00205809  0.41377438  1
  O  O178  1  0.87614482  -0.00720649  0.66629717  1
  O  O179  1  0.87760560  0.00273713  0.91913135  1
  O  O180  1  0.87722519  0.24605800  0.16618906  1
  O  O181  1  0.87213618  0.24416981  0.41188616  1
  O  O182  1  0.87676585  0.25126620  0.66235569  1
  O  O183  1  0.87734980  0.24270747  0.91523621  1
  O  O184  1  0.87539246  0.50238519  0.16557119  1
  O  O185  1  0.87240538  0.49773423  0.40899115  1
  O  O186  1  0.87673172  0.49286988  0.65796784  1
  O  O187  1  0.87606805  0.50409970  0.91786524  1
  O  O188  1  0.87517606  0.74607953  0.16393805  1
  O  O189  1  0.87341348  0.75927880  0.40652337  1
  O  O190  1  0.87677009  0.75939960  0.66476565  1
  O  O191  1  0.87680985  0.75070248  0.91957161  1
  O  O192  1  -0.00130554  0.12693918  0.16710742  1
  O  O193  1  -0.00503872  0.12443978  0.41271856  1
  O  O194  1  0.00556184  0.11621091  0.66433801  1
  O  O195  1  -0.00166828  0.12060852  0.91865886  1
  O  O196  1  0.00125893  0.37441706  0.16709804  1
  O  O197  1  -0.00280275  0.36942493  0.41326289  1
  O  O198  1  -0.00352753  0.37259357  0.66010554  1
  O  O199  1  0.00066277  0.37509442  0.92251757  1
  O  O200  1  -0.00610071  0.62478991  0.16615905  1
  O  O201  1  -0.00122258  0.62697703  0.40794213  1
  O  O202  1  0.00697481  0.63193459  0.66120506  1
  O  O203  1  0.00645788  0.63006956  0.91524020  1
  O  O204  1  0.00277002  0.87595736  0.16620091  1
  O  O205  1  -0.01006489  0.88135306  0.41041849  1
  O  O206  1  -0.00201115  0.87564156  0.66264581  1
  O  O207  1  0.00296353  0.87498492  0.92235489  1
  O  O208  1  0.24199433  0.12623927  0.16588414  1
  O  O209  1  0.24467622  0.12234863  0.40069377  1
  O  O210  1  0.23991249  0.11688617  0.66340079  1
  O  O211  1  0.24087162  0.12005581  0.91216195  1
  O  O212  1  0.24344177  0.37580921  0.16309770  1
  O  O213  1  0.25695834  0.37087731  0.40976076  1
  O  O214  1  0.24647614  0.37339800  0.66281027  1
  O  O215  1  0.24350364  0.37573257  0.91463052  1
  O  O216  1  0.25737904  0.62554380  0.16739003  1
  O  O217  1  0.24991972  0.62503372  0.40705653  1
  O  O218  1  0.24106383  0.63146191  0.65750936  1
  O  O219  1  0.24285068  0.62978877  0.91560770  1
  O  O220  1  0.24678166  0.87583275  0.16712576  1
  O  O221  1  0.24875329  0.88029553  0.40825378  1
  O  O222  1  0.25274319  0.87569780  0.66094004  1
  O  O223  1  0.24861867  0.87498574  0.92238263  1
  O  O224  1  0.50191210  0.12649969  0.15977630  1
  O  O225  1  0.50393687  0.12439287  0.41067287  1
  O  O226  1  0.50846287  0.12073783  0.66477916  1
  O  O227  1  0.49791691  0.12200495  0.91215930  1
  O  O228  1  0.50624812  0.37546811  0.15574651  1
  O  O229  1  0.50043720  0.37206319  0.41280605  1
  O  O230  1  0.50088138  0.37136489  0.66373929  1
  O  O231  1  0.51044986  0.37758545  0.91079289  1
  O  O232  1  0.49470337  0.62562936  0.16732676  1
  O  O233  1  0.50368230  0.62465761  0.41472629  1
  O  O234  1  0.49983873  0.62952622  0.65951014  1
  O  O235  1  0.50482698  0.62687050  0.91405630  1
  O  O236  1  0.50385502  0.87489674  0.16347801  1
  O  O237  1  0.50840988  0.88038704  0.40452815  1
  O  O238  1  0.49542443  0.87543115  0.66206206  1
  O  O239  1  0.49237494  0.87449669  0.91465191  1
  O  O240  1  0.75872269  0.12658185  0.16289037  1
  O  O241  1  0.75379243  0.12412789  0.41361870  1
  O  O242  1  0.74742508  0.12067753  0.66683048  1
  O  O243  1  0.75889781  0.12326829  0.91525869  1
  O  O244  1  0.75102239  0.37567211  0.16649244  1
  O  O245  1  0.74469019  0.37121902  0.41038921  1
  O  O246  1  0.75715976  0.37077809  0.66245421  1
  O  O247  1  0.74452948  0.37877574  0.91524761  1
  O  O248  1  0.75453239  0.62445458  0.16481896  1
  O  O249  1  0.74940632  0.62717401  0.41306146  1
  O  O250  1  0.75240105  0.62856874  0.66504300  1
  O  O251  1  0.74386945  0.62704412  0.91251522  1
  O  O252  1  0.74513874  0.87463274  0.16086859  1
  O  O253  1  0.75519946  0.87941672  0.41361751  1
  O  O254  1  0.75434529  0.87591896  0.66088591  1
  O  O255  1  0.75323104  0.87298262  0.91665237  1
  O  O256  1  0.12380570  0.12655865  0.04953357  1
  O  O257  1  0.11988189  0.12466232  0.29286747  1
  O  O258  1  0.12298989  0.12057780  0.54603158  1
  O  O259  1  0.11919989  0.11710027  0.79996892  1
  O  O260  1  0.12189980  0.37328893  0.05118461  1
  O  O261  1  0.12375394  0.37315854  0.28849012  1
  O  O262  1  0.13120838  0.36384248  0.52976340  1
  O  O263  1  0.11181520  0.37581572  0.78314457  1
  O  O264  1  0.12639432  0.62981842  0.04728452  1
  O  O265  1  0.12233263  0.61857194  0.27458514  1
  O  O266  1  0.12132586  0.63114408  0.54143153  1
  O  O267  1  0.12482519  0.63150726  0.79880554  1
  O  O268  1  0.12558763  0.87483853  0.05573057  1
  O  O269  1  0.12061894  0.88424748  0.28131885  1
  O  O270  1  0.12430753  0.87668987  0.54430878  1
  O  O271  1  0.12678299  0.87383875  0.80237945  1
  O  O272  1  0.37063593  0.12875313  0.03863398  1
  O  O273  1  0.38029972  0.12804955  0.27920275  1
  O  O274  1  0.37548840  0.11403606  0.54074873  1
  O  O275  1  0.36678857  0.12093396  0.78276923  1
  O  O276  1  0.37059213  0.37255951  0.03262821  1
  O  O277  1  0.37750435  0.37369118  0.29649413  1
  O  O278  1  0.37186495  0.36566586  0.53258998  1
  O  O279  1  0.36794847  0.37471353  0.78700310  1
  O  O280  1  0.37558247  0.62509871  0.05190829  1
  O  O281  1  0.38479251  0.62555752  0.28775840  1
  O  O282  1  0.37844627  0.62852922  0.52864526  1
  O  O283  1  0.37101202  0.63557419  0.78529699  1
  O  O284  1  0.37434261  0.87073645  0.05308133  1
  O  O285  1  0.37268597  0.87502205  0.27845224  1
  O  O286  1  0.37498309  0.88068206  0.54557765  1
  O  O287  1  0.37131055  0.86990810  0.80258688  1
  O  O288  1  0.63420683  0.12650467  0.03668551  1
  O  O289  1  0.63049469  0.12219206  0.27921724  1
  O  O290  1  0.62816308  0.12360419  0.55131733  1
  O  O291  1  0.63138204  0.11498221  0.78884018  1
  O  O292  1  0.62909705  0.37827591  0.04580079  1
  O  O293  1  0.62353213  0.37232544  0.29810253  1
  O  O294  1  0.62525731  0.36625673  0.53351590  1
  O  O295  1  0.62939815  0.37260559  0.79534120  1
  O  O296  1  0.61939441  0.62490299  0.04278334  1
  O  O297  1  0.62400153  0.62530194  0.28266961  1
  O  O298  1  0.63087174  0.62679152  0.53024919  1
  O  O299  1  0.62406512  0.62770324  0.79758317  1
  O  O300  1  0.62389178  0.87047271  0.04652883  1
  O  O301  1  0.62988389  0.88001356  0.29416414  1
  O  O302  1  0.62220472  0.87837192  0.54879479  1
  O  O303  1  0.62410589  0.88217183  0.78596470  1
  O  O304  1  0.87863370  0.12845886  0.04901998  1
  O  O305  1  0.87421456  0.12512246  0.29953545  1
  O  O306  1  0.87497926  0.11723914  0.53666699  1
  O  O307  1  0.87862528  0.12231314  0.80050906  1
  O  O308  1  0.87459796  0.37359179  0.05331032  1
  O  O309  1  0.87537293  0.37067169  0.28029294  1
  O  O310  1  0.87297800  0.36909323  0.54522606  1
  O  O311  1  0.88678601  0.37507895  0.78865007  1
  O  O312  1  0.87613574  0.62545357  0.05192721  1
  O  O313  1  0.86890092  0.62683102  0.28188372  1
  O  O314  1  0.87297488  0.63092487  0.53586623  1
  O  O315  1  0.87684798  0.63210598  0.78334326  1
  O  O316  1  0.87911992  0.87326218  0.03667107  1
  O  O317  1  0.87164778  0.87928202  0.29394434  1
  O  O318  1  0.87546693  0.87712156  0.54691423  1
  O  O319  1  0.87899392  0.87444121  0.80469272  1
