# generated using pymatgen
data_VFe(PbO3)2
_symmetry_space_group_name_H-M   'P 1'
_cell_length_a   15.37705867
_cell_length_b   15.37961757
_cell_length_c   18.51084220
_cell_angle_alpha   89.99612839
_cell_angle_beta   90.02420644
_cell_angle_gamma   89.99883958
_symmetry_Int_Tables_number   1
_chemical_formula_structural   VFe(PbO3)2
_chemical_formula_sum   'V32 Fe32 Pb64 O192'
_cell_volume   4377.68941730
_cell_formula_units_Z   32
loop_
 _symmetry_equiv_pos_site_id
 _symmetry_equiv_pos_as_xyz
  1  'x, y, z'
loop_
 _atom_site_type_symbol
 _atom_site_label
 _atom_site_symmetry_multiplicity
 _atom_site_fract_x
 _atom_site_fract_y
 _atom_site_fract_z
 _atom_site_occupancy
  V  V0  1  0.37833377  0.12459247  0.64180454  1
  V  V1  1  0.37471221  0.61593130  0.63919402  1
  V  V2  1  0.87323860  0.37587318  0.64298600  1
  V  V3  1  0.37480894  0.62721998  0.88867006  1
  V  V4  1  0.87637394  0.62410754  0.39173302  1
  V  V5  1  0.37598107  0.62498801  0.39000264  1
  V  V6  1  0.62521032  0.12509942  0.89063969  1
  V  V7  1  0.87436075  0.87412126  0.39355777  1
  V  V8  1  0.13009661  0.12542160  0.64253067  1
  V  V9  1  0.12395700  0.62496377  0.39400977  1
  V  V10  1  0.62604796  0.62585226  0.13773180  1
  V  V11  1  0.87694747  0.12489370  0.39198299  1
  V  V12  1  0.62525401  0.37402636  0.64708740  1
  V  V13  1  0.87546608  0.12265853  0.13637920  1
  V  V14  1  0.87230937  0.37398769  0.88508476  1
  V  V15  1  0.62511524  0.37286486  0.13779143  1
  V  V16  1  0.12501212  0.87525025  0.13842435  1
  V  V17  1  0.12737608  0.12553593  0.14082474  1
  V  V18  1  0.12455508  0.62762314  0.88490476  1
  V  V19  1  0.62287958  0.87233467  0.88801577  1
  V  V20  1  0.87587228  0.12920096  0.64378499  1
  V  V21  1  0.62396243  0.12515284  0.64243934  1
  V  V22  1  0.37612790  0.87180428  0.63821710  1
  V  V23  1  0.87430623  0.62565656  0.64179672  1
  V  V24  1  0.12279815  0.37451260  0.39024629  1
  V  V25  1  0.62411677  0.87499648  0.39215621  1
  V  V26  1  0.37745828  0.87301514  0.14204588  1
  V  V27  1  0.87674089  0.37594235  0.13716322  1
  V  V28  1  0.37426412  0.36843152  0.64238161  1
  V  V29  1  0.62978418  0.12543376  0.38748472  1
  V  V30  1  0.12621969  0.62273456  0.13728529  1
  V  V31  1  0.12714870  0.87583286  0.88491197  1
  Fe  Fe32  1  0.12340423  0.12306932  0.88153447  1
  Fe  Fe33  1  0.12639702  0.62396818  0.63619590  1
  Fe  Fe34  1  0.37557703  0.12398723  0.13939051  1
  Fe  Fe35  1  0.12508269  0.87607082  0.63206281  1
  Fe  Fe36  1  0.37318205  0.87520405  0.88467540  1
  Fe  Fe37  1  0.37525594  0.87312659  0.38587442  1
  Fe  Fe38  1  0.87511273  0.12392059  0.88343573  1
  Fe  Fe39  1  0.62430809  0.37534734  0.88315211  1
  Fe  Fe40  1  0.37472068  0.12523846  0.38080355  1
  Fe  Fe41  1  0.12269716  0.12546372  0.38287475  1
  Fe  Fe42  1  0.62651010  0.87545870  0.13152873  1
  Fe  Fe43  1  0.87524068  0.87516134  0.88228940  1
  Fe  Fe44  1  0.87723802  0.87281308  0.13229494  1
  Fe  Fe45  1  0.37653990  0.37386054  0.88727923  1
  Fe  Fe46  1  0.62831334  0.37760166  0.38265423  1
  Fe  Fe47  1  0.62763838  0.62713394  0.38556667  1
  Fe  Fe48  1  0.62767043  0.12498301  0.13279773  1
  Fe  Fe49  1  0.87482275  0.62462348  0.88245755  1
  Fe  Fe50  1  0.62425406  0.87797086  0.63632921  1
  Fe  Fe51  1  0.62388117  0.62531313  0.87791501  1
  Fe  Fe52  1  0.12496950  0.87596502  0.39242932  1
  Fe  Fe53  1  0.37639136  0.37743717  0.38484864  1
  Fe  Fe54  1  0.37349135  0.62707364  0.13422396  1
  Fe  Fe55  1  0.87677490  0.62469889  0.13190911  1
  Fe  Fe56  1  0.12294244  0.37493718  0.12948374  1
  Fe  Fe57  1  0.62151538  0.62399272  0.64627462  1
  Fe  Fe58  1  0.12540786  0.37598682  0.88376572  1
  Fe  Fe59  1  0.87478338  0.37717429  0.38747533  1
  Fe  Fe60  1  0.37316904  0.37763237  0.13237475  1
  Fe  Fe61  1  0.12286433  0.37485222  0.64772753  1
  Fe  Fe62  1  0.37367339  0.12025472  0.88410619  1
  Fe  Fe63  1  0.87348783  0.87706347  0.63865039  1
  Pb  Pb64  1  -0.00737786  -0.00415827  -0.00678653  1
  Pb  Pb65  1  0.01052790  -0.00138888  0.25441497  1
  Pb  Pb66  1  0.00223722  -0.00615830  0.50363534  1
  Pb  Pb67  1  -0.00446577  0.00003443  0.75038853  1
  Pb  Pb68  1  0.00729342  0.25132824  -0.00694412  1
  Pb  Pb69  1  0.00211741  0.24497042  0.24880369  1
  Pb  Pb70  1  0.01019502  0.25807840  0.50765568  1
  Pb  Pb71  1  0.00350612  0.24194374  0.75797232  1
  Pb  Pb72  1  0.00330833  0.49717350  -0.00455202  1
  Pb  Pb73  1  -0.00481493  0.49515086  0.24726998  1
  Pb  Pb74  1  0.01024300  0.49924044  0.50882456  1
  Pb  Pb75  1  -0.00306814  0.50421667  0.75215804  1
  Pb  Pb76  1  -0.01067860  0.74889671  -0.00204424  1
  Pb  Pb77  1  0.00250762  0.75229118  0.24679462  1
  Pb  Pb78  1  0.00083422  0.75604375  0.50544498  1
  Pb  Pb79  1  -0.00257040  0.75867500  0.74642240  1
  Pb  Pb80  1  0.25940015  0.00922642  0.00048774  1
  Pb  Pb81  1  0.24966773  -0.00842680  0.25720865  1
  Pb  Pb82  1  0.24825139  0.00023481  0.49249938  1
  Pb  Pb83  1  0.25844648  0.00093181  0.75300110  1
  Pb  Pb84  1  0.25300508  0.25029724  -0.00799490  1
  Pb  Pb85  1  0.25971070  0.25369637  0.24761535  1
  Pb  Pb86  1  0.25155539  0.24841970  0.49490851  1
  Pb  Pb87  1  0.24143746  0.24878997  0.75982199  1
  Pb  Pb88  1  0.25231463  0.48986062  -0.00081848  1
  Pb  Pb89  1  0.25772890  0.49379610  0.24469058  1
  Pb  Pb90  1  0.24436086  0.50033910  0.50361502  1
  Pb  Pb91  1  0.24557510  0.49072851  0.75466614  1
  Pb  Pb92  1  0.25268257  0.74316423  0.00086402  1
  Pb  Pb93  1  0.24776508  0.75888506  0.25530277  1
  Pb  Pb94  1  0.24512402  0.75165239  0.50056573  1
  Pb  Pb95  1  0.25023622  0.75529858  0.74592885  1
  Pb  Pb96  1  0.50336168  0.00259189  0.00214494  1
  Pb  Pb97  1  0.49740900  0.00483465  0.24632492  1
  Pb  Pb98  1  0.50024604  -0.00204586  0.49652854  1
  Pb  Pb99  1  0.49051181  0.00093835  0.75508937  1
  Pb  Pb100  1  0.48876885  0.24778302  -0.00085848  1
  Pb  Pb101  1  0.49140214  0.24887666  0.24725413  1
  Pb  Pb102  1  0.49878321  0.25432076  0.49291847  1
  Pb  Pb103  1  0.49600637  0.25694727  0.75953081  1
  Pb  Pb104  1  0.49594389  0.49535169  -0.00376766  1
  Pb  Pb105  1  0.50682395  0.49927113  0.24852147  1
  Pb  Pb106  1  0.50826264  0.50373431  0.49839996  1
  Pb  Pb107  1  0.49882724  0.48868443  0.75820652  1
  Pb  Pb108  1  0.49946863  0.74880389  -0.00144241  1
  Pb  Pb109  1  0.50455048  0.74452151  0.25001605  1
  Pb  Pb110  1  0.51367364  0.74526433  0.50702875  1
  Pb  Pb111  1  0.50443076  0.75104746  0.74968438  1
  Pb  Pb112  1  0.74366037  -0.00428875  -0.00052673  1
  Pb  Pb113  1  0.74921908  -0.00323085  0.24287232  1
  Pb  Pb114  1  0.75194196  -0.00794143  0.50703405  1
  Pb  Pb115  1  0.75668125  -0.00487171  0.75230069  1
  Pb  Pb116  1  0.74501511  0.24488857  -0.00118871  1
  Pb  Pb117  1  0.75397468  0.26122877  0.25075818  1
  Pb  Pb118  1  0.75111968  0.25367717  0.49947546  1
  Pb  Pb119  1  0.74900508  0.24691917  0.75540820  1
  Pb  Pb120  1  0.74989324  0.50848148  -0.00797413  1
  Pb  Pb121  1  0.74718431  0.49726460  0.25141447  1
  Pb  Pb122  1  0.74516135  0.50467212  0.50032342  1
  Pb  Pb123  1  0.74731408  0.50797203  0.75600368  1
  Pb  Pb124  1  0.75732678  0.75080250  -0.00514170  1
  Pb  Pb125  1  0.75225751  0.74858379  0.24440150  1
  Pb  Pb126  1  0.75001935  0.75619797  0.50725571  1
  Pb  Pb127  1  0.74818810  0.74737596  0.74904387  1
  O  O128  1  0.12194039  0.00204740  0.16638790  1
  O  O129  1  0.12132819  0.00294339  0.41642537  1
  O  O130  1  0.12122427  0.00851303  0.66030098  1
  O  O131  1  0.12327476  -0.00919222  0.90434625  1
  O  O132  1  0.11816195  0.24345803  0.15855764  1
  O  O133  1  0.12050276  0.25533159  0.41394798  1
  O  O134  1  0.12405120  0.24433654  0.66841888  1
  O  O135  1  0.12326837  0.25068859  0.90982368  1
  O  O136  1  0.12357662  0.50627891  0.15976684  1
  O  O137  1  0.12162753  0.49656462  0.41808139  1
  O  O138  1  0.12735346  0.50123995  0.66973785  1
  O  O139  1  0.12759012  0.50920810  0.90813598  1
  O  O140  1  0.12460478  0.74965255  0.16371538  1
  O  O141  1  0.12326662  0.74557222  0.41661596  1
  O  O142  1  0.12736591  0.74989934  0.66152279  1
  O  O143  1  0.12657200  0.74477295  0.91281431  1
  O  O144  1  0.37238941  -0.00818953  0.16430024  1
  O  O145  1  0.37937924  0.00082188  0.41371537  1
  O  O146  1  0.37558437  0.00102200  0.66353546  1
  O  O147  1  0.37471156  -0.00356390  0.91785048  1
  O  O148  1  0.37525357  0.25210180  0.16173216  1
  O  O149  1  0.37654562  0.25060746  0.41586771  1
  O  O150  1  0.37610605  0.25070991  0.66542103  1
  O  O151  1  0.37647460  0.24564817  0.90929587  1
  O  O152  1  0.37482085  0.50279057  0.16337078  1
  O  O153  1  0.37364891  0.50581874  0.41593643  1
  O  O154  1  0.37590122  0.49870115  0.66097543  1
  O  O155  1  0.37498201  0.50960402  0.91014684  1
  O  O156  1  0.37226606  0.75435175  0.16702024  1
  O  O157  1  0.37311005  0.74109236  0.41592256  1
  O  O158  1  0.37493831  0.75474223  0.65813592  1
  O  O159  1  0.37357588  0.74821479  0.91444162  1
  O  O160  1  0.62764653  -0.00026872  0.16502522  1
  O  O161  1  0.62855044  -0.00229935  0.41433032  1
  O  O162  1  0.62475701  0.00933829  0.66524619  1
  O  O163  1  0.62652987  -0.00005696  0.91228553  1
  O  O164  1  0.63125549  0.25695159  0.15869729  1
  O  O165  1  0.63142090  0.24272347  0.40922657  1
  O  O166  1  0.62431074  0.24572399  0.67055867  1
  O  O167  1  0.62591810  0.24386657  0.91230050  1
  O  O168  1  0.62698751  0.50148150  0.16105766  1
  O  O169  1  0.62799327  0.50346270  0.41630119  1
  O  O170  1  0.62213567  0.49413258  0.66648084  1
  O  O171  1  0.62418472  0.50136857  0.90795795  1
  O  O172  1  0.62423560  0.74549311  0.16151130  1
  O  O173  1  0.62698724  0.75502308  0.41544495  1
  O  O174  1  0.62174864  0.75252348  0.66592935  1
  O  O175  1  0.62184185  0.75493131  0.90708761  1
  O  O176  1  0.87581773  0.00591764  0.15814359  1
  O  O177  1  0.87164662  0.00262288  0.41852971  1
  O  O178  1  0.87369015  0.01018575  0.66222771  1
  O  O179  1  0.87523116  -0.00159699  0.91188062  1
  O  O180  1  0.87636386  0.24855383  0.16231736  1
  O  O181  1  0.86986833  0.24220480  0.41432007  1
  O  O182  1  0.87123753  0.25067838  0.66752751  1
  O  O183  1  0.87526731  0.25654189  0.91138836  1
  O  O184  1  0.87669187  0.49868543  0.16284802  1
  O  O185  1  0.87549462  0.50780744  0.41519218  1
  O  O186  1  0.87227659  0.49560917  0.66469513  1
  O  O187  1  0.87347640  0.49339580  0.91055629  1
  O  O188  1  0.87801425  0.74746592  0.16643530  1
  O  O189  1  0.87557632  0.74863538  0.41850720  1
  O  O190  1  0.87365544  0.74319949  0.65881954  1
  O  O191  1  0.87676705  0.75031989  0.90915197  1
  O  O192  1  -0.00488951  0.12445593  0.16521990  1
  O  O193  1  -0.00889873  0.12460476  0.41556801  1
  O  O194  1  -0.00445781  0.13013041  0.66294296  1
  O  O195  1  -0.00029288  0.12397848  0.91421869  1
  O  O196  1  -0.00160839  0.37575526  0.16395252  1
  O  O197  1  0.00282099  0.37559612  0.41746718  1
  O  O198  1  -0.01092822  0.37332567  0.66776479  1
  O  O199  1  -0.00584207  0.37846586  0.90769375  1
  O  O200  1  0.00789864  0.62657746  0.16438410  1
  O  O201  1  -0.00405935  0.62608372  0.41892151  1
  O  O202  1  -0.00643122  0.61995816  0.66299751  1
  O  O203  1  0.00703056  0.62407820  0.90563866  1
  O  O204  1  0.00384546  0.87552658  0.16482620  1
  O  O205  1  -0.00520739  0.87521966  0.41771195  1
  O  O206  1  0.00010920  0.87711998  0.66308237  1
  O  O207  1  0.00975161  0.86896394  0.91015198  1
  O  O208  1  0.24182099  0.12327574  0.15921906  1
  O  O209  1  0.24854847  0.12808518  0.41078678  1
  O  O210  1  0.24824803  0.12618688  0.66003888  1
  O  O211  1  0.24701118  0.12152438  0.91286113  1
  O  O212  1  0.24537535  0.37520491  0.16039735  1
  O  O213  1  0.24111008  0.37580872  0.41376351  1
  O  O214  1  0.25782264  0.37321131  0.66453735  1
  O  O215  1  0.25093996  0.37860468  0.91013415  1
  O  O216  1  0.24217848  0.62823925  0.16356297  1
  O  O217  1  0.25056745  0.62180099  0.41661392  1
  O  O218  1  0.26041268  0.62638559  0.66559905  1
  O  O219  1  0.24998608  0.62821237  0.91277546  1
  O  O220  1  0.24904148  0.87493300  0.16782459  1
  O  O221  1  0.25184910  0.87321379  0.41833258  1
  O  O222  1  0.25615124  0.87972336  0.65927202  1
  O  O223  1  0.24188713  0.86927722  0.91212668  1
  O  O224  1  0.50306356  0.12516984  0.16384961  1
  O  O225  1  0.51270795  0.12329443  0.41024955  1
  O  O226  1  0.50340166  0.12680493  0.66603270  1
  O  O227  1  0.50688420  0.12068062  0.91102140  1
  O  O228  1  0.50909388  0.37793349  0.15718861  1
  O  O229  1  0.50337359  0.37483907  0.41303429  1
  O  O230  1  0.49556077  0.37236615  0.66722197  1
  O  O231  1  0.50155607  0.37449986  0.91654582  1
  O  O232  1  0.50580355  0.62546610  0.16349139  1
  O  O233  1  0.49484665  0.62501958  0.41348087  1
  O  O234  1  0.48785504  0.62696918  0.66790677  1
  O  O235  1  0.49410073  0.62968975  0.90788878  1
  O  O236  1  0.49500167  0.87299152  0.16151480  1
  O  O237  1  0.50653553  0.87432951  0.41201026  1
  O  O238  1  0.49361090  0.87979817  0.66424257  1
  O  O239  1  0.50438029  0.87688667  0.91245293  1
  O  O240  1  0.75895577  0.12764045  0.16208644  1
  O  O241  1  0.74857447  0.12041114  0.41918599  1
  O  O242  1  0.74775484  0.12848957  0.66564642  1
  O  O243  1  0.74641727  0.12443364  0.91370923  1
  O  O244  1  0.75017529  0.37826746  0.16434732  1
  O  O245  1  0.75177344  0.37569786  0.42083863  1
  O  O246  1  0.75323756  0.37224277  0.66844680  1
  O  O247  1  0.75399333  0.37322834  0.91056878  1
  O  O248  1  0.74465971  0.62494841  0.15956442  1
  O  O249  1  0.75782506  0.62869629  0.41556664  1
  O  O250  1  0.75473327  0.62081777  0.66417415  1
  O  O251  1  0.74849844  0.62672116  0.90952763  1
  O  O252  1  0.75213619  0.87287738  0.16386605  1
  O  O253  1  0.74826863  0.87477947  0.41930795  1
  O  O254  1  0.74885093  0.87886327  0.66581823  1
  O  O255  1  0.74271986  0.87503149  0.90683072  1
  O  O256  1  0.12055236  0.12042301  0.05003803  1
  O  O257  1  0.11345412  0.12506792  0.28323944  1
  O  O258  1  0.12311298  0.13196295  0.55117453  1
  O  O259  1  0.12290376  0.13087993  0.78088396  1
  O  O260  1  0.11940167  0.38236186  0.02938107  1
  O  O261  1  0.12092408  0.37695825  0.29955487  1
  O  O262  1  0.11648345  0.37336271  0.54634411  1
  O  O263  1  0.13256541  0.37222991  0.78081077  1
  O  O264  1  0.12578193  0.62529081  0.04601639  1
  O  O265  1  0.12342449  0.62148920  0.30335339  1
  O  O266  1  0.12747711  0.61467226  0.53554371  1
  O  O267  1  0.12914314  0.62991759  0.79376096  1
  O  O268  1  0.12805539  0.87763853  0.04789400  1
  O  O269  1  0.12920744  0.87904072  0.29089524  1
  O  O270  1  0.12050893  0.87477212  0.53156549  1
  O  O271  1  0.12720694  0.86964777  0.79301031  1
  O  O272  1  0.37264355  0.11899352  0.03858661  1
  O  O273  1  0.37997492  0.13048530  0.28010730  1
  O  O274  1  0.37944551  0.12634366  0.55092310  1
  O  O275  1  0.37375282  0.11246930  0.78250342  1
  O  O276  1  0.37652019  0.37977389  0.03100374  1
  O  O277  1  0.36863879  0.37304948  0.28524475  1
  O  O278  1  0.37698426  0.36965783  0.55133009  1
  O  O279  1  0.38319436  0.37733482  0.78545297  1
  O  O280  1  0.37387832  0.63393114  0.03504311  1
  O  O281  1  0.37484357  0.62513883  0.29888088  1
  O  O282  1  0.37555763  0.61963683  0.54819215  1
  O  O283  1  0.37012404  0.62907688  0.79775070  1
  O  O284  1  0.37322336  0.87114530  0.05084648  1
  O  O285  1  0.36570705  0.87285450  0.28655843  1
  O  O286  1  0.37987863  0.87514174  0.54722738  1
  O  O287  1  0.37037644  0.88197665  0.78468897  1
  O  O288  1  0.63047733  0.12171611  0.03306423  1
  O  O289  1  0.63418497  0.12196227  0.29689332  1
  O  O290  1  0.62458544  0.12738515  0.55169610  1
  O  O291  1  0.62751491  0.12437064  0.79938015  1
  O  O292  1  0.62991186  0.37584780  0.04690234  1
  O  O293  1  0.63401154  0.38133332  0.28253843  1
  O  O294  1  0.62594882  0.36930335  0.55573802  1
  O  O295  1  0.61545901  0.37034497  0.78240181  1
  O  O296  1  0.62348443  0.62572791  0.04669527  1
  O  O297  1  0.62179321  0.62551024  0.28619183  1
  O  O298  1  0.61666033  0.62555478  0.54445194  1
  O  O299  1  0.62769465  0.62884106  0.77638931  1
  O  O300  1  0.62510173  0.87871575  0.03222740  1
  O  O301  1  0.62854180  0.87515285  0.30137543  1
  O  O302  1  0.62464542  0.87500204  0.53604147  1
  O  O303  1  0.62027536  0.87681067  0.79642898  1
  O  O304  1  0.87688349  0.12561364  0.04530165  1
  O  O305  1  0.87463172  0.12289686  0.30117797  1
  O  O306  1  0.87368606  0.13253838  0.55304747  1
  O  O307  1  0.87461256  0.12639048  0.78319064  1
  O  O308  1  0.87515930  0.37570034  0.04628612  1
  O  O309  1  0.87119123  0.37761819  0.28795730  1
  O  O310  1  0.87297820  0.37363409  0.55180361  1
  O  O311  1  0.87132302  0.37430827  0.79390274  1
  O  O312  1  0.87683211  0.62790230  0.03212002  1
  O  O313  1  0.87819247  0.62599322  0.30069733  1
  O  O314  1  0.87361515  0.62087347  0.55084382  1
  O  O315  1  0.87275883  0.61811566  0.78204895  1
  O  O316  1  0.88033019  0.86712327  0.03222716  1
  O  O317  1  0.87307977  0.87501219  0.30258786  1
  O  O318  1  0.87002611  0.87622354  0.53710508  1
  O  O319  1  0.88070437  0.88059563  0.78071442  1
