# generated using pymatgen
data_VFe(PbO3)2
_symmetry_space_group_name_H-M   'P 1'
_cell_length_a   15.38946248
_cell_length_b   15.37361976
_cell_length_c   18.53368024
_cell_angle_alpha   90.01636374
_cell_angle_beta   90.00098078
_cell_angle_gamma   90.00858492
_symmetry_Int_Tables_number   1
_chemical_formula_structural   VFe(PbO3)2
_chemical_formula_sum   'V32 Fe32 Pb64 O192'
_cell_volume   4384.91551326
_cell_formula_units_Z   32
loop_
 _symmetry_equiv_pos_site_id
 _symmetry_equiv_pos_as_xyz
  1  'x, y, z'
loop_
 _atom_site_type_symbol
 _atom_site_label
 _atom_site_symmetry_multiplicity
 _atom_site_fract_x
 _atom_site_fract_y
 _atom_site_fract_z
 _atom_site_occupancy
  V  V0  1  0.62713730  0.12456920  0.63675266  1
  V  V1  1  0.12392835  0.37717882  0.63748207  1
  V  V2  1  0.12680320  0.87357202  0.39022432  1
  V  V3  1  0.12810479  0.12690507  0.64053118  1
  V  V4  1  0.62395714  0.62912530  0.64473090  1
  V  V5  1  0.37621070  0.62343098  0.88499702  1
  V  V6  1  0.87432683  0.62464709  0.38781308  1
  V  V7  1  0.37408113  0.87592924  0.64748608  1
  V  V8  1  0.62366297  0.37572076  0.39019039  1
  V  V9  1  0.37622319  0.37556966  0.39217571  1
  V  V10  1  0.88004739  0.87058471  0.14039017  1
  V  V11  1  0.87095300  0.37713492  0.14149761  1
  V  V12  1  0.87460160  0.12828012  0.63711815  1
  V  V13  1  0.37363322  0.12397213  0.39232993  1
  V  V14  1  0.62329424  0.12766481  0.38852827  1
  V  V15  1  0.37621955  0.12557679  0.13626864  1
  V  V16  1  0.62630260  0.37492053  0.64051567  1
  V  V17  1  0.37483303  0.62753238  0.39055398  1
  V  V18  1  0.37326350  0.37621703  0.13435761  1
  V  V19  1  0.37558342  0.62441455  0.13673635  1
  V  V20  1  0.12363710  0.37244468  0.88883490  1
  V  V21  1  0.12432196  0.37530558  0.14023694  1
  V  V22  1  0.62898437  0.87342673  0.88911550  1
  V  V23  1  0.62425993  0.87755580  0.63619360  1
  V  V24  1  0.12539197  0.62836320  0.64290624  1
  V  V25  1  0.62658101  0.12472396  0.89134793  1
  V  V26  1  0.37641524  0.87267822  0.13807596  1
  V  V27  1  0.37543954  0.62466534  0.64242140  1
  V  V28  1  0.87574375  0.12476554  0.89287400  1
  V  V29  1  0.62801097  0.62481257  0.14266895  1
  V  V30  1  0.62582950  0.87592236  0.14213596  1
  V  V31  1  0.87784085  0.37285028  0.88998516  1
  Fe  Fe32  1  0.37557599  0.12574688  0.87849679  1
  Fe  Fe33  1  0.37509099  0.87483458  0.38381785  1
  Fe  Fe34  1  0.12236082  0.12752574  0.88235996  1
  Fe  Fe35  1  0.62936524  0.37413832  0.89108337  1
  Fe  Fe36  1  0.12836878  0.87413830  0.13120322  1
  Fe  Fe37  1  0.12450023  0.87657887  0.64550465  1
  Fe  Fe38  1  0.12751699  0.37677197  0.38580201  1
  Fe  Fe39  1  0.87392250  0.87666603  0.63629400  1
  Fe  Fe40  1  0.87498823  0.37636411  0.38455333  1
  Fe  Fe41  1  0.87248042  0.87931647  0.88184619  1
  Fe  Fe42  1  0.62597938  0.62510291  0.87962789  1
  Fe  Fe43  1  0.37486226  0.37765865  0.64474181  1
  Fe  Fe44  1  0.62124066  0.37663257  0.13035226  1
  Fe  Fe45  1  0.87380829  0.62219786  0.64457541  1
  Fe  Fe46  1  0.62275061  0.62144250  0.38610880  1
  Fe  Fe47  1  0.87588849  0.37404715  0.63469700  1
  Fe  Fe48  1  0.12383150  0.87692274  0.87767987  1
  Fe  Fe49  1  0.62027289  0.87333936  0.38621566  1
  Fe  Fe50  1  0.37388072  0.37391987  0.88068880  1
  Fe  Fe51  1  0.12476876  0.62462993  0.13344985  1
  Fe  Fe52  1  0.12516972  0.62246774  0.88282398  1
  Fe  Fe53  1  0.37798070  0.12518715  0.64392855  1
  Fe  Fe54  1  0.87355127  0.87470320  0.38446776  1
  Fe  Fe55  1  0.87266686  0.12337782  0.14585689  1
  Fe  Fe56  1  0.87473847  0.62552956  0.87816255  1
  Fe  Fe57  1  0.87660988  0.12507378  0.37768305  1
  Fe  Fe58  1  0.37831241  0.87658682  0.88185617  1
  Fe  Fe59  1  0.87492435  0.62562971  0.13544884  1
  Fe  Fe60  1  0.12644691  0.62590954  0.38717357  1
  Fe  Fe61  1  0.62300549  0.12501441  0.13562824  1
  Fe  Fe62  1  0.12752179  0.12611950  0.38153445  1
  Fe  Fe63  1  0.12654430  0.12299729  0.13943201  1
  Pb  Pb64  1  0.01221375  -0.00502502  -0.00169355  1
  Pb  Pb65  1  0.00232771  0.00468838  0.24784162  1
  Pb  Pb66  1  -0.00336379  -0.00354109  0.49503020  1
  Pb  Pb67  1  0.00023364  -0.00313677  0.74960834  1
  Pb  Pb68  1  -0.00081489  0.23756116  0.00915874  1
  Pb  Pb69  1  0.00093635  0.24500326  0.25202086  1
  Pb  Pb70  1  0.00097894  0.25096306  0.48716333  1
  Pb  Pb71  1  0.00553590  0.24444159  0.74955570  1
  Pb  Pb72  1  -0.00290533  0.51435008  -0.00047352  1
  Pb  Pb73  1  0.00136498  0.49444268  0.25164953  1
  Pb  Pb74  1  -0.00218190  0.49951143  0.49741951  1
  Pb  Pb75  1  -0.00460581  0.50617033  0.75070085  1
  Pb  Pb76  1  0.00285955  0.75156723  -0.01343354  1
  Pb  Pb77  1  0.00629084  0.74195150  0.24594532  1
  Pb  Pb78  1  -0.01064197  0.75326635  0.50398497  1
  Pb  Pb79  1  -0.01013299  0.75434060  0.75063224  1
  Pb  Pb80  1  0.24533817  -0.00037295  -0.01111264  1
  Pb  Pb81  1  0.24982227  -0.00021070  0.24611006  1
  Pb  Pb82  1  0.24313917  -0.00460047  0.50513479  1
  Pb  Pb83  1  0.24036945  0.00143911  0.75640387  1
  Pb  Pb84  1  0.24887331  0.24089398  -0.00618738  1
  Pb  Pb85  1  0.24192022  0.25117439  0.25292857  1
  Pb  Pb86  1  0.25537017  0.24969341  0.50284683  1
  Pb  Pb87  1  0.25999182  0.25008868  0.75236805  1
  Pb  Pb88  1  0.24408045  0.50643581  -0.00216919  1
  Pb  Pb89  1  0.24092287  0.49892831  0.25272853  1
  Pb  Pb90  1  0.25166054  0.49752670  0.50063455  1
  Pb  Pb91  1  0.24655941  0.50310635  0.75214978  1
  Pb  Pb92  1  0.23958720  0.75751419  -0.00820504  1
  Pb  Pb93  1  0.24705050  0.74603595  0.24729542  1
  Pb  Pb94  1  0.24096650  0.75791536  0.50678550  1
  Pb  Pb95  1  0.24245594  0.75098488  0.75752018  1
  Pb  Pb96  1  0.50067838  0.00474629  -0.00307022  1
  Pb  Pb97  1  0.49714984  -0.01068114  0.25291923  1
  Pb  Pb98  1  0.49364719  0.00641813  0.50137514  1
  Pb  Pb99  1  0.49430763  0.00082499  0.75318827  1
  Pb  Pb100  1  0.50209686  0.25528012  -0.00579823  1
  Pb  Pb101  1  0.50124802  0.25233633  0.24359865  1
  Pb  Pb102  1  0.48904154  0.24904948  0.51023572  1
  Pb  Pb103  1  0.49435871  0.25263858  0.75270261  1
  Pb  Pb104  1  0.50613605  0.49344611  -0.00598933  1
  Pb  Pb105  1  0.50157026  0.50683901  0.24954266  1
  Pb  Pb106  1  0.49464177  0.49343711  0.50521132  1
  Pb  Pb107  1  0.51103929  0.49739812  0.75584893  1
  Pb  Pb108  1  0.49839034  0.74928307  -0.00428601  1
  Pb  Pb109  1  0.50455677  0.75101093  0.25489123  1
  Pb  Pb110  1  0.50196526  0.75204445  0.49700486  1
  Pb  Pb111  1  0.49835556  0.75327019  0.75292132  1
  Pb  Pb112  1  0.75215226  0.00997285  0.00867425  1
  Pb  Pb113  1  0.75610701  -0.00216222  0.25408478  1
  Pb  Pb114  1  0.75619924  -0.00854384  0.49491219  1
  Pb  Pb115  1  0.75304744  -0.00405449  0.74891299  1
  Pb  Pb116  1  0.75127178  0.24169909  0.00881163  1
  Pb  Pb117  1  0.74992276  0.24631035  0.24773279  1
  Pb  Pb118  1  0.75591772  0.25427418  0.49549915  1
  Pb  Pb119  1  0.74349395  0.25645376  0.75228375  1
  Pb  Pb120  1  0.75012556  0.50186518  -0.00551782  1
  Pb  Pb121  1  0.75438041  0.49585892  0.25226017  1
  Pb  Pb122  1  0.76575356  0.50659345  0.50995028  1
  Pb  Pb123  1  0.74588220  0.49961699  0.75394139  1
  Pb  Pb124  1  0.76256845  0.74145396  -0.00494617  1
  Pb  Pb125  1  0.74793383  0.75804629  0.25689931  1
  Pb  Pb126  1  0.75215928  0.74950203  0.49813030  1
  Pb  Pb127  1  0.75897347  0.75024453  0.75005857  1
  O  O128  1  0.12776773  -0.00373289  0.16564049  1
  O  O129  1  0.12938752  -0.00648513  0.41338411  1
  O  O130  1  0.12369611  0.00902737  0.66466301  1
  O  O131  1  0.12294621  0.00260737  0.90903124  1
  O  O132  1  0.12828122  0.25700083  0.16429413  1
  O  O133  1  0.12979589  0.25016028  0.41458199  1
  O  O134  1  0.12190173  0.24848418  0.66104541  1
  O  O135  1  0.11865182  0.25596240  0.91598015  1
  O  O136  1  0.12970829  0.49485573  0.16315294  1
  O  O137  1  0.12884055  0.50287810  0.41850608  1
  O  O138  1  0.12624316  0.49737334  0.66106953  1
  O  O139  1  0.12188805  0.49043067  0.91381056  1
  O  O140  1  0.12859274  0.75028293  0.16379495  1
  O  O141  1  0.12677160  0.75441949  0.41866763  1
  O  O142  1  0.12924165  0.74435022  0.66452911  1
  O  O143  1  0.12659176  0.74961016  0.90362711  1
  O  O144  1  0.37802883  0.00225672  0.15993544  1
  O  O145  1  0.37632851  0.00641826  0.41343945  1
  O  O146  1  0.37968575  -0.00583010  0.66442353  1
  O  O147  1  0.38128832  0.00195825  0.91096936  1
  O  O148  1  0.37541912  0.24764926  0.15913598  1
  O  O149  1  0.37617273  0.24816126  0.41876991  1
  O  O150  1  0.37589970  0.25117865  0.66637918  1
  O  O151  1  0.37634476  0.24960198  0.91191014  1
  O  O152  1  0.37538017  0.50390051  0.16075345  1
  O  O153  1  0.37621534  0.50037283  0.41798484  1
  O  O154  1  0.37482620  0.50560720  0.66730460  1
  O  O155  1  0.37447692  0.50485489  0.90790894  1
  O  O156  1  0.37895836  0.74468144  0.16177810  1
  O  O157  1  0.37690974  0.74436324  0.41035701  1
  O  O158  1  0.37701541  0.74911986  0.67046263  1
  O  O159  1  0.37758635  0.74453215  0.91146855  1
  O  O160  1  0.62181761  -0.00811304  0.16216074  1
  O  O161  1  0.61807117  0.01133967  0.41050900  1
  O  O162  1  0.62520169  -0.00039604  0.66360843  1
  O  O163  1  0.62764797  0.00246260  0.91527307  1
  O  O164  1  0.62157822  0.25295771  0.16311206  1
  O  O165  1  0.61818397  0.25091630  0.41747341  1
  O  O166  1  0.62820515  0.25278210  0.66241002  1
  O  O167  1  0.62996439  0.24264396  0.91263356  1
  O  O168  1  0.62111758  0.50499310  0.16275235  1
  O  O169  1  0.61791350  0.49129589  0.41300394  1
  O  O170  1  0.62431353  0.49691151  0.66447922  1
  O  O171  1  0.62654176  0.50191713  0.91367281  1
  O  O172  1  0.61984520  0.74696043  0.16615462  1
  O  O173  1  0.62090320  0.74585957  0.41702844  1
  O  O174  1  0.62293261  0.74856272  0.66182678  1
  O  O175  1  0.62542987  0.75539797  0.90851988  1
  O  O176  1  0.86868216  -0.01148092  0.16384896  1
  O  O177  1  0.87301844  0.00157381  0.41177842  1
  O  O178  1  0.87183928  0.01068036  0.66206568  1
  O  O179  1  0.87111514  0.00796748  0.91434624  1
  O  O180  1  0.87627044  0.26044722  0.16511027  1
  O  O181  1  0.87150203  0.24922803  0.40898167  1
  O  O182  1  0.87313158  0.24508932  0.66415806  1
  O  O183  1  0.87431799  0.24633001  0.91978332  1
  O  O184  1  0.87501618  0.49628962  0.16633112  1
  O  O185  1  0.87236436  0.50594716  0.41422601  1
  O  O186  1  0.87639059  0.49545730  0.66783729  1
  O  O187  1  0.87611572  0.49109105  0.90676960  1
  O  O188  1  0.86929428  0.75416043  0.16586424  1
  O  O189  1  0.87450905  0.74488739  0.41383756  1
  O  O190  1  0.87365104  0.74992751  0.66364141  1
  O  O191  1  0.87210819  0.75242500  0.90724485  1
  O  O192  1  0.00001899  0.12511680  0.16574822  1
  O  O193  1  0.00193933  0.12351011  0.40740117  1
  O  O194  1  -0.00447607  0.12683490  0.66029763  1
  O  O195  1  -0.00716505  0.12707511  0.91468460  1
  O  O196  1  0.00433580  0.37759048  0.16218271  1
  O  O197  1  0.00020368  0.37783988  0.41152711  1
  O  O198  1  0.00758363  0.37279020  0.66233940  1
  O  O199  1  -0.00416807  0.37088410  0.91763797  1
  O  O200  1  -0.00056823  0.62413033  0.16365961  1
  O  O201  1  -0.00627218  0.62591352  0.41240642  1
  O  O202  1  0.00892560  0.62354039  0.66311795  1
  O  O203  1  -0.00095161  0.62122952  0.90777581  1
  O  O204  1  -0.00467220  0.87190012  0.15782839  1
  O  O205  1  0.00652709  0.87364374  0.41210748  1
  O  O206  1  -0.00165888  0.87798429  0.66304506  1
  O  O207  1  -0.00245469  0.87821056  0.90655800  1
  O  O208  1  0.26000324  0.12480597  0.16347633  1
  O  O209  1  0.25708794  0.12607483  0.41412905  1
  O  O210  1  0.24395028  0.12559546  0.66078437  1
  O  O211  1  0.24886333  0.12826497  0.90553949  1
  O  O212  1  0.25163551  0.37576814  0.16430242  1
  O  O213  1  0.25679866  0.37502594  0.41857149  1
  O  O214  1  0.23976067  0.37269693  0.66453390  1
  O  O215  1  0.24107273  0.37307745  0.90874664  1
  O  O216  1  0.25884165  0.62513163  0.16011288  1
  O  O217  1  0.25914423  0.62419710  0.41687539  1
  O  O218  1  0.24878925  0.62359656  0.66734404  1
  O  O219  1  0.25653335  0.62297949  0.91100349  1
  O  O220  1  0.25783538  0.87355110  0.16007121  1
  O  O221  1  0.24828674  0.87394221  0.41664432  1
  O  O222  1  0.25834650  0.87512846  0.66857184  1
  O  O223  1  0.25241911  0.87617453  0.90587927  1
  O  O224  1  0.49308351  0.12467874  0.16340006  1
  O  O225  1  0.49671901  0.12878434  0.41930094  1
  O  O226  1  0.50978792  0.12680011  0.66422966  1
  O  O227  1  0.50882738  0.12517414  0.90922999  1
  O  O228  1  0.49269716  0.37716591  0.16176739  1
  O  O229  1  0.49931165  0.37280319  0.42114792  1
  O  O230  1  0.50873106  0.37490017  0.66438496  1
  O  O231  1  0.49967187  0.37457426  0.91061902  1
  O  O232  1  0.49740480  0.62386280  0.16505658  1
  O  O233  1  0.49190513  0.62082280  0.41874657  1
  O  O234  1  0.50224606  0.62378694  0.66706200  1
  O  O235  1  0.49544642  0.62554460  0.90945814  1
  O  O236  1  0.50129827  0.87211202  0.16574447  1
  O  O237  1  0.49661066  0.87672450  0.41939986  1
  O  O238  1  0.50125109  0.87258164  0.66673453  1
  O  O239  1  0.51027442  0.87686270  0.91655919  1
  O  O240  1  0.74531681  0.12466355  0.16930972  1
  O  O241  1  0.73918685  0.12934748  0.40554008  1
  O  O242  1  0.75085235  0.12715931  0.66474926  1
  O  O243  1  0.75105874  0.12543662  0.91892247  1
  O  O244  1  0.75226841  0.37837195  0.15958656  1
  O  O245  1  0.73935538  0.37264523  0.40914426  1
  O  O246  1  0.74522685  0.37474349  0.66565536  1
  O  O247  1  0.76112557  0.37033688  0.91575947  1
  O  O248  1  0.74336758  0.62492662  0.16349427  1
  O  O249  1  0.75389167  0.62457979  0.41188985  1
  O  O250  1  0.74072446  0.62230920  0.66358254  1
  O  O251  1  0.75070207  0.62335558  0.90902309  1
  O  O252  1  0.74298107  0.86961937  0.16411410  1
  O  O253  1  0.74585354  0.87479734  0.41404679  1
  O  O254  1  0.74383221  0.87601239  0.66288829  1
  O  O255  1  0.74279141  0.87955803  0.91573141  1
  O  O256  1  0.12336078  0.12821168  0.03886230  1
  O  O257  1  0.13188929  0.12825121  0.28079154  1
  O  O258  1  0.12519109  0.12415916  0.54950123  1
  O  O259  1  0.11619750  0.12759647  0.78227291  1
  O  O260  1  0.12609092  0.37465329  0.04982350  1
  O  O261  1  0.13398086  0.37874324  0.28532118  1
  O  O262  1  0.12572660  0.37607621  0.54667795  1
  O  O263  1  0.11857628  0.37086008  0.79794585  1
  O  O264  1  0.12797870  0.61709316  0.03301958  1
  O  O265  1  0.13282727  0.62820659  0.28740286  1
  O  O266  1  0.12804535  0.62835653  0.55174194  1
  O  O267  1  0.13228808  0.61646251  0.78288539  1
  O  O268  1  0.12656368  0.87696863  0.03120231  1
  O  O269  1  0.12972177  0.87100706  0.29946343  1
  O  O270  1  0.13723386  0.87671275  0.54479256  1
  O  O271  1  0.12963729  0.88176952  0.77487932  1
  O  O272  1  0.37592251  0.12520422  0.04542670  1
  O  O273  1  0.37701531  0.12732673  0.30177748  1
  O  O274  1  0.37958549  0.12646751  0.54295902  1
  O  O275  1  0.38166310  0.12688142  0.77683616  1
  O  O276  1  0.37191514  0.37582383  0.04350690  1
  O  O277  1  0.37681906  0.37540730  0.30134433  1
  O  O278  1  0.37860537  0.37610372  0.54365461  1
  O  O279  1  0.37245266  0.36828783  0.78003990  1
  O  O280  1  0.37889627  0.62474897  0.04610278  1
  O  O281  1  0.37612183  0.62185300  0.29933527  1
  O  O282  1  0.37389990  0.62768806  0.55169714  1
  O  O283  1  0.37464284  0.62555399  0.79388788  1
  O  O284  1  0.38243013  0.87065946  0.04708565  1
  O  O285  1  0.38026558  0.87849277  0.28442894  1
  O  O286  1  0.37434333  0.87202828  0.55615356  1
  O  O287  1  0.38815582  0.87482958  0.78237285  1
  O  O288  1  0.63008521  0.12110570  0.03595794  1
  O  O289  1  0.61510069  0.13189192  0.29762509  1
  O  O290  1  0.62876501  0.12381853  0.54609760  1
  O  O291  1  0.63253125  0.12282075  0.80053603  1
  O  O292  1  0.62007604  0.37839418  0.03043654  1
  O  O293  1  0.61797319  0.37258912  0.29917081  1
  O  O294  1  0.62728111  0.37654205  0.54976395  1
  O  O295  1  0.63402672  0.37718047  0.79012519  1
  O  O296  1  0.62424634  0.62743839  0.05182740  1
  O  O297  1  0.61517839  0.62241694  0.28682217  1
  O  O298  1  0.62165188  0.62396958  0.55381946  1
  O  O299  1  0.62334456  0.61726240  0.77991427  1
  O  O300  1  0.62428442  0.87194045  0.05169792  1
  O  O301  1  0.61777988  0.86969766  0.28563978  1
  O  O302  1  0.62207513  0.87680480  0.54529125  1
  O  O303  1  0.62815002  0.87828845  0.79809983  1
  O  O304  1  0.86614661  0.12895304  0.04434668  1
  O  O305  1  0.87312981  0.12275049  0.27630466  1
  O  O306  1  0.87176575  0.12892821  0.54642035  1
  O  O307  1  0.87267730  0.12801280  0.80205519  1
  O  O308  1  0.87652404  0.37793689  0.05090586  1
  O  O309  1  0.87339348  0.38612632  0.28469438  1
  O  O310  1  0.86722803  0.37897199  0.53479866  1
  O  O311  1  0.87835833  0.36534041  0.79911539  1
  O  O312  1  0.87233811  0.62386230  0.03587287  1
  O  O313  1  0.87342308  0.62333060  0.29660277  1
  O  O314  1  0.87120091  0.61924343  0.54293229  1
  O  O315  1  0.87746182  0.62703872  0.77622894  1
  O  O316  1  0.87246574  0.86971275  0.04950859  1
  O  O317  1  0.86697846  0.87254542  0.28497068  1
  O  O318  1  0.87453077  0.87703940  0.53475806  1
  O  O319  1  0.86580654  0.87913830  0.78118384  1
