# generated using pymatgen
data_VFe(PbO3)2
_symmetry_space_group_name_H-M   'P 1'
_cell_length_a   15.37704075
_cell_length_b   15.37586779
_cell_length_c   18.50674395
_cell_angle_alpha   89.99579890
_cell_angle_beta   90.01749351
_cell_angle_gamma   90.00138077
_symmetry_Int_Tables_number   1
_chemical_formula_structural   VFe(PbO3)2
_chemical_formula_sum   'V32 Fe32 Pb64 O192'
_cell_volume   4375.64818322
_cell_formula_units_Z   32
loop_
 _symmetry_equiv_pos_site_id
 _symmetry_equiv_pos_as_xyz
  1  'x, y, z'
loop_
 _atom_site_type_symbol
 _atom_site_label
 _atom_site_symmetry_multiplicity
 _atom_site_fract_x
 _atom_site_fract_y
 _atom_site_fract_z
 _atom_site_occupancy
  V  V0  1  0.12479175  0.37529251  0.14284251  1
  V  V1  1  0.87579319  0.37337348  0.88927998  1
  V  V2  1  0.37430637  0.87477425  0.63819204  1
  V  V3  1  0.12436013  0.37581519  0.63507074  1
  V  V4  1  0.87534751  0.12472028  0.89484254  1
  V  V5  1  0.37569595  0.37691857  0.14253581  1
  V  V6  1  0.62563780  0.87433778  0.63800251  1
  V  V7  1  0.12556065  0.37438443  0.88872680  1
  V  V8  1  0.62620570  0.62479021  0.38991028  1
  V  V9  1  0.37327653  0.37358279  0.64080682  1
  V  V10  1  0.87230383  0.37766606  0.14030081  1
  V  V11  1  0.12536992  0.87443332  0.39038669  1
  V  V12  1  0.87711697  0.87709634  0.63743233  1
  V  V13  1  0.62487913  0.62625608  0.88908754  1
  V  V14  1  0.87628993  0.87553322  0.38659305  1
  V  V15  1  0.62440759  0.62241319  0.14023083  1
  V  V16  1  0.87737881  0.62756956  0.39047388  1
  V  V17  1  0.62346166  0.12993169  0.14357974  1
  V  V18  1  0.62406445  0.37623022  0.63612187  1
  V  V19  1  0.62604163  0.12304711  0.89107108  1
  V  V20  1  0.87498922  0.87583017  0.89350406  1
  V  V21  1  0.37373429  0.62557128  0.89085416  1
  V  V22  1  0.37547845  0.62488624  0.13943870  1
  V  V23  1  0.12418820  0.62320616  0.14081935  1
  V  V24  1  0.37341480  0.62652764  0.38753372  1
  V  V25  1  0.62599274  0.37292979  0.38622858  1
  V  V26  1  0.37403264  0.87465038  0.14394488  1
  V  V27  1  0.12758200  0.87612304  0.89163665  1
  V  V28  1  0.37809994  0.62317900  0.64034517  1
  V  V29  1  0.12324904  0.12735959  0.38549453  1
  V  V30  1  0.62589261  0.87694772  0.89169957  1
  V  V31  1  0.62441844  0.87505600  0.14426635  1
  Fe  Fe32  1  0.87284668  0.62206417  0.13261733  1
  Fe  Fe33  1  0.37599412  0.37661767  0.38379826  1
  Fe  Fe34  1  0.12404096  0.62488513  0.88142574  1
  Fe  Fe35  1  0.12572883  0.87358582  0.13203029  1
  Fe  Fe36  1  0.37418785  0.12370429  0.37665862  1
  Fe  Fe37  1  0.12707556  0.62611155  0.64229381  1
  Fe  Fe38  1  0.12735674  0.12382732  0.63258327  1
  Fe  Fe39  1  0.62440003  0.37650714  0.13358574  1
  Fe  Fe40  1  0.62206463  0.12411370  0.63167880  1
  Fe  Fe41  1  0.12599390  0.87530811  0.63390240  1
  Fe  Fe42  1  0.87445080  0.62489981  0.88726844  1
  Fe  Fe43  1  0.87692950  0.12318917  0.38312804  1
  Fe  Fe44  1  0.87430393  0.12534886  0.13742088  1
  Fe  Fe45  1  0.37457329  0.12472213  0.14633600  1
  Fe  Fe46  1  0.12504685  0.12669654  0.13213204  1
  Fe  Fe47  1  0.62748307  0.87188818  0.38031352  1
  Fe  Fe48  1  0.12378620  0.12561767  0.89419650  1
  Fe  Fe49  1  0.87502061  0.37716408  0.39541920  1
  Fe  Fe50  1  0.37417389  0.37431381  0.88465863  1
  Fe  Fe51  1  0.87506892  0.87129666  0.13275066  1
  Fe  Fe52  1  0.87571702  0.37490808  0.62666010  1
  Fe  Fe53  1  0.37730936  0.87502428  0.88670260  1
  Fe  Fe54  1  0.87273921  0.12595767  0.63244630  1
  Fe  Fe55  1  0.12460633  0.62690833  0.38280831  1
  Fe  Fe56  1  0.62628165  0.37273563  0.89139755  1
  Fe  Fe57  1  0.62082450  0.62570127  0.63641722  1
  Fe  Fe58  1  0.37530880  0.12363699  0.88623116  1
  Fe  Fe59  1  0.62708629  0.12274321  0.38269046  1
  Fe  Fe60  1  0.37655585  0.12548163  0.63520683  1
  Fe  Fe61  1  0.87114063  0.62467028  0.63880196  1
  Fe  Fe62  1  0.12643147  0.37749919  0.38239712  1
  Fe  Fe63  1  0.37404130  0.87230984  0.38124350  1
  Pb  Pb64  1  0.00385901  -0.00445107  0.00566631  1
  Pb  Pb65  1  -0.00279498  0.00115821  0.23778543  1
  Pb  Pb66  1  0.00944256  0.00146139  0.50209247  1
  Pb  Pb67  1  0.01123788  0.00949454  0.74918535  1
  Pb  Pb68  1  0.00134959  0.24278031  0.00576857  1
  Pb  Pb69  1  -0.00758254  0.24859217  0.25057181  1
  Pb  Pb70  1  -0.00611871  0.25057641  0.49553634  1
  Pb  Pb71  1  0.00121704  0.24677870  0.74205869  1
  Pb  Pb72  1  -0.00452644  0.50707234  -0.00224254  1
  Pb  Pb73  1  -0.00148519  0.48824343  0.25885000  1
  Pb  Pb74  1  0.00086667  0.50025603  0.49839428  1
  Pb  Pb75  1  -0.00481411  0.50987804  0.74739343  1
  Pb  Pb76  1  -0.00041208  0.75372093  -0.00029893  1
  Pb  Pb77  1  0.00099858  0.74688790  0.24360142  1
  Pb  Pb78  1  0.00777676  0.74712329  0.50576035  1
  Pb  Pb79  1  0.00079727  0.74487425  0.74879821  1
  Pb  Pb80  1  0.25418148  0.00915284  0.00418776  1
  Pb  Pb81  1  0.24864506  0.00410740  0.24614258  1
  Pb  Pb82  1  0.25295339  0.00615666  0.49786262  1
  Pb  Pb83  1  0.25009295  0.01004154  0.75304004  1
  Pb  Pb84  1  0.25718967  0.23794744  0.00334447  1
  Pb  Pb85  1  0.25412377  0.25135287  0.25045641  1
  Pb  Pb86  1  0.25560314  0.24302444  0.49468642  1
  Pb  Pb87  1  0.25192491  0.23845125  0.75350652  1
  Pb  Pb88  1  0.24609245  0.49852950  -0.00131227  1
  Pb  Pb89  1  0.24252741  0.49840124  0.25569805  1
  Pb  Pb90  1  0.24360234  0.50082104  0.49536329  1
  Pb  Pb91  1  0.25180603  0.49718741  0.75102396  1
  Pb  Pb92  1  0.24266517  0.75468565  0.00083295  1
  Pb  Pb93  1  0.25101172  0.74709278  0.25167431  1
  Pb  Pb94  1  0.23966200  0.74889208  0.50380915  1
  Pb  Pb95  1  0.24629166  0.75081188  0.75043367  1
  Pb  Pb96  1  0.49292507  0.00587866  0.00379839  1
  Pb  Pb97  1  0.50776075  -0.00037902  0.25614723  1
  Pb  Pb98  1  0.49901171  0.00183503  0.48710750  1
  Pb  Pb99  1  0.49076927  0.00356436  0.74916809  1
  Pb  Pb100  1  0.49828181  0.25338756  -0.00149790  1
  Pb  Pb101  1  0.49589857  0.24808400  0.25404001  1
  Pb  Pb102  1  0.49493224  0.23603199  0.49434997  1
  Pb  Pb103  1  0.50021346  0.25447075  0.75153708  1
  Pb  Pb104  1  0.50384038  0.49274811  0.00145072  1
  Pb  Pb105  1  0.49532051  0.49602497  0.25197273  1
  Pb  Pb106  1  0.50635709  0.50282895  0.49894096  1
  Pb  Pb107  1  0.50279321  0.48761532  0.75730745  1
  Pb  Pb108  1  0.50265002  0.75030707  0.00114655  1
  Pb  Pb109  1  0.49881394  0.75632216  0.25523521  1
  Pb  Pb110  1  0.50351863  0.75214122  0.49580035  1
  Pb  Pb111  1  0.49388885  0.75785706  0.75215454  1
  Pb  Pb112  1  0.75868830  -0.00092105  0.00765665  1
  Pb  Pb113  1  0.74975841  0.00465002  0.25025272  1
  Pb  Pb114  1  0.74608738  0.00929162  0.49609020  1
  Pb  Pb115  1  0.74814458  0.00322692  0.74590931  1
  Pb  Pb116  1  0.75393865  0.24556285  0.00482954  1
  Pb  Pb117  1  0.75268555  0.24069866  0.25706788  1
  Pb  Pb118  1  0.75668202  0.24132602  0.49768874  1
  Pb  Pb119  1  0.74761631  0.25254479  0.74272758  1
  Pb  Pb120  1  0.75111696  0.50125156  -0.00014857  1
  Pb  Pb121  1  0.75703421  0.49020750  0.25535620  1
  Pb  Pb122  1  0.75383604  0.50646420  0.50532535  1
  Pb  Pb123  1  0.75321860  0.50161720  0.74737933  1
  Pb  Pb124  1  0.75925610  0.75049745  0.00360552  1
  Pb  Pb125  1  0.74843174  0.75087766  0.24686567  1
  Pb  Pb126  1  0.75380901  0.74257050  0.50239969  1
  Pb  Pb127  1  0.75261776  0.74523213  0.75064675  1
  O  O128  1  0.12599482  -0.00109122  0.15953755  1
  O  O129  1  0.12257193  -0.00484057  0.41168336  1
  O  O130  1  0.12547986  -0.00216833  0.66563420  1
  O  O131  1  0.12145354  -0.00756334  0.91500694  1
  O  O132  1  0.12566792  0.25714995  0.16333204  1
  O  O133  1  0.12471832  0.24321656  0.40296388  1
  O  O134  1  0.13091666  0.25896122  0.66162362  1
  O  O135  1  0.12189688  0.25990086  0.91507524  1
  O  O136  1  0.12890322  0.50337697  0.16543781  1
  O  O137  1  0.12546805  0.50421062  0.41414233  1
  O  O138  1  0.13026432  0.49253938  0.66286238  1
  O  O139  1  0.12355727  0.49455262  0.91490858  1
  O  O140  1  0.13051692  0.74209196  0.16103523  1
  O  O141  1  0.12238939  0.75372136  0.41507993  1
  O  O142  1  0.12679414  0.75356097  0.66950205  1
  O  O143  1  0.12449669  0.75341157  0.91313767  1
  O  O144  1  0.37767114  -0.00899349  0.16339920  1
  O  O145  1  0.37224817  -0.00159711  0.40580852  1
  O  O146  1  0.37802912  -0.00811126  0.65821417  1
  O  O147  1  0.37688272  -0.00175413  0.91910555  1
  O  O148  1  0.37562524  0.25877081  0.16268693  1
  O  O149  1  0.37422402  0.24934856  0.40977255  1
  O  O150  1  0.37525058  0.25809144  0.66109468  1
  O  O151  1  0.37583443  0.24972702  0.91422803  1
  O  O152  1  0.37679863  0.49984609  0.16653858  1
  O  O153  1  0.37714511  0.50923401  0.41355616  1
  O  O154  1  0.37667983  0.50269163  0.66374279  1
  O  O155  1  0.37619771  0.50811880  0.91570789  1
  O  O156  1  0.37651535  0.74838637  0.16555770  1
  O  O157  1  0.37552714  0.74276793  0.41499141  1
  O  O158  1  0.37835927  0.74944292  0.66479389  1
  O  O159  1  0.37747793  0.74418270  0.91703066  1
  O  O160  1  0.62371013  0.00104865  0.16520320  1
  O  O161  1  0.62824047  -0.00459905  0.40851703  1
  O  O162  1  0.62271329  -0.00838623  0.66363917  1
  O  O163  1  0.62802549  0.00364230  0.91938599  1
  O  O164  1  0.62440070  0.24792188  0.16229980  1
  O  O165  1  0.62507209  0.25776383  0.40371416  1
  O  O166  1  0.61972845  0.25779047  0.66177602  1
  O  O167  1  0.62707784  0.24085438  0.91516993  1
  O  O168  1  0.62028232  0.50530426  0.16307279  1
  O  O169  1  0.62523198  0.50302799  0.41634711  1
  O  O170  1  0.61950855  0.49383172  0.66257285  1
  O  O171  1  0.62345122  0.50851776  0.91251254  1
  O  O172  1  0.62201560  0.74384810  0.16520753  1
  O  O173  1  0.62731634  0.74556216  0.41353158  1
  O  O174  1  0.62295026  0.75768209  0.66556108  1
  O  O175  1  0.62425577  0.74807557  0.91627766  1
  O  O176  1  0.87267267  -0.00205333  0.15846908  1
  O  O177  1  0.87846735  -0.00908732  0.40629102  1
  O  O178  1  0.87017880  -0.00628075  0.66337291  1
  O  O179  1  0.87382237  0.00023172  0.92056134  1
  O  O180  1  0.87364568  0.26034926  0.16338680  1
  O  O181  1  0.87705410  0.24893800  0.41097022  1
  O  O182  1  0.87351887  0.25318751  0.66332702  1
  O  O183  1  0.87512390  0.25399901  0.91786301  1
  O  O184  1  0.87464181  0.49743750  0.16676544  1
  O  O185  1  0.87339476  0.51050075  0.41512987  1
  O  O186  1  0.87243465  0.49577026  0.66373843  1
  O  O187  1  0.87358875  0.49288894  0.91328773  1
  O  O188  1  0.87253194  0.74455437  0.16350036  1
  O  O189  1  0.87667033  0.74810086  0.41582771  1
  O  O190  1  0.86914118  0.75920305  0.66512839  1
  O  O191  1  0.87124408  0.75308819  0.91346715  1
  O  O192  1  0.00002056  0.13021851  0.16137959  1
  O  O193  1  0.00650418  0.11949743  0.40998784  1
  O  O194  1  -0.00007205  0.12585045  0.66227732  1
  O  O195  1  -0.00437727  0.12633801  0.91844969  1
  O  O196  1  -0.00381262  0.37952696  0.16480526  1
  O  O197  1  0.00358044  0.37806201  0.41599418  1
  O  O198  1  0.00791326  0.37446318  0.65453258  1
  O  O199  1  -0.00294970  0.37575222  0.91507426  1
  O  O200  1  0.00716961  0.62357497  0.15474550  1
  O  O201  1  -0.00534165  0.62772468  0.41085292  1
  O  O202  1  -0.00137658  0.62627906  0.66368768  1
  O  O203  1  0.00041732  0.62379296  0.91248342  1
  O  O204  1  0.00134282  0.86874149  0.16181782  1
  O  O205  1  -0.00119554  0.87129532  0.41563047  1
  O  O206  1  -0.00815486  0.87468454  0.66019249  1
  O  O207  1  0.00082314  0.87358495  0.91605448  1
  O  O208  1  0.24822367  0.12682837  0.16641972  1
  O  O209  1  0.24264558  0.12004536  0.40810163  1
  O  O210  1  0.25179992  0.12536223  0.66663930  1
  O  O211  1  0.24932074  0.12430679  0.91751775  1
  O  O212  1  0.25423379  0.37943419  0.16392252  1
  O  O213  1  0.25097631  0.37796048  0.41309774  1
  O  O214  1  0.25438647  0.37897837  0.66241057  1
  O  O215  1  0.24403043  0.37820313  0.91134320  1
  O  O216  1  0.25299313  0.62298619  0.16640132  1
  O  O217  1  0.25587014  0.62744543  0.41025998  1
  O  O218  1  0.26077224  0.62622527  0.66774148  1
  O  O219  1  0.25445931  0.62533583  0.91235951  1
  O  O220  1  0.25570266  0.87024776  0.16165435  1
  O  O221  1  0.24220824  0.87193273  0.40999046  1
  O  O222  1  0.25888399  0.87099996  0.65847718  1
  O  O223  1  0.24590119  0.87204845  0.91093957  1
  O  O224  1  0.50554664  0.12458847  0.16565845  1
  O  O225  1  0.50063546  0.12497871  0.40474867  1
  O  O226  1  0.50020875  0.12509344  0.66491835  1
  O  O227  1  0.50804573  0.12240957  0.91328307  1
  O  O228  1  0.49600813  0.37741057  0.16415729  1
  O  O229  1  0.50770313  0.38155521  0.41195026  1
  O  O230  1  0.49679824  0.37735210  0.66492750  1
  O  O231  1  0.49923369  0.37646823  0.91812075  1
  O  O232  1  0.50000793  0.62484841  0.16664198  1
  O  O233  1  0.49840659  0.62647027  0.41225911  1
  O  O234  1  0.49370776  0.62658964  0.66679177  1
  O  O235  1  0.50147984  0.62725815  0.91541627  1
  O  O236  1  0.49822420  0.87102775  0.16744191  1
  O  O237  1  0.50047402  0.86987520  0.41072454  1
  O  O238  1  0.50024989  0.87286381  0.66375086  1
  O  O239  1  0.50599808  0.87455274  0.92060563  1
  O  O240  1  0.74447701  0.12636655  0.16475249  1
  O  O241  1  0.75198937  0.12392653  0.41059116  1
  O  O242  1  0.74617349  0.12498448  0.66597502  1
  O  O243  1  0.74823300  0.12432925  0.91993190  1
  O  O244  1  0.75325307  0.37981142  0.16215837  1
  O  O245  1  0.74058742  0.38163059  0.41301107  1
  O  O246  1  0.74151197  0.37512464  0.65452525  1
  O  O247  1  0.75669842  0.37361568  0.91340818  1
  O  O248  1  0.74118602  0.62286274  0.16215285  1
  O  O249  1  0.75289976  0.62748398  0.41462796  1
  O  O250  1  0.74407535  0.62577603  0.66952315  1
  O  O251  1  0.74232615  0.62605104  0.91247215  1
  O  O252  1  0.74558777  0.87106631  0.16371559  1
  O  O253  1  0.76040638  0.86854000  0.40760700  1
  O  O254  1  0.74567326  0.87549942  0.66257374  1
  O  O255  1  0.74699294  0.87613101  0.91952125  1
  O  O256  1  0.12543723  0.12929178  0.03025373  1
  O  O257  1  0.12368008  0.12047583  0.29447435  1
  O  O258  1  0.12882227  0.11830573  0.53245003  1
  O  O259  1  0.12661343  0.12260747  0.79251112  1
  O  O260  1  0.12478732  0.38094041  0.05159541  1
  O  O261  1  0.12348528  0.38519457  0.28117541  1
  O  O262  1  0.12979247  0.37638837  0.54400265  1
  O  O263  1  0.12305217  0.37512330  0.79791507  1
  O  O264  1  0.13339582  0.62046851  0.04933185  1
  O  O265  1  0.12835524  0.62713897  0.28324818  1
  O  O266  1  0.13007400  0.63411646  0.54135673  1
  O  O267  1  0.12613673  0.62442976  0.78146196  1
  O  O268  1  0.12427360  0.86815636  0.03209676  1
  O  O269  1  0.12152837  0.87319533  0.29938346  1
  O  O270  1  0.12179250  0.87092210  0.53379118  1
  O  O271  1  0.12350880  0.87629888  0.80029429  1
  O  O272  1  0.37128424  0.12156303  0.04429163  1
  O  O273  1  0.37434880  0.13028543  0.27469412  1
  O  O274  1  0.37239390  0.12959501  0.53431458  1
  O  O275  1  0.36964215  0.12000890  0.78517999  1
  O  O276  1  0.37544571  0.38004708  0.05096356  1
  O  O277  1  0.37917731  0.37692968  0.28385845  1
  O  O278  1  0.37569956  0.37704074  0.55010086  1
  O  O279  1  0.37928206  0.37970409  0.78480266  1
  O  O280  1  0.37455812  0.62469450  0.04847609  1
  O  O281  1  0.37518007  0.62717481  0.29590448  1
  O  O282  1  0.37646208  0.62502127  0.54970319  1
  O  O283  1  0.37664144  0.62555437  0.80004701  1
  O  O284  1  0.37814762  0.87129069  0.05249023  1
  O  O285  1  0.37444181  0.86377606  0.28182963  1
  O  O286  1  0.37805321  0.87062887  0.54723287  1
  O  O287  1  0.38304006  0.87458085  0.78740132  1
  O  O288  1  0.62479856  0.12596950  0.05227165  1
  O  O289  1  0.63173244  0.12349041  0.28128242  1
  O  O290  1  0.62780269  0.12286008  0.53141578  1
  O  O291  1  0.62954558  0.12122954  0.80023646  1
  O  O292  1  0.62103288  0.37871305  0.03370105  1
  O  O293  1  0.62671400  0.38045984  0.29429764  1
  O  O294  1  0.61738775  0.37656641  0.54553519  1
  O  O295  1  0.61750460  0.37350846  0.79135708  1
  O  O296  1  0.62251947  0.62509529  0.04885572  1
  O  O297  1  0.62725582  0.62224062  0.29877202  1
  O  O298  1  0.62453953  0.62457040  0.53682753  1
  O  O299  1  0.62294286  0.62850002  0.79817679  1
  O  O300  1  0.62108283  0.87373549  0.05292788  1
  O  O301  1  0.62245202  0.87141260  0.27973626  1
  O  O302  1  0.62453928  0.87328458  0.54721107  1
  O  O303  1  0.62496744  0.87781330  0.80080897  1
  O  O304  1  0.86883359  0.13246973  0.03628246  1
  O  O305  1  0.87241459  0.13075138  0.28130861  1
  O  O306  1  0.86934876  0.12675608  0.53235760  1
  O  O307  1  0.87249406  0.12564646  0.80384188  1
  O  O308  1  0.87434404  0.37936233  0.04907765  1
  O  O309  1  0.87488858  0.38504501  0.29302821  1
  O  O310  1  0.87578727  0.37657326  0.52582927  1
  O  O311  1  0.87725668  0.37112419  0.79858827  1
  O  O312  1  0.86743659  0.61820029  0.03226612  1
  O  O313  1  0.87370091  0.62697953  0.29913036  1
  O  O314  1  0.86360671  0.62693137  0.53859261  1
  O  O315  1  0.87112997  0.62136824  0.78645620  1
  O  O316  1  0.87329453  0.87037670  0.03168427  1
  O  O317  1  0.88043647  0.86897416  0.29555256  1
  O  O318  1  0.87386401  0.87644238  0.54657898  1
  O  O319  1  0.87443319  0.87964373  0.80268931  1
