# generated using pymatgen
data_VFe(PbO3)2
_symmetry_space_group_name_H-M   'P 1'
_cell_length_a   15.38587063
_cell_length_b   15.38063256
_cell_length_c   18.54983260
_cell_angle_alpha   89.97324868
_cell_angle_beta   90.01314016
_cell_angle_gamma   90.01254330
_symmetry_Int_Tables_number   1
_chemical_formula_structural   VFe(PbO3)2
_chemical_formula_sum   'V32 Fe32 Pb64 O192'
_cell_volume   4389.71372997
_cell_formula_units_Z   32
loop_
 _symmetry_equiv_pos_site_id
 _symmetry_equiv_pos_as_xyz
  1  'x, y, z'
loop_
 _atom_site_type_symbol
 _atom_site_label
 _atom_site_symmetry_multiplicity
 _atom_site_fract_x
 _atom_site_fract_y
 _atom_site_fract_z
 _atom_site_occupancy
  V  V0  1  0.37322812  0.62366982  0.14617242  1
  V  V1  1  0.37446222  0.37282528  0.89267228  1
  V  V2  1  0.37358344  0.87545300  0.14138431  1
  V  V3  1  0.62569175  0.87459300  0.38793060  1
  V  V4  1  0.62689415  0.62290256  0.39017705  1
  V  V5  1  0.62612583  0.37079630  0.38789000  1
  V  V6  1  0.12479775  0.87539451  0.63980113  1
  V  V7  1  0.63003426  0.12427299  0.64164905  1
  V  V8  1  0.87529919  0.62518861  0.64434395  1
  V  V9  1  0.37388858  0.62375870  0.88374341  1
  V  V10  1  0.38074611  0.12481749  0.63930791  1
  V  V11  1  0.37397493  0.37553396  0.39097469  1
  V  V12  1  0.13582313  0.12317654  0.38637717  1
  V  V13  1  0.62692497  0.37401387  0.64431116  1
  V  V14  1  0.12617539  0.12783017  0.88887686  1
  V  V15  1  0.87469404  0.87663953  0.64574391  1
  V  V16  1  0.62449255  0.12872771  0.89066278  1
  V  V17  1  0.62734275  0.62586313  0.64107158  1
  V  V18  1  0.12437583  0.87310331  0.14424607  1
  V  V19  1  0.87129975  0.12416408  0.39028051  1
  V  V20  1  0.37493898  0.12274004  0.89189680  1
  V  V21  1  0.62088471  0.37840706  0.13571892  1
  V  V22  1  0.87757729  0.87195824  0.13441417  1
  V  V23  1  0.87516578  0.37444949  0.13911411  1
  V  V24  1  0.12826639  0.62221410  0.88339577  1
  V  V25  1  0.62136909  0.62140666  0.88828094  1
  V  V26  1  0.12550690  0.37458980  0.14262642  1
  V  V27  1  0.87412289  0.37368473  0.64052034  1
  V  V28  1  0.87892062  0.12288702  0.13594337  1
  V  V29  1  0.87386676  0.87462646  0.38879579  1
  V  V30  1  0.12442109  0.62572052  0.14748774  1
  V  V31  1  0.12670806  0.12444903  0.63821621  1
  Fe  Fe32  1  0.62415298  0.87187997  0.13021335  1
  Fe  Fe33  1  0.87775957  0.62267641  0.13579165  1
  Fe  Fe34  1  0.87654140  0.87538380  0.88483756  1
  Fe  Fe35  1  0.62156567  0.87496853  0.88690374  1
  Fe  Fe36  1  0.87002096  0.37358186  0.38411438  1
  Fe  Fe37  1  0.12138809  0.62749909  0.39078915  1
  Fe  Fe38  1  0.86931817  0.62652944  0.38257025  1
  Fe  Fe39  1  0.12756221  0.37607391  0.88353729  1
  Fe  Fe40  1  0.62648925  0.12511841  0.13384357  1
  Fe  Fe41  1  0.37371490  0.87284812  0.88298988  1
  Fe  Fe42  1  0.12048147  0.37216790  0.39551415  1
  Fe  Fe43  1  0.12453585  0.12475532  0.13532201  1
  Fe  Fe44  1  0.12215025  0.62585471  0.62840168  1
  Fe  Fe45  1  0.12543677  0.37280458  0.62642376  1
  Fe  Fe46  1  0.38286871  0.12531449  0.37988490  1
  Fe  Fe47  1  0.62641424  0.12245631  0.38226814  1
  Fe  Fe48  1  0.12837992  0.87281214  0.88359880  1
  Fe  Fe49  1  0.37302442  0.38047153  0.13767007  1
  Fe  Fe50  1  0.37706116  0.37271613  0.63062632  1
  Fe  Fe51  1  0.62485607  0.62533240  0.13238270  1
  Fe  Fe52  1  0.37474825  0.87754478  0.38210674  1
  Fe  Fe53  1  0.87644164  0.37417911  0.88409967  1
  Fe  Fe54  1  0.37583735  0.87724851  0.63863367  1
  Fe  Fe55  1  0.62758774  0.87479194  0.64292998  1
  Fe  Fe56  1  0.37859516  0.62657056  0.39596820  1
  Fe  Fe57  1  0.37190597  0.12751264  0.14065277  1
  Fe  Fe58  1  0.62144258  0.37517369  0.88398938  1
  Fe  Fe59  1  0.87626047  0.12591230  0.87713272  1
  Fe  Fe60  1  0.87736109  0.12376939  0.64929637  1
  Fe  Fe61  1  0.37570533  0.62446345  0.62709868  1
  Fe  Fe62  1  0.12075716  0.88100803  0.38345485  1
  Fe  Fe63  1  0.87664345  0.62426787  0.88231946  1
  Pb  Pb64  1  0.00038148  -0.00172037  -0.00774100  1
  Pb  Pb65  1  0.00338970  -0.00313509  0.24943455  1
  Pb  Pb66  1  -0.01054736  0.01047261  0.50417856  1
  Pb  Pb67  1  0.00346925  -0.00745687  0.75608411  1
  Pb  Pb68  1  0.00078363  0.25277616  -0.00571020  1
  Pb  Pb69  1  0.00025336  0.26293801  0.25563514  1
  Pb  Pb70  1  -0.00203496  0.25139557  0.50061927  1
  Pb  Pb71  1  -0.00021761  0.25557964  0.75117269  1
  Pb  Pb72  1  -0.00518829  0.50347522  -0.00393592  1
  Pb  Pb73  1  0.00648870  0.49881651  0.26077411  1
  Pb  Pb74  1  -0.00207716  0.50314712  0.49346532  1
  Pb  Pb75  1  0.00591485  0.49288976  0.74568504  1
  Pb  Pb76  1  -0.00543166  0.74538875  -0.00497906  1
  Pb  Pb77  1  0.00338504  0.73985626  0.25774084  1
  Pb  Pb78  1  0.00308113  0.74620375  0.49653373  1
  Pb  Pb79  1  -0.00266983  0.75194295  0.75302053  1
  Pb  Pb80  1  0.24870845  0.00758199  0.00331165  1
  Pb  Pb81  1  0.25031474  -0.00701432  0.25049775  1
  Pb  Pb82  1  0.26148028  -0.00853792  0.49722405  1
  Pb  Pb83  1  0.24892568  -0.00714575  0.75278976  1
  Pb  Pb84  1  0.25299828  0.24360193  0.00772540  1
  Pb  Pb85  1  0.25396983  0.24700706  0.24808046  1
  Pb  Pb86  1  0.25495978  0.26133146  0.50322290  1
  Pb  Pb87  1  0.24440672  0.25566304  0.74633273  1
  Pb  Pb88  1  0.25471376  0.49565615  0.00130271  1
  Pb  Pb89  1  0.23834604  0.50255946  0.26255778  1
  Pb  Pb90  1  0.23783172  0.51012916  0.49980191  1
  Pb  Pb91  1  0.24837167  0.49725029  0.73320837  1
  Pb  Pb92  1  0.25111245  0.75259207  -0.00464279  1
  Pb  Pb93  1  0.25623205  0.74973815  0.26245974  1
  Pb  Pb94  1  0.25012854  0.75043584  0.49220209  1
  Pb  Pb95  1  0.25421433  0.74797526  0.74012853  1
  Pb  Pb96  1  0.50548362  -0.00098973  0.00382596  1
  Pb  Pb97  1  0.50359538  0.00938549  0.24776133  1
  Pb  Pb98  1  0.49937501  -0.00397108  0.49843185  1
  Pb  Pb99  1  0.50050477  -0.01127063  0.75476390  1
  Pb  Pb100  1  0.49464437  0.24116690  0.00869270  1
  Pb  Pb101  1  0.49963143  0.24248771  0.24599350  1
  Pb  Pb102  1  0.50053208  0.24999675  0.49744551  1
  Pb  Pb103  1  0.50557332  0.25235891  0.75223512  1
  Pb  Pb104  1  0.49772978  0.49836317  0.00183592  1
  Pb  Pb105  1  0.49305052  0.50721801  0.25558252  1
  Pb  Pb106  1  0.49463365  0.50035390  0.50472972  1
  Pb  Pb107  1  0.50196383  0.49588806  0.74582480  1
  Pb  Pb108  1  0.50639677  0.75143405  -0.00214754  1
  Pb  Pb109  1  0.49375472  0.75087928  0.25255694  1
  Pb  Pb110  1  0.48867749  0.75764495  0.50429653  1
  Pb  Pb111  1  0.49709208  0.75569094  0.74615648  1
  Pb  Pb112  1  0.74475189  -0.00259497  -0.00567821  1
  Pb  Pb113  1  0.74287091  0.00288396  0.24322755  1
  Pb  Pb114  1  0.74514597  -0.00279080  0.50535813  1
  Pb  Pb115  1  0.74936156  -0.01080005  0.75898514  1
  Pb  Pb116  1  0.75056319  0.25391568  -0.00617077  1
  Pb  Pb117  1  0.75312389  0.25387768  0.24568294  1
  Pb  Pb118  1  0.75729211  0.23889146  0.50569578  1
  Pb  Pb119  1  0.75914713  0.25153766  0.75733451  1
  Pb  Pb120  1  0.75312955  0.50672647  -0.00368143  1
  Pb  Pb121  1  0.75808032  0.50217020  0.24553671  1
  Pb  Pb122  1  0.75291116  0.49939092  0.49808975  1
  Pb  Pb123  1  0.75849952  0.49807402  0.75633991  1
  Pb  Pb124  1  0.74624006  0.74849222  -0.00525625  1
  Pb  Pb125  1  0.75185899  0.74323036  0.24189933  1
  Pb  Pb126  1  0.74139847  0.75795295  0.50465553  1
  Pb  Pb127  1  0.75772151  0.74821334  0.75822146  1
  O  O128  1  0.12438229  -0.00423185  0.16409497  1
  O  O129  1  0.11769987  0.01225000  0.41737745  1
  O  O130  1  0.12395376  -0.00146941  0.66609274  1
  O  O131  1  0.13225440  0.00922825  0.91192137  1
  O  O132  1  0.12394630  0.25759171  0.16224988  1
  O  O133  1  0.12036757  0.23501872  0.41612163  1
  O  O134  1  0.12498159  0.24348882  0.65820264  1
  O  O135  1  0.13148920  0.24533244  0.91353466  1
  O  O136  1  0.12304071  0.50124055  0.17057177  1
  O  O137  1  0.12265427  0.49880958  0.41528822  1
  O  O138  1  0.12231302  0.49790686  0.65393220  1
  O  O139  1  0.12877204  0.50604225  0.91114429  1
  O  O140  1  0.12433459  0.74567463  0.17034988  1
  O  O141  1  0.11855360  0.75670883  0.41125985  1
  O  O142  1  0.12142699  0.75778065  0.65863679  1
  O  O143  1  0.12854325  0.74037103  0.90982051  1
  O  O144  1  0.36904019  -0.00856142  0.15569188  1
  O  O145  1  0.37979574  0.00182542  0.41391640  1
  O  O146  1  0.37234204  0.00960193  0.66611964  1
  O  O147  1  0.37274083  0.00771883  0.91143330  1
  O  O148  1  0.37310070  0.25690785  0.16579818  1
  O  O149  1  0.38343063  0.25534092  0.41123098  1
  O  O150  1  0.37355302  0.24039656  0.66547361  1
  O  O151  1  0.37427838  0.25262308  0.91499206  1
  O  O152  1  0.37093714  0.50605254  0.17327721  1
  O  O153  1  0.38251584  0.49216685  0.41551170  1
  O  O154  1  0.37865701  0.49906511  0.65569170  1
  O  O155  1  0.37399228  0.49992039  0.91509933  1
  O  O156  1  0.36931136  0.74377104  0.16909786  1
  O  O157  1  0.37927320  0.75508497  0.41544836  1
  O  O158  1  0.37788017  0.74916130  0.66006314  1
  O  O159  1  0.37384350  0.74306744  0.91218919  1
  O  O160  1  0.62623598  -0.00410241  0.16076793  1
  O  O161  1  0.63060161  -0.00760709  0.41345950  1
  O  O162  1  0.62600386  0.00884791  0.66698825  1
  O  O163  1  0.61845902  0.00941252  0.91284378  1
  O  O164  1  0.62648319  0.25858861  0.15857082  1
  O  O165  1  0.62587270  0.25508465  0.40774794  1
  O  O166  1  0.62346410  0.24477666  0.66748215  1
  O  O167  1  0.61773328  0.24602877  0.91510679  1
  O  O168  1  0.62824971  0.49492449  0.16296574  1
  O  O169  1  0.62757311  0.50334920  0.41248346  1
  O  O170  1  0.62802451  0.50149669  0.66665252  1
  O  O171  1  0.62029354  0.50348685  0.91250780  1
  O  O172  1  0.62442426  0.75001003  0.16349493  1
  O  O173  1  0.63047947  0.75465848  0.41320130  1
  O  O174  1  0.62948084  0.74261906  0.66472957  1
  O  O175  1  0.62107281  0.74264152  0.90964108  1
  O  O176  1  0.87781174  0.00238126  0.15865397  1
  O  O177  1  0.86859824  0.00073737  0.41669252  1
  O  O178  1  0.87599382  -0.00664281  0.66758041  1
  O  O179  1  0.87674515  0.00420666  0.91072202  1
  O  O180  1  0.87656406  0.24788744  0.16315462  1
  O  O181  1  0.86737844  0.24316206  0.41507602  1
  O  O182  1  0.87372040  0.25617841  0.66446479  1
  O  O183  1  0.87551349  0.24670738  0.91515969  1
  O  O184  1  0.87666447  0.49390268  0.16217511  1
  O  O185  1  0.86740849  0.50013278  0.41172910  1
  O  O186  1  0.87275333  0.49535533  0.66400444  1
  O  O187  1  0.87571150  0.50063534  0.91325214  1
  O  O188  1  0.87958829  0.75666987  0.15671468  1
  O  O189  1  0.87125474  0.75971783  0.41195928  1
  O  O190  1  0.87480779  0.75309914  0.66805172  1
  O  O191  1  0.87650615  0.74813816  0.91317164  1
  O  O192  1  -0.00534007  0.12601919  0.16191230  1
  O  O193  1  -0.01331881  0.12405849  0.41503338  1
  O  O194  1  0.00974279  0.12211449  0.66504597  1
  O  O195  1  0.00845998  0.12696586  0.90539025  1
  O  O196  1  0.00365059  0.37585620  0.16617059  1
  O  O197  1  -0.00707860  0.36852629  0.41738828  1
  O  O198  1  -0.00586038  0.37339217  0.65605689  1
  O  O199  1  0.00411570  0.37365591  0.91557257  1
  O  O200  1  0.00585039  0.62493368  0.16638612  1
  O  O201  1  -0.00808437  0.62756423  0.41422305  1
  O  O202  1  -0.00391319  0.62598327  0.66352105  1
  O  O203  1  0.00930395  0.62321469  0.90636435  1
  O  O204  1  -0.00446053  0.87717152  0.16573167  1
  O  O205  1  -0.01115842  0.88338002  0.41400885  1
  O  O206  1  -0.00058228  0.87606928  0.66617964  1
  O  O207  1  0.00517006  0.87572957  0.91543782  1
  O  O208  1  0.24652614  0.12617889  0.16921429  1
  O  O209  1  0.25017649  0.12384347  0.39827140  1
  O  O210  1  0.24536433  0.12293249  0.66390415  1
  O  O211  1  0.25467563  0.12932607  0.91634107  1
  O  O212  1  0.24168803  0.38094227  0.16802899  1
  O  O213  1  0.25687974  0.37025299  0.40801418  1
  O  O214  1  0.25108217  0.36979747  0.65683480  1
  O  O215  1  0.25568072  0.37678938  0.91561536  1
  O  O216  1  0.24699561  0.62355514  0.17380099  1
  O  O217  1  0.25028244  0.62619735  0.41098849  1
  O  O218  1  0.24833067  0.62685770  0.65464865  1
  O  O219  1  0.24979896  0.62258832  0.91240162  1
  O  O220  1  0.25034121  0.86876400  0.16979082  1
  O  O221  1  0.24678353  0.88133362  0.40995898  1
  O  O222  1  0.24397514  0.87799900  0.65908230  1
  O  O223  1  0.25069752  0.87435874  0.91762660  1
  O  O224  1  0.50021426  0.12486993  0.16160684  1
  O  O225  1  0.50528875  0.12455057  0.41558146  1
  O  O226  1  0.49961881  0.12557108  0.66129305  1
  O  O227  1  0.49420367  0.12878922  0.91568949  1
  O  O228  1  0.50581755  0.38001277  0.16002165  1
  O  O229  1  0.50857398  0.37753119  0.41582912  1
  O  O230  1  0.50319091  0.37141443  0.66451909  1
  O  O231  1  0.49187691  0.37687012  0.91651284  1
  O  O232  1  0.49231126  0.62401089  0.16393717  1
  O  O233  1  0.51407871  0.62785970  0.41870899  1
  O  O234  1  0.50991277  0.62345951  0.66023253  1
  O  O235  1  0.49851950  0.62255054  0.91266285  1
  O  O236  1  0.48984548  0.86811909  0.15688601  1
  O  O237  1  0.50998536  0.87550071  0.40799275  1
  O  O238  1  0.50195865  0.87810564  0.66517054  1
  O  O239  1  0.49623402  0.87589306  0.91413386  1
  O  O240  1  0.75891370  0.12552905  0.16017159  1
  O  O241  1  0.75138294  0.12302027  0.41753514  1
  O  O242  1  0.74344165  0.12732239  0.66701478  1
  O  O243  1  0.74233232  0.12698547  0.90606230  1
  O  O244  1  0.74916384  0.37388570  0.16112552  1
  O  O245  1  0.74128960  0.37547689  0.41647095  1
  O  O246  1  0.75218257  0.37379403  0.66889973  1
  O  O247  1  0.74716022  0.37355141  0.91199327  1
  O  O248  1  0.75170328  0.62480165  0.16157347  1
  O  O249  1  0.74287381  0.62932586  0.41800597  1
  O  O250  1  0.74854442  0.62279672  0.67140111  1
  O  O251  1  0.74177634  0.62309905  0.90776593  1
  O  O252  1  0.76087312  0.87640096  0.15560154  1
  O  O253  1  0.75206323  0.87688306  0.41768685  1
  O  O254  1  0.75582725  0.87501734  0.66880431  1
  O  O255  1  0.74816332  0.87648663  0.91146243  1
  O  O256  1  0.13438247  0.12530998  0.03606037  1
  O  O257  1  0.11941993  0.12234193  0.29588492  1
  O  O258  1  0.12731264  0.12007776  0.54768948  1
  O  O259  1  0.13259995  0.12845049  0.79792097  1
  O  O260  1  0.12612356  0.37986272  0.05193911  1
  O  O261  1  0.11516285  0.37559415  0.29380788  1
  O  O262  1  0.13095815  0.36398407  0.52533074  1
  O  O263  1  0.12374329  0.37225870  0.78381941  1
  O  O264  1  0.12855056  0.62444474  0.05725972  1
  O  O265  1  0.11616531  0.61979798  0.28870647  1
  O  O266  1  0.12048429  0.62773432  0.52799015  1
  O  O267  1  0.13043777  0.62202894  0.79257188  1
  O  O268  1  0.12542598  0.86909812  0.05351698  1
  O  O269  1  0.11869228  0.88462111  0.28371503  1
  O  O270  1  0.11977434  0.88166433  0.54949352  1
  O  O271  1  0.12480156  0.87933167  0.78382866  1
  O  O272  1  0.37015208  0.13193672  0.03862308  1
  O  O273  1  0.38548368  0.12665322  0.27950400  1
  O  O274  1  0.37813606  0.12506331  0.54816924  1
  O  O275  1  0.37373386  0.12679860  0.80144124  1
  O  O276  1  0.37213825  0.38643686  0.03846441  1
  O  O277  1  0.38099118  0.37915580  0.30004816  1
  O  O278  1  0.37981890  0.36397200  0.53100483  1
  O  O279  1  0.37428263  0.37317568  0.80177873  1
  O  O280  1  0.36787086  0.62180136  0.05577543  1
  O  O281  1  0.38824211  0.62736205  0.29484881  1
  O  O282  1  0.38509063  0.62684579  0.52584063  1
  O  O283  1  0.37356215  0.62333202  0.79288339  1
  O  O284  1  0.36595293  0.86549387  0.05089111  1
  O  O285  1  0.37447531  0.87033479  0.28185796  1
  O  O286  1  0.37808605  0.88481557  0.53791008  1
  O  O287  1  0.37331155  0.87754080  0.78197722  1
  O  O288  1  0.61915899  0.12335676  0.03406157  1
  O  O289  1  0.62481125  0.11691495  0.28216496  1
  O  O290  1  0.63070659  0.12448599  0.55019122  1
  O  O291  1  0.61764624  0.12966192  0.79975259  1
  O  O292  1  0.62165632  0.37989060  0.04453461  1
  O  O293  1  0.62557664  0.37623846  0.29735501  1
  O  O294  1  0.62975651  0.37293647  0.55346061  1
  O  O295  1  0.61451047  0.37344555  0.78434782  1
  O  O296  1  0.62241436  0.62623748  0.03310971  1
  O  O297  1  0.62683570  0.62491842  0.29909385  1
  O  O298  1  0.63321563  0.62426327  0.55039511  1
  O  O299  1  0.61880343  0.62072323  0.79754753  1
  O  O300  1  0.62131341  0.87544544  0.02951237  1
  O  O301  1  0.63076761  0.87523317  0.29718597  1
  O  O302  1  0.63424823  0.87537181  0.54284130  1
  O  O303  1  0.62370007  0.88272655  0.78492745  1
  O  O304  1  0.87786495  0.12496237  0.04549981  1
  O  O305  1  0.87148027  0.12329110  0.29965418  1
  O  O306  1  0.87220639  0.12493393  0.54841131  1
  O  O307  1  0.87503718  0.13341445  0.77616093  1
  O  O308  1  0.87795422  0.37138559  0.04792855  1
  O  O309  1  0.87142839  0.36530219  0.28415985  1
  O  O310  1  0.86546687  0.37300188  0.54952043  1
  O  O311  1  0.87915863  0.37171512  0.78354318  1
  O  O312  1  0.88072804  0.62082519  0.03563533  1
  O  O313  1  0.87007563  0.63106688  0.28250915  1
  O  O314  1  0.86808438  0.62717346  0.55353597  1
  O  O315  1  0.87134284  0.62555879  0.78201477  1
  O  O316  1  0.88320280  0.87555679  0.04342288  1
  O  O317  1  0.87226877  0.87717533  0.29814913  1
  O  O318  1  0.87508332  0.87483284  0.55472011  1
  O  O319  1  0.87911680  0.87168061  0.78416213  1
