# generated using pymatgen
data_VFe(PbO3)2
_symmetry_space_group_name_H-M   'P 1'
_cell_length_a   15.39818268
_cell_length_b   15.38841810
_cell_length_c   18.50248296
_cell_angle_alpha   90.06365067
_cell_angle_beta   90.01947377
_cell_angle_gamma   89.99949463
_symmetry_Int_Tables_number   1
_chemical_formula_structural   VFe(PbO3)2
_chemical_formula_sum   'V32 Fe32 Pb64 O192'
_cell_volume   4384.22833965
_cell_formula_units_Z   32
loop_
 _symmetry_equiv_pos_site_id
 _symmetry_equiv_pos_as_xyz
  1  'x, y, z'
loop_
 _atom_site_type_symbol
 _atom_site_label
 _atom_site_symmetry_multiplicity
 _atom_site_fract_x
 _atom_site_fract_y
 _atom_site_fract_z
 _atom_site_occupancy
  V  V0  1  0.12127649  0.12875446  0.14462372  1
  V  V1  1  0.62201944  0.63159333  0.64116687  1
  V  V2  1  0.12452159  0.37552955  0.13998987  1
  V  V3  1  0.62741504  0.62185417  0.13654327  1
  V  V4  1  0.12346681  0.87788272  0.14456086  1
  V  V5  1  0.11985686  0.62551741  0.14517627  1
  V  V6  1  0.62348890  0.12701611  0.13615442  1
  V  V7  1  0.37688641  0.37466975  0.64444379  1
  V  V8  1  0.87554350  0.12557761  0.14272241  1
  V  V9  1  0.37696701  0.12410175  0.64083616  1
  V  V10  1  0.62090386  0.13228292  0.64674357  1
  V  V11  1  0.87534915  0.37511267  0.14199505  1
  V  V12  1  0.62366770  0.87835211  0.64282633  1
  V  V13  1  0.12644079  0.12529597  0.63573593  1
  V  V14  1  0.12565253  0.12661702  0.88831948  1
  V  V15  1  0.37730610  0.87558177  0.38267361  1
  V  V16  1  0.12432753  0.62581992  0.63457853  1
  V  V17  1  0.62428714  0.62635148  0.88905606  1
  V  V18  1  0.37132523  0.87434698  0.89911566  1
  V  V19  1  0.87487078  0.62527991  0.38690001  1
  V  V20  1  0.12785154  0.88276075  0.88974863  1
  V  V21  1  0.62856326  0.87531062  0.38379978  1
  V  V22  1  0.37683142  0.87572027  0.63921423  1
  V  V23  1  0.12087972  0.37502747  0.39735661  1
  V  V24  1  0.12715326  0.63961920  0.88660847  1
  V  V25  1  0.12855718  0.38548976  0.88528117  1
  V  V26  1  0.62448289  0.38368904  0.64497505  1
  V  V27  1  0.37481473  0.12518368  0.89559798  1
  V  V28  1  0.37830034  0.62706393  0.64219056  1
  V  V29  1  0.37412921  0.12532926  0.38562990  1
  V  V30  1  0.37487887  0.37432901  0.38555855  1
  V  V31  1  0.37719544  0.37198729  0.13841485  1
  Fe  Fe32  1  0.87099803  0.62623871  0.63748364  1
  Fe  Fe33  1  0.87902426  0.37502144  0.88109573  1
  Fe  Fe34  1  0.62702936  0.12297752  0.88202142  1
  Fe  Fe35  1  0.87333602  0.87422903  0.37780509  1
  Fe  Fe36  1  0.87580869  0.37697579  0.63335405  1
  Fe  Fe37  1  0.12575455  0.62351019  0.38417665  1
  Fe  Fe38  1  0.37273842  0.62239832  0.14598054  1
  Fe  Fe39  1  0.62384564  0.87392576  0.89516694  1
  Fe  Fe40  1  0.62363320  0.12407274  0.38392173  1
  Fe  Fe41  1  0.37425916  0.62447475  0.37575442  1
  Fe  Fe42  1  0.13024753  0.87388374  0.63276171  1
  Fe  Fe43  1  0.37201919  0.12743951  0.13406051  1
  Fe  Fe44  1  0.87755702  0.12371735  0.87789038  1
  Fe  Fe45  1  0.37093066  0.37502645  0.88559355  1
  Fe  Fe46  1  0.62546851  0.62568295  0.38207995  1
  Fe  Fe47  1  0.62408066  0.37569181  0.88335338  1
  Fe  Fe48  1  0.87345309  0.37582679  0.38975592  1
  Fe  Fe49  1  0.13014823  0.37723014  0.63161389  1
  Fe  Fe50  1  0.62732722  0.37293725  0.13771827  1
  Fe  Fe51  1  0.62408545  0.37541755  0.38071889  1
  Fe  Fe52  1  0.37414858  0.87598922  0.13625723  1
  Fe  Fe53  1  0.87641151  0.87375972  0.63623589  1
  Fe  Fe54  1  0.87581567  0.62422148  0.88774810  1
  Fe  Fe55  1  0.12590306  0.87466975  0.38321002  1
  Fe  Fe56  1  0.12649696  0.12585666  0.38355265  1
  Fe  Fe57  1  0.62567310  0.87431360  0.12767437  1
  Fe  Fe58  1  0.87462057  0.87381139  0.14480142  1
  Fe  Fe59  1  0.87579211  0.62188933  0.13572140  1
  Fe  Fe60  1  0.87192452  0.12388165  0.63998218  1
  Fe  Fe61  1  0.87902379  0.87351393  0.88437256  1
  Fe  Fe62  1  0.87313146  0.12441857  0.38468870  1
  Fe  Fe63  1  0.37316487  0.62532286  0.89035118  1
  Pb  Pb64  1  -0.00861246  -0.00565713  0.00171982  1
  Pb  Pb65  1  -0.00117191  0.00093753  0.25745765  1
  Pb  Pb66  1  -0.00379400  -0.00395191  0.49136517  1
  Pb  Pb67  1  -0.00879669  -0.00332777  0.74331084  1
  Pb  Pb68  1  -0.00237474  0.24986664  -0.00547662  1
  Pb  Pb69  1  -0.01112963  0.25091083  0.25958728  1
  Pb  Pb70  1  -0.01347152  0.24017434  0.50140051  1
  Pb  Pb71  1  -0.00601526  0.25475912  0.74193735  1
  Pb  Pb72  1  -0.00501360  0.50691007  -0.00013310  1
  Pb  Pb73  1  -0.00550030  0.49293728  0.25589151  1
  Pb  Pb74  1  -0.01069210  0.50140152  0.50496755  1
  Pb  Pb75  1  -0.00491328  0.49840363  0.74399304  1
  Pb  Pb76  1  -0.01604733  0.75235118  0.00955809  1
  Pb  Pb77  1  -0.00156647  0.75527144  0.25455992  1
  Pb  Pb78  1  0.00045675  0.75903971  0.49498114  1
  Pb  Pb79  1  -0.00690530  0.75411812  0.74646090  1
  Pb  Pb80  1  0.25587604  0.00163922  0.01044539  1
  Pb  Pb81  1  0.24142137  0.00091737  0.25168402  1
  Pb  Pb82  1  0.24240702  -0.00429938  0.49676095  1
  Pb  Pb83  1  0.25145313  0.00125855  0.74825466  1
  Pb  Pb84  1  0.25224752  0.24456309  0.00293322  1
  Pb  Pb85  1  0.24329485  0.24696746  0.25101224  1
  Pb  Pb86  1  0.24701029  0.25429145  0.50161105  1
  Pb  Pb87  1  0.25377241  0.25596938  0.75033809  1
  Pb  Pb88  1  0.25876839  0.50687082  0.00630328  1
  Pb  Pb89  1  0.24599470  0.50504812  0.25373689  1
  Pb  Pb90  1  0.24962528  0.50025892  0.49861481  1
  Pb  Pb91  1  0.25958689  0.50538970  0.75161838  1
  Pb  Pb92  1  0.26032758  0.74806589  0.01493514  1
  Pb  Pb93  1  0.24416405  0.74703649  0.25274174  1
  Pb  Pb94  1  0.24576393  0.75014989  0.49343578  1
  Pb  Pb95  1  0.25571755  0.74493275  0.75040993  1
  Pb  Pb96  1  0.50290152  -0.00304497  0.00343047  1
  Pb  Pb97  1  0.49802739  -0.00161936  0.24043082  1
  Pb  Pb98  1  0.49958985  -0.00156828  0.49622126  1
  Pb  Pb99  1  0.50970377  -0.00217876  0.76014902  1
  Pb  Pb100  1  0.51118426  0.26001579  -0.00091643  1
  Pb  Pb101  1  0.51334205  0.24836435  0.25154975  1
  Pb  Pb102  1  0.50311508  0.24960862  0.49587890  1
  Pb  Pb103  1  0.50487163  0.25567929  0.75856340  1
  Pb  Pb104  1  0.49962355  0.49811604  -0.00206473  1
  Pb  Pb105  1  0.50687233  0.50360840  0.25174710  1
  Pb  Pb106  1  0.50173888  0.50313853  0.49197899  1
  Pb  Pb107  1  0.49947992  0.49470985  0.75815117  1
  Pb  Pb108  1  0.49771445  0.75173131  0.00623117  1
  Pb  Pb109  1  0.49842098  0.74472275  0.24166460  1
  Pb  Pb110  1  0.49974812  0.74688773  0.49218180  1
  Pb  Pb111  1  0.50490914  0.75509695  0.75844911  1
  Pb  Pb112  1  0.75179224  -0.00352065  -0.00891092  1
  Pb  Pb113  1  0.75267257  0.00268205  0.24799482  1
  Pb  Pb114  1  0.76424502  0.00605253  0.50010792  1
  Pb  Pb115  1  0.74943670  0.00350731  0.75355587  1
  Pb  Pb116  1  0.74989549  0.25135268  -0.01165181  1
  Pb  Pb117  1  0.75179387  0.24325637  0.25643995  1
  Pb  Pb118  1  0.75194409  0.25088244  0.49418181  1
  Pb  Pb119  1  0.75844578  0.25123331  0.75195912  1
  Pb  Pb120  1  0.74947140  0.49478369  -0.00520327  1
  Pb  Pb121  1  0.74068539  0.49630275  0.25278170  1
  Pb  Pb122  1  0.75293892  0.49836073  0.49714811  1
  Pb  Pb123  1  0.76200016  0.50117771  0.75526543  1
  Pb  Pb124  1  0.75428202  0.75596693  -0.00155363  1
  Pb  Pb125  1  0.75211957  0.75197130  0.24272514  1
  Pb  Pb126  1  0.76511981  0.74824314  0.50325259  1
  Pb  Pb127  1  0.76032406  0.75529084  0.75733810  1
  O  O128  1  0.12208225  -0.00153241  0.16449851  1
  O  O129  1  0.12971102  0.00029471  0.41286161  1
  O  O130  1  0.13241240  0.00721966  0.66096212  1
  O  O131  1  0.12845137  -0.00094213  0.91689711  1
  O  O132  1  0.12073950  0.25401802  0.16759329  1
  O  O133  1  0.13064258  0.25567632  0.41633483  1
  O  O134  1  0.13204827  0.24342255  0.66054344  1
  O  O135  1  0.12760096  0.24106092  0.91036771  1
  O  O136  1  0.12090560  0.49611482  0.16606007  1
  O  O137  1  0.13013496  0.49470054  0.41694214  1
  O  O138  1  0.13306974  0.50955730  0.66083429  1
  O  O139  1  0.12927698  0.49747241  0.90095488  1
  O  O140  1  0.12320686  0.74758233  0.16400983  1
  O  O141  1  0.12928398  0.74905321  0.41259769  1
  O  O142  1  0.13273618  0.74183491  0.66082077  1
  O  O143  1  0.12892254  0.75282984  0.90411604  1
  O  O144  1  0.37287364  0.00306872  0.16339529  1
  O  O145  1  0.37733782  -0.00194222  0.41124715  1
  O  O146  1  0.37802476  -0.00006980  0.66799392  1
  O  O147  1  0.36806337  -0.00204268  0.92040961  1
  O  O148  1  0.36808563  0.25559731  0.16541106  1
  O  O149  1  0.37601109  0.25226638  0.41315044  1
  O  O150  1  0.37868565  0.24798867  0.66918107  1
  O  O151  1  0.36668481  0.24259557  0.91198101  1
  O  O152  1  0.36910276  0.48739658  0.16340022  1
  O  O153  1  0.37539849  0.49279268  0.40671457  1
  O  O154  1  0.37884185  0.50118799  0.66774891  1
  O  O155  1  0.36740254  0.49979627  0.91797537  1
  O  O156  1  0.37233291  0.75019051  0.16391950  1
  O  O157  1  0.37760217  0.75746335  0.40265411  1
  O  O158  1  0.37918109  0.75174219  0.66823637  1
  O  O159  1  0.36727330  0.75387351  0.91961831  1
  O  O160  1  0.62880866  0.01009601  0.15629466  1
  O  O161  1  0.61915105  -0.00860528  0.41257985  1
  O  O162  1  0.61942226  -0.00403224  0.66492641  1
  O  O163  1  0.62014652  0.00133695  0.91719215  1
  O  O164  1  0.62900779  0.24488742  0.16401509  1
  O  O165  1  0.62010832  0.25087518  0.41413695  1
  O  O166  1  0.61986086  0.24968666  0.66481893  1
  O  O167  1  0.62147990  0.24776756  0.91057502  1
  O  O168  1  0.62606558  0.50032647  0.16264480  1
  O  O169  1  0.62100231  0.50044971  0.41377959  1
  O  O170  1  0.61865823  0.50061572  0.66268260  1
  O  O171  1  0.62315574  0.50642150  0.91379592  1
  O  O172  1  0.62473897  0.74171002  0.15540501  1
  O  O173  1  0.61812891  0.75804828  0.40917952  1
  O  O174  1  0.61778205  0.74983452  0.66590906  1
  O  O175  1  0.62114576  0.74212123  0.91711316  1
  O  O176  1  0.87654516  0.00818699  0.16238446  1
  O  O177  1  0.87260686  -0.00255320  0.40978499  1
  O  O178  1  0.87185435  -0.00181159  0.66330893  1
  O  O179  1  0.88157147  -0.00104089  0.91180597  1
  O  O180  1  0.87865422  0.25030880  0.16732676  1
  O  O181  1  0.87518733  0.25014764  0.41413989  1
  O  O182  1  0.87239089  0.25122949  0.66131360  1
  O  O183  1  0.88293814  0.24940259  0.90995016  1
  O  O184  1  0.87914000  0.49276391  0.16305872  1
  O  O185  1  0.87603540  0.50639004  0.41401235  1
  O  O186  1  0.87182654  0.50202034  0.66476015  1
  O  O187  1  0.88183086  0.49888967  0.91464142  1
  O  O188  1  0.87647471  0.74538741  0.16603990  1
  O  O189  1  0.87245370  0.74549698  0.40853231  1
  O  O190  1  0.87116022  0.74909662  0.66722034  1
  O  O191  1  0.88174788  0.74859234  0.91597857  1
  O  O192  1  -0.00350202  0.12652676  0.16909606  1
  O  O193  1  0.00172785  0.12544314  0.41207694  1
  O  O194  1  0.01025320  0.12521900  0.65561335  1
  O  O195  1  0.00966511  0.12078998  0.91134935  1
  O  O196  1  -0.00069560  0.37307379  0.16924488  1
  O  O197  1  0.00616548  0.37667613  0.41610672  1
  O  O198  1  0.00515675  0.37771553  0.65774523  1
  O  O199  1  0.01415430  0.37130123  0.91305885  1
  O  O200  1  0.00446822  0.62167539  0.16883835  1
  O  O201  1  -0.00565397  0.62536421  0.41063667  1
  O  O202  1  0.00794689  0.62490757  0.65377627  1
  O  O203  1  0.01497897  0.62230972  0.91368812  1
  O  O204  1  0.00647980  0.87497388  0.16879666  1
  O  O205  1  -0.00138253  0.87223295  0.40642861  1
  O  O206  1  0.00562830  0.87305527  0.66069467  1
  O  O207  1  0.01305139  0.87523118  0.91426743  1
  O  O208  1  0.24317308  0.12757356  0.16476408  1
  O  O209  1  0.25667047  0.12646677  0.41364269  1
  O  O210  1  0.25365437  0.12527030  0.66644692  1
  O  O211  1  0.24542662  0.11992136  0.91961029  1
  O  O212  1  0.24332288  0.37296428  0.16567093  1
  O  O213  1  0.25686890  0.37358012  0.41453355  1
  O  O214  1  0.25510431  0.37469191  0.66629232  1
  O  O215  1  0.24115726  0.36841265  0.91570839  1
  O  O216  1  0.23923363  0.62027670  0.16618566  1
  O  O217  1  0.25418041  0.62334850  0.41200812  1
  O  O218  1  0.25525603  0.62640088  0.66386679  1
  O  O219  1  0.23847515  0.62489680  0.92135662  1
  O  O220  1  0.24145605  0.87461034  0.16427987  1
  O  O221  1  0.26101990  0.87680486  0.40713192  1
  O  O222  1  0.25678865  0.87543902  0.66582228  1
  O  O223  1  0.24499471  0.87562794  0.92161026  1
  O  O224  1  0.50530480  0.12957115  0.15556457  1
  O  O225  1  0.49487609  0.12393215  0.41620771  1
  O  O226  1  0.50092046  0.12363614  0.67149098  1
  O  O227  1  0.48939064  0.12071229  0.91147313  1
  O  O228  1  0.49297453  0.37017464  0.15546875  1
  O  O229  1  0.49235312  0.37389708  0.41195752  1
  O  O230  1  0.50177370  0.37447950  0.67157705  1
  O  O231  1  0.49600514  0.37557327  0.91379218  1
  O  O232  1  0.50535202  0.61948489  0.15913506  1
  O  O233  1  0.49690243  0.62627227  0.41238509  1
  O  O234  1  0.50367505  0.62498929  0.67082839  1
  O  O235  1  0.50237182  0.62486376  0.91398526  1
  O  O236  1  0.50310459  0.87716742  0.16038176  1
  O  O237  1  0.49614309  0.87672537  0.41293905  1
  O  O238  1  0.50071056  0.87425250  0.67144776  1
  O  O239  1  0.48838820  0.87332934  0.91769776  1
  O  O240  1  0.75426287  0.12938644  0.16127235  1
  O  O241  1  0.74595008  0.12351602  0.41605042  1
  O  O242  1  0.73852855  0.12259143  0.66420160  1
  O  O243  1  0.75274401  0.12383298  0.90869763  1
  O  O244  1  0.75898153  0.37237292  0.16009481  1
  O  O245  1  0.74789876  0.37767280  0.41073293  1
  O  O246  1  0.74002664  0.37514192  0.66218095  1
  O  O247  1  0.75163564  0.37615256  0.90775759  1
  O  O248  1  0.74607641  0.61973565  0.16053813  1
  O  O249  1  0.75427674  0.62516981  0.41005915  1
  O  O250  1  0.73616058  0.62536327  0.66456872  1
  O  O251  1  0.74380512  0.62502737  0.91253419  1
  O  O252  1  0.74674493  0.87561758  0.16177305  1
  O  O253  1  0.74242266  0.87335990  0.40237497  1
  O  O254  1  0.73832596  0.87251197  0.66313531  1
  O  O255  1  0.75237229  0.87165913  0.91122229  1
  O  O256  1  0.11846918  0.12655617  0.05337373  1
  O  O257  1  0.12906025  0.12315520  0.28298357  1
  O  O258  1  0.13367627  0.12514653  0.54457296  1
  O  O259  1  0.12957574  0.12207328  0.79753344  1
  O  O260  1  0.12340667  0.37596390  0.04917669  1
  O  O261  1  0.12440408  0.37515746  0.30581787  1
  O  O262  1  0.14000447  0.37685688  0.53212823  1
  O  O263  1  0.12971877  0.37407081  0.79378461  1
  O  O264  1  0.11970295  0.62444703  0.05394495  1
  O  O265  1  0.13139080  0.62239084  0.28447285  1
  O  O266  1  0.13107487  0.62539011  0.54318551  1
  O  O267  1  0.13078097  0.63188290  0.79519951  1
  O  O268  1  0.12175950  0.87529061  0.05345177  1
  O  O269  1  0.12797862  0.87559624  0.28247967  1
  O  O270  1  0.13567597  0.87293124  0.53293371  1
  O  O271  1  0.13188092  0.88473062  0.79883455  1
  O  O272  1  0.36510174  0.12675819  0.03424362  1
  O  O273  1  0.37576520  0.12696707  0.29442966  1
  O  O274  1  0.37750551  0.12457246  0.55022026  1
  O  O275  1  0.36793647  0.11886867  0.80466803  1
  O  O276  1  0.36801440  0.37084056  0.04664591  1
  O  O277  1  0.37434187  0.37070195  0.29491488  1
  O  O278  1  0.37986285  0.37521418  0.55357654  1
  O  O279  1  0.37368350  0.37595009  0.78537581  1
  O  O280  1  0.36258107  0.62255055  0.04364311  1
  O  O281  1  0.37456071  0.61991412  0.27442142  1
  O  O282  1  0.38028964  0.62782401  0.55124082  1
  O  O283  1  0.36478805  0.62723435  0.79051216  1
  O  O284  1  0.36835838  0.87250325  0.03535196  1
  O  O285  1  0.38112562  0.88065833  0.29168898  1
  O  O286  1  0.37869264  0.87515531  0.54821928  1
  O  O287  1  0.36933287  0.87649824  0.80810405  1
  O  O288  1  0.62722941  0.13082149  0.04511543  1
  O  O289  1  0.62604423  0.13115237  0.28378329  1
  O  O290  1  0.61527274  0.12736542  0.55592948  1
  O  O291  1  0.62264503  0.11732743  0.78135400  1
  O  O292  1  0.62386741  0.37152757  0.03732068  1
  O  O293  1  0.62033301  0.37621866  0.27875967  1
  O  O294  1  0.61769052  0.37833524  0.55423004  1
  O  O295  1  0.61707778  0.37753491  0.78290308  1
  O  O296  1  0.62726442  0.61797338  0.04554800  1
  O  O297  1  0.62299901  0.61670683  0.28249603  1
  O  O298  1  0.61880515  0.63232231  0.55005608  1
  O  O299  1  0.62376224  0.62781406  0.79784906  1
  O  O300  1  0.62011062  0.87234174  0.02661056  1
  O  O301  1  0.62134139  0.87731011  0.29271313  1
  O  O302  1  0.61856600  0.87609464  0.55239181  1
  O  O303  1  0.61402805  0.87363507  0.79371630  1
  O  O304  1  0.87997213  0.12996721  0.05180547  1
  O  O305  1  0.86966217  0.12850311  0.28327384  1
  O  O306  1  0.87124744  0.12205594  0.53854536  1
  O  O307  1  0.87422986  0.12517740  0.77661018  1
  O  O308  1  0.88212828  0.37105227  0.05087250  1
  O  O309  1  0.88414601  0.37524942  0.28880286  1
  O  O310  1  0.87481818  0.38427555  0.53220367  1
  O  O311  1  0.87964949  0.37820260  0.78022418  1
  O  O312  1  0.88652209  0.62276783  0.03549074  1
  O  O313  1  0.87445577  0.62179935  0.29560031  1
  O  O314  1  0.86693114  0.62839375  0.53706881  1
  O  O315  1  0.87177293  0.62384700  0.78652078  1
  O  O316  1  0.88605272  0.87173692  0.04261057  1
  O  O317  1  0.87506619  0.87634393  0.27629985  1
  O  O318  1  0.87045797  0.86760743  0.53531770  1
  O  O319  1  0.88110392  0.86802868  0.78329932  1
