# generated using pymatgen
data_VFe(PbO3)2
_symmetry_space_group_name_H-M   'P 1'
_cell_length_a   15.38924405
_cell_length_b   15.39353874
_cell_length_c   18.49980637
_cell_angle_alpha   90.02608703
_cell_angle_beta   90.00386257
_cell_angle_gamma   90.00966661
_symmetry_Int_Tables_number   1
_chemical_formula_structural   VFe(PbO3)2
_chemical_formula_sum   'V32 Fe32 Pb64 O192'
_cell_volume   4382.50970517
_cell_formula_units_Z   32
loop_
 _symmetry_equiv_pos_site_id
 _symmetry_equiv_pos_as_xyz
  1  'x, y, z'
loop_
 _atom_site_type_symbol
 _atom_site_label
 _atom_site_symmetry_multiplicity
 _atom_site_fract_x
 _atom_site_fract_y
 _atom_site_fract_z
 _atom_site_occupancy
  V  V0  1  0.87450946  0.86967763  0.89285178  1
  V  V1  1  0.12466361  0.87764913  0.13975772  1
  V  V2  1  0.62659360  0.62251720  0.89407264  1
  V  V3  1  0.37390244  0.62417509  0.89047991  1
  V  V4  1  0.62477568  0.87610059  0.64215304  1
  V  V5  1  0.37220689  0.87514194  0.13911633  1
  V  V6  1  0.87366564  0.62306434  0.88809446  1
  V  V7  1  0.87102785  0.87823324  0.63971801  1
  V  V8  1  0.12953828  0.12529981  0.39218765  1
  V  V9  1  0.62264320  0.62365945  0.63590099  1
  V  V10  1  0.87711418  0.12264002  0.38761754  1
  V  V11  1  0.62413742  0.12325137  0.64579857  1
  V  V12  1  0.12538865  0.12877438  0.13905936  1
  V  V13  1  0.87802440  0.12261711  0.13568049  1
  V  V14  1  0.12458527  0.37951800  0.88734657  1
  V  V15  1  0.12180221  0.62270409  0.88652347  1
  V  V16  1  0.38372707  0.12382988  0.38822672  1
  V  V17  1  0.12512838  0.63177626  0.14401941  1
  V  V18  1  0.12426895  0.62364950  0.39098229  1
  V  V19  1  0.36853224  0.12371759  0.13388937  1
  V  V20  1  0.87882964  0.62673477  0.14487716  1
  V  V21  1  0.87100230  0.12417282  0.64361347  1
  V  V22  1  0.12528343  0.38466890  0.14389912  1
  V  V23  1  0.87405051  0.37736135  0.89054438  1
  V  V24  1  0.62322971  0.37772749  0.89758896  1
  V  V25  1  0.37858490  0.87493907  0.64268203  1
  V  V26  1  0.12512976  0.37293572  0.63451328  1
  V  V27  1  0.87638445  0.12368058  0.88987988  1
  V  V28  1  0.87742915  0.87592439  0.38826470  1
  V  V29  1  0.62415104  0.37416424  0.38310397  1
  V  V30  1  0.37536251  0.12404518  0.64734027  1
  V  V31  1  0.62916842  0.12573136  0.38320216  1
  Fe  Fe32  1  0.87042607  0.62852808  0.62785109  1
  Fe  Fe33  1  0.37494066  0.37940518  0.89344583  1
  Fe  Fe34  1  0.37638329  0.62503623  0.37737062  1
  Fe  Fe35  1  0.62568957  0.37231582  0.63454897  1
  Fe  Fe36  1  0.37867745  0.62590067  0.63161104  1
  Fe  Fe37  1  0.37269249  0.87906020  0.38406677  1
  Fe  Fe38  1  0.37359749  0.12801886  0.88262731  1
  Fe  Fe39  1  0.12488258  0.37340734  0.38676604  1
  Fe  Fe40  1  0.12554896  0.12543729  0.64867013  1
  Fe  Fe41  1  0.12468435  0.87701837  0.39600339  1
  Fe  Fe42  1  0.37377510  0.37009781  0.39178173  1
  Fe  Fe43  1  0.87432027  0.62541824  0.38815000  1
  Fe  Fe44  1  0.62429799  0.62412053  0.14508914  1
  Fe  Fe45  1  0.62768077  0.87628976  0.13252031  1
  Fe  Fe46  1  0.62592157  0.37255747  0.13199110  1
  Fe  Fe47  1  0.37056396  0.37247499  0.13016308  1
  Fe  Fe48  1  0.12071292  0.12765000  0.87681134  1
  Fe  Fe49  1  0.62101948  0.12532785  0.12481248  1
  Fe  Fe50  1  0.87528025  0.36976715  0.38446017  1
  Fe  Fe51  1  0.62561938  0.88013658  0.37918125  1
  Fe  Fe52  1  0.87085338  0.37319717  0.63185021  1
  Fe  Fe53  1  0.37903332  0.37332522  0.63176593  1
  Fe  Fe54  1  0.37457958  0.87295339  0.88318598  1
  Fe  Fe55  1  0.62444061  0.87106742  0.89526871  1
  Fe  Fe56  1  0.88040366  0.37371858  0.14347565  1
  Fe  Fe57  1  0.12441745  0.87008454  0.87958322  1
  Fe  Fe58  1  0.62791250  0.12696956  0.89787255  1
  Fe  Fe59  1  0.62637537  0.62790674  0.37263855  1
  Fe  Fe60  1  0.12489907  0.87668966  0.63626682  1
  Fe  Fe61  1  0.88183417  0.87567284  0.13299660  1
  Fe  Fe62  1  0.12741832  0.62492121  0.62903447  1
  Fe  Fe63  1  0.36907170  0.62509931  0.14751659  1
  Pb  Pb64  1  -0.00065162  -0.00340253  -0.00472814  1
  Pb  Pb65  1  0.00965119  -0.00577493  0.25324738  1
  Pb  Pb66  1  0.00993192  0.00382726  0.51113763  1
  Pb  Pb67  1  0.00709147  -0.00297033  0.75251449  1
  Pb  Pb68  1  -0.00518696  0.25765404  0.00129746  1
  Pb  Pb69  1  0.00388754  0.25580480  0.25662852  1
  Pb  Pb70  1  -0.00295670  0.25008358  0.50127011  1
  Pb  Pb71  1  0.00308459  0.25002292  0.74921315  1
  Pb  Pb72  1  -0.00617283  0.49813770  0.00293684  1
  Pb  Pb73  1  -0.00928544  0.49960967  0.26271193  1
  Pb  Pb74  1  -0.00858377  0.49677672  0.49629020  1
  Pb  Pb75  1  -0.00419441  0.50365785  0.73585230  1
  Pb  Pb76  1  -0.00460998  0.75253219  0.00000599  1
  Pb  Pb77  1  -0.00115369  0.74628602  0.25849180  1
  Pb  Pb78  1  0.00790939  0.74214522  0.50413025  1
  Pb  Pb79  1  0.00419023  0.74973129  0.74124512  1
  Pb  Pb80  1  0.24506763  0.00115638  -0.01721295  1
  Pb  Pb81  1  0.24856191  -0.00722710  0.25502317  1
  Pb  Pb82  1  0.24121068  -0.00046135  0.50802577  1
  Pb  Pb83  1  0.24887071  -0.00526763  0.75385276  1
  Pb  Pb84  1  0.25222766  0.25298989  -0.00632987  1
  Pb  Pb85  1  0.25054183  0.25881311  0.25611358  1
  Pb  Pb86  1  0.25094549  0.25204814  0.50334984  1
  Pb  Pb87  1  0.26335453  0.25283935  0.75526660  1
  Pb  Pb88  1  0.26043066  0.50574079  0.00832548  1
  Pb  Pb89  1  0.26299786  0.49443648  0.25835801  1
  Pb  Pb90  1  0.25469430  0.50527598  0.49610112  1
  Pb  Pb91  1  0.25641802  0.49857831  0.74135201  1
  Pb  Pb92  1  0.25274433  0.74764450  -0.00253151  1
  Pb  Pb93  1  0.25415272  0.75865724  0.25947994  1
  Pb  Pb94  1  0.25289655  0.74683374  0.49559388  1
  Pb  Pb95  1  0.24745997  0.75226314  0.74398871  1
  Pb  Pb96  1  0.50134890  0.00048820  -0.00900353  1
  Pb  Pb97  1  0.50169679  -0.00658148  0.24294504  1
  Pb  Pb98  1  0.50156680  -0.00400993  0.49700338  1
  Pb  Pb99  1  0.49575252  0.00073172  0.76190521  1
  Pb  Pb100  1  0.50050878  0.25035386  -0.00228680  1
  Pb  Pb101  1  0.49756239  0.25442547  0.23981483  1
  Pb  Pb102  1  0.50483486  0.26015529  0.50601851  1
  Pb  Pb103  1  0.49830135  0.24642656  0.75658599  1
  Pb  Pb104  1  0.50000257  0.51331067  0.01285563  1
  Pb  Pb105  1  0.49523212  0.49789506  0.24178956  1
  Pb  Pb106  1  0.49056359  0.50541881  0.49231965  1
  Pb  Pb107  1  0.49293967  0.48995289  0.74735107  1
  Pb  Pb108  1  0.50392601  0.74860884  0.00579064  1
  Pb  Pb109  1  0.50270922  0.74445968  0.24671662  1
  Pb  Pb110  1  0.49832824  0.74765564  0.48405614  1
  Pb  Pb111  1  0.50262946  0.75855303  0.75510026  1
  Pb  Pb112  1  0.74258802  -0.00358312  0.00360208  1
  Pb  Pb113  1  0.74550234  -0.00474025  0.24060563  1
  Pb  Pb114  1  0.75192809  0.00162545  0.49669763  1
  Pb  Pb115  1  0.73643691  0.00007095  0.76308827  1
  Pb  Pb116  1  0.75087371  0.25944780  0.00664170  1
  Pb  Pb117  1  0.75228162  0.25204972  0.24222930  1
  Pb  Pb118  1  0.74721222  0.25869321  0.50197490  1
  Pb  Pb119  1  0.74318262  0.24577985  0.75573524  1
  Pb  Pb120  1  0.74444131  0.49866291  0.01051705  1
  Pb  Pb121  1  0.74913455  0.50038879  0.24711431  1
  Pb  Pb122  1  0.75390504  0.49940489  0.49212367  1
  Pb  Pb123  1  0.75139063  0.49849081  0.74186329  1
  Pb  Pb124  1  0.73976600  0.74661948  0.01047945  1
  Pb  Pb125  1  0.74240635  0.75392928  0.24764223  1
  Pb  Pb126  1  0.74761416  0.74501891  0.49145669  1
  Pb  Pb127  1  0.74311721  0.75484682  0.75184433  1
  O  O128  1  0.12602587  0.00104015  0.16453053  1
  O  O129  1  0.12078616  0.00923338  0.42049317  1
  O  O130  1  0.12456094  -0.00152664  0.67002944  1
  O  O131  1  0.12008716  -0.00043898  0.90202854  1
  O  O132  1  0.12765493  0.24265391  0.16192326  1
  O  O133  1  0.12050025  0.24003638  0.41804860  1
  O  O134  1  0.12223605  0.25749490  0.66539315  1
  O  O135  1  0.11845676  0.26221772  0.90828252  1
  O  O136  1  0.12343569  0.49834174  0.16307393  1
  O  O137  1  0.12363598  0.50446774  0.41001076  1
  O  O138  1  0.12427782  0.49214659  0.65753352  1
  O  O139  1  0.12041528  0.50106076  0.91756502  1
  O  O140  1  0.12442483  0.74927399  0.16559015  1
  O  O141  1  0.12389721  0.74667821  0.41419204  1
  O  O142  1  0.12502884  0.75143655  0.65980756  1
  O  O143  1  0.12275811  0.74123551  0.91288378  1
  O  O144  1  0.36800225  -0.00066045  0.16030822  1
  O  O145  1  0.37161562  0.01174444  0.41955100  1
  O  O146  1  0.37989780  0.00056326  0.67068042  1
  O  O147  1  0.37275908  0.00057029  0.90844994  1
  O  O148  1  0.36656961  0.24067703  0.15705144  1
  O  O149  1  0.37346422  0.23641870  0.41856207  1
  O  O150  1  0.37777782  0.24529550  0.66493900  1
  O  O151  1  0.37289641  0.25403035  0.91540700  1
  O  O152  1  0.36781155  0.49503312  0.16503011  1
  O  O153  1  0.37473260  0.49837863  0.40782965  1
  O  O154  1  0.37834409  0.49920787  0.66176054  1
  O  O155  1  0.37459511  0.50814353  0.91874061  1
  O  O156  1  0.36711868  0.75928555  0.16413877  1
  O  O157  1  0.37372598  0.75096164  0.40627026  1
  O  O158  1  0.38041363  0.75755702  0.65924493  1
  O  O159  1  0.37517035  0.74006518  0.91579325  1
  O  O160  1  0.62423163  0.00349568  0.15718312  1
  O  O161  1  0.62698711  0.00703247  0.41421192  1
  O  O162  1  0.62502566  -0.00052684  0.67399619  1
  O  O163  1  0.63060324  -0.00181675  0.91401397  1
  O  O164  1  0.62544912  0.24493920  0.16043555  1
  O  O165  1  0.62560588  0.24293507  0.41340332  1
  O  O166  1  0.62734524  0.24304927  0.66924993  1
  O  O167  1  0.63090289  0.26025974  0.91494288  1
  O  O168  1  0.62785541  0.49660264  0.16421816  1
  O  O169  1  0.62682119  0.48927865  0.39611131  1
  O  O170  1  0.62514915  0.50730837  0.65743719  1
  O  O171  1  0.62875272  0.50033176  0.92356364  1
  O  O172  1  0.62683516  0.75338790  0.16111724  1
  O  O173  1  0.62678199  0.75479941  0.40378374  1
  O  O174  1  0.62428466  0.75220109  0.66539729  1
  O  O175  1  0.62706764  0.74235404  0.92099863  1
  O  O176  1  0.88483980  0.00724814  0.16157276  1
  O  O177  1  0.87507111  0.00392813  0.41685471  1
  O  O178  1  0.86935596  -0.00284469  0.67041549  1
  O  O179  1  0.87902293  0.00163102  0.90971107  1
  O  O180  1  0.88467626  0.23869295  0.16364793  1
  O  O181  1  0.87440833  0.23924029  0.41185935  1
  O  O182  1  0.87019267  0.24137010  0.66382971  1
  O  O183  1  0.87791566  0.25273341  0.91456679  1
  O  O184  1  0.88504419  0.50553629  0.16685511  1
  O  O185  1  0.87300531  0.49636636  0.40962346  1
  O  O186  1  0.87010930  0.50191905  0.65824244  1
  O  O187  1  0.87554912  0.50149517  0.91812300  1
  O  O188  1  0.88487283  0.74494015  0.16515131  1
  O  O189  1  0.87395600  0.75979973  0.40818545  1
  O  O190  1  0.86936551  0.75933677  0.66057347  1
  O  O191  1  0.87656323  0.74964094  0.91462762  1
  O  O192  1  0.00904944  0.12242184  0.16515554  1
  O  O193  1  -0.00409081  0.12313270  0.41368026  1
  O  O194  1  -0.01264443  0.12165184  0.66606295  1
  O  O195  1  -0.00588100  0.12917751  0.91371413  1
  O  O196  1  0.01009315  0.36851871  0.16838527  1
  O  O197  1  0.00025135  0.36971268  0.41618445  1
  O  O198  1  0.00189674  0.37407695  0.65823540  1
  O  O199  1  0.00022149  0.38094052  0.91694581  1
  O  O200  1  0.00734728  0.62445546  0.17286474  1
  O  O201  1  0.00377493  0.62672962  0.41478855  1
  O  O202  1  -0.00205018  0.62695237  0.65649860  1
  O  O203  1  -0.00321695  0.62368690  0.91466447  1
  O  O204  1  0.00607446  0.87564760  0.16856442  1
  O  O205  1  -0.00858364  0.88014064  0.41719976  1
  O  O206  1  -0.01072746  0.87759101  0.65948918  1
  O  O207  1  -0.00432202  0.87190645  0.91285820  1
  O  O208  1  0.24741337  0.11970599  0.16433734  1
  O  O209  1  0.24503803  0.12486458  0.41201106  1
  O  O210  1  0.25800946  0.12381280  0.66643131  1
  O  O211  1  0.24400428  0.13050127  0.90590231  1
  O  O212  1  0.24217183  0.37009169  0.16635347  1
  O  O213  1  0.24758140  0.36756290  0.41893241  1
  O  O214  1  0.24521628  0.37258831  0.65775564  1
  O  O215  1  0.23938253  0.38115980  0.90949498  1
  O  O216  1  0.23718688  0.62405077  0.17041310  1
  O  O217  1  0.24503671  0.62513668  0.40890924  1
  O  O218  1  0.25299151  0.62580832  0.66129245  1
  O  O219  1  0.25155226  0.62339546  0.91092071  1
  O  O220  1  0.24734452  0.87680310  0.16849515  1
  O  O221  1  0.25039872  0.88070224  0.42037553  1
  O  O222  1  0.25938556  0.87897949  0.65927830  1
  O  O223  1  0.24840926  0.86870009  0.91132766  1
  O  O224  1  0.48720436  0.12212884  0.15236363  1
  O  O225  1  0.49949860  0.12198150  0.40688266  1
  O  O226  1  0.50030837  0.12304214  0.67074852  1
  O  O227  1  0.49955109  0.12925975  0.91366710  1
  O  O228  1  0.49650915  0.37001883  0.15575132  1
  O  O229  1  0.50761993  0.36487418  0.40987098  1
  O  O230  1  0.50317189  0.37172574  0.66651148  1
  O  O231  1  0.50715145  0.38045991  0.91448694  1
  O  O232  1  0.49634375  0.62616605  0.16270529  1
  O  O233  1  0.50355573  0.62373993  0.40312873  1
  O  O234  1  0.50800166  0.62948917  0.66396858  1
  O  O235  1  0.49801461  0.62251172  0.91780002  1
  O  O236  1  0.49008609  0.87804327  0.15467934  1
  O  O237  1  0.49912535  0.88337409  0.41185688  1
  O  O238  1  0.50093653  0.87847793  0.67051060  1
  O  O239  1  0.49756028  0.86989310  0.91659919  1
  O  O240  1  0.76095396  0.12385019  0.15108367  1
  O  O241  1  0.75402024  0.12187517  0.41000892  1
  O  O242  1  0.75187862  0.12021064  0.67275906  1
  O  O243  1  0.76389767  0.12776520  0.91869855  1
  O  O244  1  0.75450114  0.37123725  0.16308569  1
  O  O245  1  0.74288912  0.36528189  0.40786517  1
  O  O246  1  0.74809800  0.37380209  0.66817827  1
  O  O247  1  0.75281132  0.37911444  0.91862338  1
  O  O248  1  0.76269018  0.62487171  0.16069988  1
  O  O249  1  0.74683865  0.62538670  0.40950479  1
  O  O250  1  0.74098453  0.63041993  0.66216477  1
  O  O251  1  0.75291550  0.62405191  0.91845916  1
  O  O252  1  0.75688735  0.87792334  0.15739979  1
  O  O253  1  0.75776300  0.88268505  0.41191360  1
  O  O254  1  0.74885693  0.87691925  0.66992554  1
  O  O255  1  0.75989784  0.87336245  0.91697138  1
  O  O256  1  0.12395278  0.12708717  0.04805771  1
  O  O257  1  0.12558916  0.12339829  0.30071098  1
  O  O258  1  0.12081789  0.12035656  0.54770120  1
  O  O259  1  0.11441823  0.13197682  0.77564435  1
  O  O260  1  0.12474682  0.37884153  0.05268630  1
  O  O261  1  0.12649665  0.36350980  0.28643170  1
  O  O262  1  0.12420821  0.36826181  0.54342061  1
  O  O263  1  0.11995882  0.38305315  0.79658510  1
  O  O264  1  0.12300515  0.62807676  0.05301112  1
  O  O265  1  0.12082200  0.62771879  0.29962439  1
  O  O266  1  0.12727378  0.62851526  0.52945361  1
  O  O267  1  0.12253681  0.62074128  0.79545938  1
  O  O268  1  0.12499428  0.87474790  0.04874382  1
  O  O269  1  0.12683296  0.88439770  0.29499375  1
  O  O270  1  0.12155727  0.88609782  0.53452599  1
  O  O271  1  0.12416863  0.86700300  0.77912093  1
  O  O272  1  0.36185520  0.12319510  0.04315966  1
  O  O273  1  0.37691700  0.12322521  0.29713202  1
  O  O274  1  0.37905157  0.12175586  0.55650147  1
  O  O275  1  0.37910901  0.13354159  0.78169854  1
  O  O276  1  0.36255793  0.37968105  0.02961841  1
  O  O277  1  0.36794652  0.36450494  0.29023323  1
  O  O278  1  0.38415091  0.36847193  0.53095756  1
  O  O279  1  0.37388428  0.37950683  0.79195541  1
  O  O280  1  0.36537321  0.62220564  0.04539921  1
  O  O281  1  0.36930264  0.62445767  0.27563696  1
  O  O282  1  0.38107652  0.61987293  0.53164170  1
  O  O283  1  0.37676362  0.62348039  0.79962023  1
  O  O284  1  0.36408435  0.87318430  0.04841143  1
  O  O285  1  0.36755154  0.88327261  0.28360147  1
  O  O286  1  0.38571207  0.88325418  0.55203545  1
  O  O287  1  0.37860776  0.87181425  0.78285386  1
  O  O288  1  0.62725992  0.12770564  0.02408826  1
  O  O289  1  0.62655808  0.12499939  0.29207127  1
  O  O290  1  0.62598808  0.12192808  0.55481466  1
  O  O291  1  0.63559298  0.12822024  0.79577595  1
  O  O292  1  0.63494024  0.37581371  0.03145946  1
  O  O293  1  0.62328703  0.36125755  0.29212295  1
  O  O294  1  0.62615893  0.36413872  0.53446373  1
  O  O295  1  0.62858223  0.38228827  0.80641912  1
  O  O296  1  0.62637630  0.62361330  0.04165985  1
  O  O297  1  0.63165875  0.63049795  0.27107572  1
  O  O298  1  0.62383741  0.62768630  0.54478282  1
  O  O299  1  0.62475956  0.62115700  0.80326142  1
  O  O300  1  0.62975903  0.87047750  0.03031874  1
  O  O301  1  0.62762128  0.88573950  0.27867712  1
  O  O302  1  0.62442103  0.87944011  0.55140688  1
  O  O303  1  0.62839600  0.86483009  0.79343345  1
  O  O304  1  0.88700410  0.12410615  0.04449056  1
  O  O305  1  0.87723146  0.12000658  0.29683706  1
  O  O306  1  0.86714044  0.12053497  0.55248300  1
  O  O307  1  0.87441198  0.12669618  0.79885559  1
  O  O308  1  0.88601406  0.37320071  0.04254707  1
  O  O309  1  0.88309642  0.36839177  0.28276945  1
  O  O310  1  0.86628680  0.36909855  0.53166169  1
  O  O311  1  0.87404685  0.37845998  0.79957031  1
  O  O312  1  0.88599920  0.62603109  0.05352434  1
  O  O313  1  0.88652620  0.62532120  0.28746896  1
  O  O314  1  0.86784377  0.62837645  0.52757029  1
  O  O315  1  0.87302863  0.62429087  0.79719031  1
  O  O316  1  0.88891490  0.87536951  0.03333547  1
  O  O317  1  0.87980635  0.88128412  0.29686634  1
  O  O318  1  0.86522990  0.88319814  0.54917519  1
  O  O319  1  0.87333212  0.87014456  0.80181114  1
