# generated using pymatgen
data_VFe(PbO3)2
_symmetry_space_group_name_H-M   'P 1'
_cell_length_a   15.38568669
_cell_length_b   15.38104645
_cell_length_c   18.45202648
_cell_angle_alpha   90.02293474
_cell_angle_beta   90.02680371
_cell_angle_gamma   90.00255001
_symmetry_Int_Tables_number   1
_chemical_formula_structural   VFe(PbO3)2
_chemical_formula_sum   'V32 Fe32 Pb64 O192'
_cell_volume   4366.63362097
_cell_formula_units_Z   32
loop_
 _symmetry_equiv_pos_site_id
 _symmetry_equiv_pos_as_xyz
  1  'x, y, z'
loop_
 _atom_site_type_symbol
 _atom_site_label
 _atom_site_symmetry_multiplicity
 _atom_site_fract_x
 _atom_site_fract_y
 _atom_site_fract_z
 _atom_site_occupancy
  V  V0  1  0.37402513  0.62550259  0.89040762  1
  V  V1  1  0.12541604  0.37711397  0.14773333  1
  V  V2  1  0.87688868  0.12457756  0.88664229  1
  V  V3  1  0.12468992  0.12626758  0.14012334  1
  V  V4  1  0.87533034  0.37541069  0.88721903  1
  V  V5  1  0.37283106  0.87477600  0.63693751  1
  V  V6  1  0.12373482  0.62569041  0.89241771  1
  V  V7  1  0.37486174  0.37333974  0.39419242  1
  V  V8  1  0.37622065  0.37359995  0.14030904  1
  V  V9  1  0.13417790  0.12592006  0.39336065  1
  V  V10  1  0.88432412  0.12561168  0.39536326  1
  V  V11  1  0.62676345  0.87475237  0.14183744  1
  V  V12  1  0.62294211  0.61995280  0.38721205  1
  V  V13  1  0.62644631  0.62588687  0.14397984  1
  V  V14  1  0.62480112  0.12213788  0.89026755  1
  V  V15  1  0.62789754  0.12390219  0.39136296  1
  V  V16  1  0.62213366  0.62617744  0.63224388  1
  V  V17  1  0.12436167  0.87559046  0.89189821  1
  V  V18  1  0.37554916  0.12929044  0.63999720  1
  V  V19  1  0.87396613  0.37589316  0.63164340  1
  V  V20  1  0.37435911  0.62328194  0.14567638  1
  V  V21  1  0.37657860  0.12726560  0.13977907  1
  V  V22  1  0.62515045  0.37723436  0.14516001  1
  V  V23  1  0.12662858  0.62410888  0.38278717  1
  V  V24  1  0.38138320  0.12466109  0.39017386  1
  V  V25  1  0.87529225  0.87375761  0.88950516  1
  V  V26  1  0.87569143  0.62482629  0.14560512  1
  V  V27  1  0.87475912  0.37408813  0.14739759  1
  V  V28  1  0.12676160  0.62720255  0.62998599  1
  V  V29  1  0.62383593  0.87312307  0.39023613  1
  V  V30  1  0.87499070  0.12717559  0.14323149  1
  V  V31  1  0.37346890  0.37321113  0.88764153  1
  Fe  Fe32  1  0.37698640  0.88033331  0.38121925  1
  Fe  Fe33  1  0.62760238  0.62466890  0.88478703  1
  Fe  Fe34  1  0.62546839  0.37454470  0.88289435  1
  Fe  Fe35  1  0.12444244  0.37571529  0.88328251  1
  Fe  Fe36  1  0.37746176  0.62676468  0.39409322  1
  Fe  Fe37  1  0.12343365  0.12455606  0.88481844  1
  Fe  Fe38  1  0.87292314  0.87661137  0.14282192  1
  Fe  Fe39  1  0.87356112  0.12628329  0.62703427  1
  Fe  Fe40  1  0.12597646  0.12421137  0.63038698  1
  Fe  Fe41  1  0.62279714  0.87493308  0.63749730  1
  Fe  Fe42  1  0.12587377  0.87372147  0.62701321  1
  Fe  Fe43  1  0.37802432  0.87466720  0.14259576  1
  Fe  Fe44  1  0.62408529  0.37605828  0.63323804  1
  Fe  Fe45  1  0.87412007  0.62471081  0.39373371  1
  Fe  Fe46  1  0.37424932  0.62620970  0.62475310  1
  Fe  Fe47  1  0.87528193  0.87357616  0.62560874  1
  Fe  Fe48  1  0.37382907  0.87159082  0.88771644  1
  Fe  Fe49  1  0.12373416  0.62291691  0.14196539  1
  Fe  Fe50  1  0.37434481  0.37870766  0.63143137  1
  Fe  Fe51  1  0.62501701  0.37149944  0.39063474  1
  Fe  Fe52  1  0.12524681  0.37441209  0.38933884  1
  Fe  Fe53  1  0.87786943  0.62485949  0.88360326  1
  Fe  Fe54  1  0.87308437  0.87880235  0.39079635  1
  Fe  Fe55  1  0.12408693  0.87397356  0.14429678  1
  Fe  Fe56  1  0.87428379  0.62399343  0.62511875  1
  Fe  Fe57  1  0.37305238  0.12322442  0.88222286  1
  Fe  Fe58  1  0.12433023  0.37705863  0.63091660  1
  Fe  Fe59  1  0.62694225  0.12584428  0.13747209  1
  Fe  Fe60  1  0.12656371  0.87623154  0.38673116  1
  Fe  Fe61  1  0.62529155  0.87228029  0.88057069  1
  Fe  Fe62  1  0.87363919  0.37128688  0.38500929  1
  Fe  Fe63  1  0.62358111  0.12341869  0.63360916  1
  Pb  Pb64  1  -0.00109818  -0.01079135  0.00724071  1
  Pb  Pb65  1  0.00232918  -0.00832358  0.25625338  1
  Pb  Pb66  1  0.00100159  -0.00833086  0.50295848  1
  Pb  Pb67  1  0.00283509  0.00246644  0.73398439  1
  Pb  Pb68  1  0.00076359  0.24936420  -0.00371531  1
  Pb  Pb69  1  0.00291316  0.25674764  0.25691168  1
  Pb  Pb70  1  0.01065257  0.25070204  0.50422848  1
  Pb  Pb71  1  0.00833409  0.24840673  0.74241260  1
  Pb  Pb72  1  0.00397204  0.50453374  0.00125840  1
  Pb  Pb73  1  -0.00971752  0.49941710  0.26046491  1
  Pb  Pb74  1  -0.00048656  0.49701233  0.49291796  1
  Pb  Pb75  1  -0.00451431  0.50458708  0.74315328  1
  Pb  Pb76  1  0.00445220  0.75419087  0.00896865  1
  Pb  Pb77  1  0.00016312  0.75800265  0.25562952  1
  Pb  Pb78  1  -0.00395884  0.75575504  0.49243521  1
  Pb  Pb79  1  -0.00690307  0.74821517  0.73785652  1
  Pb  Pb80  1  0.25380275  -0.00349162  -0.00032829  1
  Pb  Pb81  1  0.25057275  -0.00826927  0.25091676  1
  Pb  Pb82  1  0.24455997  -0.00336032  0.50093601  1
  Pb  Pb83  1  0.24938153  0.00653301  0.74974494  1
  Pb  Pb84  1  0.24703402  0.24662432  -0.00480478  1
  Pb  Pb85  1  0.24738971  0.25333586  0.25474588  1
  Pb  Pb86  1  0.24610464  0.25318355  0.50732204  1
  Pb  Pb87  1  0.23943568  0.25093335  0.74778828  1
  Pb  Pb88  1  0.24510357  0.50532211  0.00259453  1
  Pb  Pb89  1  0.25011390  0.49846552  0.25748326  1
  Pb  Pb90  1  0.25469412  0.49975122  0.49988193  1
  Pb  Pb91  1  0.24799449  0.49655460  0.74028580  1
  Pb  Pb92  1  0.23987859  0.75354662  0.00963190  1
  Pb  Pb93  1  0.24828181  0.75619704  0.25259221  1
  Pb  Pb94  1  0.25396781  0.75333753  0.49003071  1
  Pb  Pb95  1  0.25540923  0.75348546  0.74569191  1
  Pb  Pb96  1  0.49324221  -0.00893660  -0.00110189  1
  Pb  Pb97  1  0.49878388  -0.00326631  0.25027469  1
  Pb  Pb98  1  0.51202989  -0.00146660  0.50725495  1
  Pb  Pb99  1  0.49353038  -0.00399257  0.75100493  1
  Pb  Pb100  1  0.50693865  0.24231786  0.00044958  1
  Pb  Pb101  1  0.50756091  0.25589724  0.25453925  1
  Pb  Pb102  1  0.50389451  0.25358639  0.50687430  1
  Pb  Pb103  1  0.50371448  0.25735390  0.74609344  1
  Pb  Pb104  1  0.50155766  0.49891049  -0.00354829  1
  Pb  Pb105  1  0.49668431  0.50306294  0.25793761  1
  Pb  Pb106  1  0.49776469  0.48870902  0.50534046  1
  Pb  Pb107  1  0.50413154  0.50216233  0.74340652  1
  Pb  Pb108  1  0.49793913  0.75553238  -0.00005427  1
  Pb  Pb109  1  0.49302611  0.74370120  0.25741872  1
  Pb  Pb110  1  0.50101129  0.75580194  0.49971525  1
  Pb  Pb111  1  0.50081050  0.75513700  0.75032497  1
  Pb  Pb112  1  0.75458904  -0.00343590  0.00017060  1
  Pb  Pb113  1  0.75700983  -0.00240090  0.25572204  1
  Pb  Pb114  1  0.75118191  0.00415238  0.50657150  1
  Pb  Pb115  1  0.75031936  -0.00299225  0.73667643  1
  Pb  Pb116  1  0.74652475  0.24506826  0.00107421  1
  Pb  Pb117  1  0.74757175  0.25866820  0.25731463  1
  Pb  Pb118  1  0.74923029  0.24424777  0.50222353  1
  Pb  Pb119  1  0.74542678  0.25279688  0.74146718  1
  Pb  Pb120  1  0.74951990  0.50088582  -0.00362078  1
  Pb  Pb121  1  0.75536345  0.50050532  0.25997495  1
  Pb  Pb122  1  0.75440838  0.49704093  0.49628344  1
  Pb  Pb123  1  0.74774612  0.51158306  0.74705560  1
  Pb  Pb124  1  0.74955342  0.74883961  -0.00363625  1
  Pb  Pb125  1  0.75940973  0.74725430  0.25901180  1
  Pb  Pb126  1  0.75736593  0.75524365  0.50085175  1
  Pb  Pb127  1  0.74681770  0.74912514  0.74231644  1
  O  O128  1  0.12490729  0.00891965  0.16522188  1
  O  O129  1  0.12518136  0.00930242  0.41308787  1
  O  O130  1  0.12776560  -0.00145751  0.65714680  1
  O  O131  1  0.12293469  -0.00783224  0.91316370  1
  O  O132  1  0.12586414  0.24889870  0.17132954  1
  O  O133  1  0.12637654  0.24381044  0.41526322  1
  O  O134  1  0.12705907  0.25049599  0.65996217  1
  O  O135  1  0.12427622  0.25213401  0.91712548  1
  O  O136  1  0.12638852  0.49675384  0.17125689  1
  O  O137  1  0.12783988  0.50424938  0.40902397  1
  O  O138  1  0.12447560  0.50773987  0.65649566  1
  O  O139  1  0.12423746  0.50127804  0.91760808  1
  O  O140  1  0.12504820  0.74619960  0.17079736  1
  O  O141  1  0.12714713  0.74369999  0.40370820  1
  O  O142  1  0.12564816  0.74405825  0.65738571  1
  O  O143  1  0.12212626  0.75240054  0.92120857  1
  O  O144  1  0.37715880  0.00986768  0.16201994  1
  O  O145  1  0.37493243  0.00973148  0.41405241  1
  O  O146  1  0.37414378  -0.00578297  0.66184842  1
  O  O147  1  0.37379453  -0.00129472  0.91725240  1
  O  O148  1  0.37554293  0.25012548  0.16673587  1
  O  O149  1  0.37513015  0.24445237  0.41721279  1
  O  O150  1  0.37469820  0.24553403  0.65682856  1
  O  O151  1  0.37442679  0.25593362  0.90869199  1
  O  O152  1  0.37781862  0.49924964  0.16967716  1
  O  O153  1  0.37643050  0.49175137  0.41055300  1
  O  O154  1  0.37448619  0.50510737  0.65992486  1
  O  O155  1  0.37234355  0.50289964  0.91644442  1
  O  O156  1  0.37854286  0.74220517  0.16575993  1
  O  O157  1  0.37763268  0.75514758  0.40936718  1
  O  O158  1  0.37238133  0.75274657  0.65888747  1
  O  O159  1  0.37097753  0.74116066  0.91735884  1
  O  O160  1  0.62664108  -0.00528317  0.16234393  1
  O  O161  1  0.62025345  0.00341720  0.41404619  1
  O  O162  1  0.62028580  0.00017013  0.66465292  1
  O  O163  1  0.62852248  0.00487689  0.91010406  1
  O  O164  1  0.62550556  0.25357638  0.16859433  1
  O  O165  1  0.62028163  0.24061581  0.41424876  1
  O  O166  1  0.62223585  0.24960106  0.66135763  1
  O  O167  1  0.62680075  0.24701606  0.91573817  1
  O  O168  1  0.62493663  0.50116714  0.17040159  1
  O  O169  1  0.62178439  0.50378715  0.40478695  1
  O  O170  1  0.62260665  0.50659648  0.65717030  1
  O  O171  1  0.62489645  0.49819864  0.91789139  1
  O  O172  1  0.62609859  0.74980481  0.16919438  1
  O  O173  1  0.62291513  0.75573562  0.40871497  1
  O  O174  1  0.62445674  0.74329709  0.65952602  1
  O  O175  1  0.62788988  0.74923182  0.91711890  1
  O  O176  1  0.87455952  0.00924581  0.16819546  1
  O  O177  1  0.87064760  0.00878009  0.41541417  1
  O  O178  1  0.87505846  -0.00038626  0.65462546  1
  O  O179  1  0.87598551  -0.00202468  0.91596345  1
  O  O180  1  0.87595116  0.24739569  0.16904865  1
  O  O181  1  0.86945433  0.24211893  0.41398401  1
  O  O182  1  0.87329836  0.25928012  0.65651332  1
  O  O183  1  0.87548824  0.25139552  0.91415237  1
  O  O184  1  0.87262388  0.50164315  0.17023252  1
  O  O185  1  0.87251711  0.49758556  0.41347735  1
  O  O186  1  0.87630927  0.49632726  0.65752930  1
  O  O187  1  0.87641107  0.49257136  0.91388102  1
  O  O188  1  0.87203986  0.74372010  0.16615004  1
  O  O189  1  0.87066597  0.75160396  0.40946946  1
  O  O190  1  0.87485741  0.74703942  0.65547930  1
  O  O191  1  0.87753188  0.75725929  0.91147974  1
  O  O192  1  -0.00259773  0.12911794  0.16677168  1
  O  O193  1  0.00097483  0.12663123  0.41070849  1
  O  O194  1  -0.00149642  0.12840940  0.65502478  1
  O  O195  1  -0.00436774  0.12457686  0.91648581  1
  O  O196  1  -0.00046344  0.37430744  0.17147436  1
  O  O197  1  -0.00076001  0.37083550  0.41157125  1
  O  O198  1  -0.00632496  0.37669869  0.65623571  1
  O  O199  1  -0.00631111  0.37390723  0.91492888  1
  O  O200  1  -0.00804767  0.62168600  0.16701245  1
  O  O201  1  0.00860505  0.62355339  0.40738661  1
  O  O202  1  0.00587612  0.62444716  0.65506477  1
  O  O203  1  0.00181710  0.62468029  0.91927727  1
  O  O204  1  -0.00288187  0.87640971  0.17018230  1
  O  O205  1  0.00069752  0.87964735  0.40938227  1
  O  O206  1  0.00140463  0.87213145  0.65660093  1
  O  O207  1  -0.00062244  0.87532340  0.91806635  1
  O  O208  1  0.25442319  0.12938789  0.16348153  1
  O  O209  1  0.25211082  0.12701393  0.41241118  1
  O  O210  1  0.25714949  0.12089186  0.66175267  1
  O  O211  1  0.24860335  0.12398713  0.91802680  1
  O  O212  1  0.25352902  0.37483272  0.17005255  1
  O  O213  1  0.25661554  0.37008205  0.41384645  1
  O  O214  1  0.24985585  0.37750004  0.65939183  1
  O  O215  1  0.25656671  0.37826263  0.91483887  1
  O  O216  1  0.25814813  0.62111920  0.16717141  1
  O  O217  1  0.24500464  0.62298905  0.40905153  1
  O  O218  1  0.24410043  0.62639651  0.65664113  1
  O  O219  1  0.25033233  0.62437243  0.92044455  1
  O  O220  1  0.25220668  0.87614075  0.16488164  1
  O  O221  1  0.25248868  0.88125799  0.40911887  1
  O  O222  1  0.25424710  0.87248631  0.66064149  1
  O  O223  1  0.24218241  0.87137095  0.91475198  1
  O  O224  1  0.49523942  0.12885565  0.16375347  1
  O  O225  1  0.49746786  0.12552002  0.41232670  1
  O  O226  1  0.49195052  0.12099804  0.66434585  1
  O  O227  1  0.50596257  0.12653476  0.91099054  1
  O  O228  1  0.49866058  0.37493174  0.16908299  1
  O  O229  1  0.49442535  0.36950166  0.41474885  1
  O  O230  1  0.49800038  0.37657083  0.66386549  1
  O  O231  1  0.49187251  0.37785146  0.91371728  1
  O  O232  1  0.49983754  0.62235515  0.17029105  1
  O  O233  1  0.50966410  0.62906797  0.41488396  1
  O  O234  1  0.50366471  0.62722005  0.65468392  1
  O  O235  1  0.49183872  0.62335235  0.91231847  1
  O  O236  1  0.50910343  0.87378503  0.16669834  1
  O  O237  1  0.50459227  0.88039396  0.41342121  1
  O  O238  1  0.49099083  0.87129048  0.66281455  1
  O  O239  1  0.50130665  0.87264885  0.91578070  1
  O  O240  1  0.75646106  0.12803652  0.16702893  1
  O  O241  1  0.74275186  0.12311799  0.41054773  1
  O  O242  1  0.75001888  0.12693320  0.66209952  1
  O  O243  1  0.75110431  0.12608052  0.91706559  1
  O  O244  1  0.75031382  0.37464989  0.16949724  1
  O  O245  1  0.74886073  0.37101597  0.41432455  1
  O  O246  1  0.75493802  0.37840161  0.65614904  1
  O  O247  1  0.75671305  0.37300568  0.91262542  1
  O  O248  1  0.75136822  0.62295214  0.17035444  1
  O  O249  1  0.73734585  0.62823317  0.41354790  1
  O  O250  1  0.74433186  0.62291440  0.65523325  1
  O  O251  1  0.75501323  0.62365076  0.91826963  1
  O  O252  1  0.74394770  0.87371181  0.16939572  1
  O  O253  1  0.73980790  0.88179863  0.41325498  1
  O  O254  1  0.74997793  0.87272934  0.65662932  1
  O  O255  1  0.75656094  0.87724158  0.91063527  1
  O  O256  1  0.12411700  0.12854878  0.04869681  1
  O  O257  1  0.13055394  0.12773996  0.30162066  1
  O  O258  1  0.13102282  0.13069941  0.52932410  1
  O  O259  1  0.12728401  0.12855381  0.78482768  1
  O  O260  1  0.12473198  0.37450089  0.05627777  1
  O  O261  1  0.13057021  0.36777400  0.28795388  1
  O  O262  1  0.12532233  0.36888070  0.52902995  1
  O  O263  1  0.12626220  0.37249962  0.78383401  1
  O  O264  1  0.12612298  0.62366963  0.04104700  1
  O  O265  1  0.12814748  0.62058808  0.29086819  1
  O  O266  1  0.12756592  0.62685543  0.53884659  1
  O  O267  1  0.12529951  0.62824992  0.80156595  1
  O  O268  1  0.11794564  0.86935960  0.04203271  1
  O  O269  1  0.12560395  0.88125006  0.28340320  1
  O  O270  1  0.12633021  0.87821026  0.52583750  1
  O  O271  1  0.12160500  0.87017808  0.80131410  1
  O  O272  1  0.37662839  0.12987075  0.04824058  1
  O  O273  1  0.37882352  0.12558449  0.29880589  1
  O  O274  1  0.37568806  0.12247840  0.54848046  1
  O  O275  1  0.37079497  0.11623103  0.78309248  1
  O  O276  1  0.37610184  0.37445211  0.04935488  1
  O  O277  1  0.37568847  0.36891466  0.30203159  1
  O  O278  1  0.37904267  0.37777800  0.53008542  1
  O  O279  1  0.37245687  0.37847992  0.79661422  1
  O  O280  1  0.37649389  0.62078794  0.05458244  1
  O  O281  1  0.38561858  0.62067809  0.29224850  1
  O  O282  1  0.37045038  0.62408203  0.52327261  1
  O  O283  1  0.36993938  0.62626428  0.79948986  1
  O  O284  1  0.38269612  0.87593486  0.04163460  1
  O  O285  1  0.38105364  0.88372255  0.27939815  1
  O  O286  1  0.37409173  0.87630260  0.54510620  1
  O  O287  1  0.37436628  0.86597890  0.78790781  1
  O  O288  1  0.62678067  0.13416097  0.03794324  1
  O  O289  1  0.62403458  0.12345259  0.29931372  1
  O  O290  1  0.62242959  0.12032920  0.53250088  1
  O  O291  1  0.62821500  0.12707960  0.79961572  1
  O  O292  1  0.62375351  0.37621372  0.05363069  1
  O  O293  1  0.62367282  0.36427745  0.28919790  1
  O  O294  1  0.61295494  0.37489327  0.53127161  1
  O  O295  1  0.62199326  0.37398078  0.78346733  1
  O  O296  1  0.62618076  0.62530660  0.05280792  1
  O  O297  1  0.62241760  0.62636191  0.29482067  1
  O  O298  1  0.62317684  0.62744537  0.54087403  1
  O  O299  1  0.63131550  0.62104187  0.78508856  1
  O  O300  1  0.62819303  0.87066121  0.05041028  1
  O  O301  1  0.62326861  0.87787380  0.29870888  1
  O  O302  1  0.61311451  0.87610202  0.53598953  1
  O  O303  1  0.61978588  0.86495024  0.78057841  1
  O  O304  1  0.87475618  0.12677535  0.05178804  1
  O  O305  1  0.87542830  0.12447427  0.30361519  1
  O  O306  1  0.86462221  0.12693628  0.52594329  1
  O  O307  1  0.87518107  0.12500639  0.79593540  1
  O  O308  1  0.87573743  0.37496241  0.05623248  1
  O  O309  1  0.87401342  0.37565078  0.28309178  1
  O  O310  1  0.87341373  0.37700530  0.53983592  1
  O  O311  1  0.87684833  0.37568173  0.79644016  1
  O  O312  1  0.87367730  0.62188333  0.05422088  1
  O  O313  1  0.86836677  0.61895407  0.29099951  1
  O  O314  1  0.87287174  0.62444165  0.52371737  1
  O  O315  1  0.87834651  0.61806801  0.78395261  1
  O  O316  1  0.87552663  0.88370868  0.04235494  1
  O  O317  1  0.86885266  0.88211347  0.28765186  1
  O  O318  1  0.87546711  0.87412778  0.52287078  1
  O  O319  1  0.88022980  0.87613175  0.79895875  1
