# generated using pymatgen
data_VFe(PbO3)2
_symmetry_space_group_name_H-M   'P 1'
_cell_length_a   15.38797012
_cell_length_b   15.39672896
_cell_length_c   18.51493059
_cell_angle_alpha   90.01188656
_cell_angle_beta   89.97773147
_cell_angle_gamma   89.99196593
_symmetry_Int_Tables_number   1
_chemical_formula_structural   VFe(PbO3)2
_chemical_formula_sum   'V32 Fe32 Pb64 O192'
_cell_volume   4386.63844724
_cell_formula_units_Z   32
loop_
 _symmetry_equiv_pos_site_id
 _symmetry_equiv_pos_as_xyz
  1  'x, y, z'
loop_
 _atom_site_type_symbol
 _atom_site_label
 _atom_site_symmetry_multiplicity
 _atom_site_fract_x
 _atom_site_fract_y
 _atom_site_fract_z
 _atom_site_occupancy
  V  V0  1  0.37469575  0.62106074  0.39127487  1
  V  V1  1  0.62550794  0.11657678  0.89693705  1
  V  V2  1  0.62564058  0.62183948  0.88850842  1
  V  V3  1  0.87485774  0.12979895  0.38570887  1
  V  V4  1  0.37565697  0.37506713  0.39110592  1
  V  V5  1  0.62501097  0.87033833  0.89300023  1
  V  V6  1  0.87573438  0.87451413  0.89326521  1
  V  V7  1  0.13278641  0.87522830  0.89227446  1
  V  V8  1  0.36958170  0.62602848  0.13816551  1
  V  V9  1  0.87166067  0.62508705  0.13549090  1
  V  V10  1  0.12324147  0.87568297  0.64144283  1
  V  V11  1  0.87654908  0.87621998  0.64099072  1
  V  V12  1  0.12649781  0.62187749  0.39193295  1
  V  V13  1  0.12310435  0.37649229  0.88572782  1
  V  V14  1  0.37267771  0.87425612  0.13623012  1
  V  V15  1  0.87443149  0.12325779  0.64597001  1
  V  V16  1  0.62130191  0.36748726  0.89408126  1
  V  V17  1  0.62608094  0.37351057  0.39139545  1
  V  V18  1  0.62612854  0.62263252  0.64029751  1
  V  V19  1  0.87576019  0.37328191  0.64827056  1
  V  V20  1  0.12390984  0.62612009  0.13493591  1
  V  V21  1  0.12411132  0.12571679  0.64658240  1
  V  V22  1  0.37591943  0.62480563  0.64595273  1
  V  V23  1  0.62676603  0.12731715  0.38722256  1
  V  V24  1  0.87568479  0.37278560  0.38844455  1
  V  V25  1  0.37416319  0.37758968  0.13310879  1
  V  V26  1  0.12244317  0.62145487  0.64889978  1
  V  V27  1  0.62657210  0.87620752  0.64018214  1
  V  V28  1  0.62575479  0.12378884  0.64454601  1
  V  V29  1  0.37388284  0.37156753  0.64473618  1
  V  V30  1  0.37589787  0.37662336  0.88731575  1
  V  V31  1  0.37325181  0.87650685  0.64543788  1
  Fe  Fe32  1  0.87636953  0.87235503  0.13587944  1
  Fe  Fe33  1  0.62599929  0.37212645  0.64124008  1
  Fe  Fe34  1  0.87510640  0.12541314  0.12298240  1
  Fe  Fe35  1  0.37666259  0.12748710  0.38054684  1
  Fe  Fe36  1  0.87124217  0.37804471  0.89780002  1
  Fe  Fe37  1  0.37734774  0.12487808  0.88688078  1
  Fe  Fe38  1  0.87675276  0.37917331  0.12224308  1
  Fe  Fe39  1  0.37442615  0.12684699  0.13447087  1
  Fe  Fe40  1  0.62437030  0.62059342  0.38255313  1
  Fe  Fe41  1  0.87567249  0.62047766  0.38163251  1
  Fe  Fe42  1  0.62247109  0.12459863  0.12710898  1
  Fe  Fe43  1  0.12595110  0.12426427  0.89536753  1
  Fe  Fe44  1  0.62512070  0.87357476  0.38125633  1
  Fe  Fe45  1  0.37610847  0.62674507  0.88207213  1
  Fe  Fe46  1  0.62243415  0.87260203  0.13652050  1
  Fe  Fe47  1  0.62352223  0.37885055  0.12679816  1
  Fe  Fe48  1  0.12544556  0.12772205  0.38059308  1
  Fe  Fe49  1  0.87355539  0.62859470  0.88230515  1
  Fe  Fe50  1  0.62035492  0.62525354  0.13728429  1
  Fe  Fe51  1  0.12455030  0.37255326  0.64425937  1
  Fe  Fe52  1  0.37644713  0.12401674  0.64170881  1
  Fe  Fe53  1  0.87539649  0.87392352  0.37870107  1
  Fe  Fe54  1  0.12528422  0.37510080  0.38662264  1
  Fe  Fe55  1  0.12659628  0.87113311  0.12757608  1
  Fe  Fe56  1  0.12713566  0.12534209  0.12427899  1
  Fe  Fe57  1  0.12435492  0.62690128  0.88090404  1
  Fe  Fe58  1  0.87278721  0.12325840  0.89883322  1
  Fe  Fe59  1  0.38054878  0.87449590  0.88295077  1
  Fe  Fe60  1  0.12484752  0.87659932  0.38525923  1
  Fe  Fe61  1  0.12716578  0.37986646  0.12820390  1
  Fe  Fe62  1  0.87443106  0.62514060  0.64366695  1
  Fe  Fe63  1  0.37428301  0.87435254  0.38325342  1
  Pb  Pb64  1  0.00387701  0.00051409  0.00336263  1
  Pb  Pb65  1  0.00392424  0.00204052  0.23364695  1
  Pb  Pb66  1  0.00157630  -0.00069780  0.49150539  1
  Pb  Pb67  1  0.00316882  0.00654798  0.76112585  1
  Pb  Pb68  1  -0.00299753  0.24384070  -0.00185621  1
  Pb  Pb69  1  0.00390091  0.25193475  0.23086951  1
  Pb  Pb70  1  0.00960051  0.25573583  0.50142112  1
  Pb  Pb71  1  -0.00386268  0.24039979  0.76413456  1
  Pb  Pb72  1  -0.00651589  0.50273637  -0.00686136  1
  Pb  Pb73  1  -0.00276885  0.50101054  0.24429750  1
  Pb  Pb74  1  -0.00479849  0.50359246  0.50517880  1
  Pb  Pb75  1  -0.01105078  0.49760035  0.76116989  1
  Pb  Pb76  1  0.00000161  0.75660742  -0.00054326  1
  Pb  Pb77  1  -0.00082199  0.76153652  0.25033593  1
  Pb  Pb78  1  -0.00850132  0.74698210  0.49632575  1
  Pb  Pb79  1  0.00329901  0.74696321  0.75374986  1
  Pb  Pb80  1  0.25829604  0.01310763  -0.00074050  1
  Pb  Pb81  1  0.24011003  0.00607811  0.24365343  1
  Pb  Pb82  1  0.25413043  0.00636756  0.49168492  1
  Pb  Pb83  1  0.24854032  0.00486611  0.75649702  1
  Pb  Pb84  1  0.24410662  0.25097950  0.00004443  1
  Pb  Pb85  1  0.23686519  0.24520348  0.24451480  1
  Pb  Pb86  1  0.24897185  0.24547642  0.49853785  1
  Pb  Pb87  1  0.24912016  0.23755269  0.76011786  1
  Pb  Pb88  1  0.24621935  0.49837686  -0.00504832  1
  Pb  Pb89  1  0.24474455  0.49422779  0.24988078  1
  Pb  Pb90  1  0.24336203  0.49125356  0.50679175  1
  Pb  Pb91  1  0.24954877  0.50674521  0.75552304  1
  Pb  Pb92  1  0.25409975  0.74878447  -0.00689849  1
  Pb  Pb93  1  0.25023693  0.76092472  0.25340551  1
  Pb  Pb94  1  0.25039027  0.75262392  0.49935686  1
  Pb  Pb95  1  0.25008694  0.74740898  0.75397681  1
  Pb  Pb96  1  0.49793311  0.00606299  0.00431695  1
  Pb  Pb97  1  0.49372579  0.00157502  0.24470612  1
  Pb  Pb98  1  0.49255461  0.00310741  0.49574795  1
  Pb  Pb99  1  0.49309726  -0.00380687  0.75497904  1
  Pb  Pb100  1  0.49867108  0.24150185  0.00563178  1
  Pb  Pb101  1  0.49665943  0.24601996  0.24155066  1
  Pb  Pb102  1  0.49608353  0.24568060  0.50462039  1
  Pb  Pb103  1  0.49792345  0.24390583  0.75505579  1
  Pb  Pb104  1  0.50688525  0.50379376  0.00243470  1
  Pb  Pb105  1  0.50484561  0.50518235  0.24724504  1
  Pb  Pb106  1  0.50641435  0.49384792  0.50289760  1
  Pb  Pb107  1  0.49829486  0.50242987  0.75209537  1
  Pb  Pb108  1  0.50781508  0.74735851  0.00251521  1
  Pb  Pb109  1  0.50396158  0.75440494  0.25069143  1
  Pb  Pb110  1  0.50360396  0.75155660  0.49316037  1
  Pb  Pb111  1  0.49417959  0.75267801  0.75257153  1
  Pb  Pb112  1  0.75093855  -0.01216798  0.01238515  1
  Pb  Pb113  1  0.74992784  -0.00329149  0.23572213  1
  Pb  Pb114  1  0.75111504  -0.00228286  0.49299874  1
  Pb  Pb115  1  0.75608725  0.00424976  0.75759180  1
  Pb  Pb116  1  0.75743462  0.24851034  0.00428972  1
  Pb  Pb117  1  0.75035413  0.25370176  0.22789438  1
  Pb  Pb118  1  0.74580666  0.25694640  0.50489841  1
  Pb  Pb119  1  0.76177179  0.24869965  0.76369585  1
  Pb  Pb120  1  0.74490024  0.50036035  0.00097000  1
  Pb  Pb121  1  0.74859898  0.50518227  0.24374631  1
  Pb  Pb122  1  0.75445285  0.50585010  0.50154828  1
  Pb  Pb123  1  0.76015685  0.49355246  0.76089819  1
  Pb  Pb124  1  0.74753356  0.75646632  0.00778706  1
  Pb  Pb125  1  0.74586786  0.75830698  0.24965020  1
  Pb  Pb126  1  0.75258401  0.74581276  0.48964366  1
  Pb  Pb127  1  0.75226126  0.74887277  0.74849050  1
  O  O128  1  0.12822599  -0.00259064  0.15261593  1
  O  O129  1  0.12279054  0.00406512  0.41432137  1
  O  O130  1  0.12284436  0.00300692  0.67019995  1
  O  O131  1  0.12159925  -0.00925180  0.91463099  1
  O  O132  1  0.12934736  0.25355134  0.15332678  1
  O  O133  1  0.12402168  0.25123456  0.41852383  1
  O  O134  1  0.12302405  0.24294643  0.67085692  1
  O  O135  1  0.13024117  0.25963736  0.90973058  1
  O  O136  1  0.13114173  0.50851428  0.16273233  1
  O  O137  1  0.12703501  0.50225623  0.41993394  1
  O  O138  1  0.12739600  0.50365605  0.66740868  1
  O  O139  1  0.13053322  0.49577170  0.90599468  1
  O  O140  1  0.12913484  0.74022647  0.16057038  1
  O  O141  1  0.12562447  0.73846697  0.41745821  1
  O  O142  1  0.12467170  0.75085764  0.66793826  1
  O  O143  1  0.12153861  0.75729216  0.91076303  1
  O  O144  1  0.37428244  -0.00935806  0.15454100  1
  O  O145  1  0.37765848  0.00230401  0.41248421  1
  O  O146  1  0.37549323  -0.00183160  0.66828410  1
  O  O147  1  0.37982555  -0.00169438  0.91188456  1
  O  O148  1  0.37610236  0.26058223  0.15243388  1
  O  O149  1  0.37939142  0.25736546  0.41486465  1
  O  O150  1  0.37596073  0.25391498  0.66738405  1
  O  O151  1  0.37959861  0.26047207  0.91219840  1
  O  O152  1  0.37097442  0.50412019  0.16163414  1
  O  O153  1  0.37503801  0.49417536  0.42140872  1
  O  O154  1  0.37674296  0.49736552  0.66886247  1
  O  O155  1  0.37736914  0.49557672  0.91011897  1
  O  O156  1  0.37150674  0.74505180  0.16214712  1
  O  O157  1  0.37356049  0.74266763  0.41813115  1
  O  O158  1  0.37615133  0.75036271  0.66718918  1
  O  O159  1  0.37843254  0.75108793  0.91395699  1
  O  O160  1  0.62131733  -0.00108127  0.15859751  1
  O  O161  1  0.62871834  0.01084439  0.40942110  1
  O  O162  1  0.62822172  0.00254565  0.67053686  1
  O  O163  1  0.62509570  -0.00122907  0.91311726  1
  O  O164  1  0.61948359  0.25387954  0.15408733  1
  O  O165  1  0.62690080  0.24842511  0.42014637  1
  O  O166  1  0.62696957  0.24128493  0.66882649  1
  O  O167  1  0.62045148  0.25295430  0.91248349  1
  O  O168  1  0.62082089  0.50030502  0.16447621  1
  O  O169  1  0.62432776  0.49305006  0.41771527  1
  O  O170  1  0.62262558  0.50567249  0.66351491  1
  O  O171  1  0.62178531  0.50531048  0.90882698  1
  O  O172  1  0.62055169  0.74743819  0.16428257  1
  O  O173  1  0.62527574  0.74679279  0.41291382  1
  O  O174  1  0.62514356  0.74971949  0.66413817  1
  O  O175  1  0.62534996  0.75129234  0.91223239  1
  O  O176  1  0.87524403  0.00048125  0.15393220  1
  O  O177  1  0.87168210  0.01159505  0.40770541  1
  O  O178  1  0.87566811  0.00027448  0.67274607  1
  O  O179  1  0.86729091  -0.00935240  0.91660579  1
  O  O180  1  0.87584819  0.25331345  0.14957485  1
  O  O181  1  0.87169814  0.25209348  0.41726590  1
  O  O182  1  0.87499267  0.24901347  0.67383820  1
  O  O183  1  0.87018536  0.25249798  0.91326148  1
  O  O184  1  0.87959380  0.50716864  0.15986531  1
  O  O185  1  0.87514423  0.48993606  0.41566552  1
  O  O186  1  0.87451203  0.49343086  0.66873098  1
  O  O187  1  0.87142118  0.50648433  0.91325124  1
  O  O188  1  0.87975927  0.73842728  0.16009544  1
  O  O189  1  0.87687122  0.74707357  0.41107883  1
  O  O190  1  0.87581955  0.75482358  0.66529410  1
  O  O191  1  0.86817048  0.75577491  0.91334162  1
  O  O192  1  0.00136430  0.12595200  0.15096574  1
  O  O193  1  -0.00985930  0.13085111  0.40972655  1
  O  O194  1  0.00060659  0.12419379  0.67352115  1
  O  O195  1  0.00021431  0.12402477  0.91308135  1
  O  O196  1  0.00133292  0.38182377  0.15393431  1
  O  O197  1  -0.00747334  0.37250861  0.41298232  1
  O  O198  1  -0.00595379  0.37210714  0.67221332  1
  O  O199  1  0.00774308  0.37832323  0.90386535  1
  O  O200  1  0.00749653  0.62192144  0.15646492  1
  O  O201  1  0.00658236  0.61890656  0.41560208  1
  O  O202  1  0.00500186  0.62534549  0.66734160  1
  O  O203  1  -0.00015398  0.62822668  0.90836287  1
  O  O204  1  0.00292494  0.86817023  0.15889645  1
  O  O205  1  -0.00126862  0.87551402  0.41576010  1
  O  O206  1  0.00045304  0.87721720  0.67093313  1
  O  O207  1  -0.00714296  0.87454900  0.91083902  1
  O  O208  1  0.25103465  0.12474561  0.15632442  1
  O  O209  1  0.25178376  0.12961148  0.41195396  1
  O  O210  1  0.24396750  0.12363744  0.66573316  1
  O  O211  1  0.25346330  0.12602011  0.91207990  1
  O  O212  1  0.25777735  0.38082277  0.16145422  1
  O  O213  1  0.25755080  0.37466285  0.41677822  1
  O  O214  1  0.25694567  0.37576905  0.66849731  1
  O  O215  1  0.25573470  0.37709835  0.90775765  1
  O  O216  1  0.25153222  0.62478350  0.16443633  1
  O  O217  1  0.24796362  0.62003292  0.42168150  1
  O  O218  1  0.24889375  0.62665323  0.66849380  1
  O  O219  1  0.24985282  0.62793687  0.90939806  1
  O  O220  1  0.25475753  0.86761512  0.15955716  1
  O  O221  1  0.24908248  0.87262142  0.41897037  1
  O  O222  1  0.24669644  0.87614762  0.66775661  1
  O  O223  1  0.24874016  0.87395519  0.90449936  1
  O  O224  1  0.49828195  0.12516811  0.16329694  1
  O  O225  1  0.50916373  0.12932115  0.41256973  1
  O  O226  1  0.50785655  0.12294579  0.66724783  1
  O  O227  1  0.50499855  0.12747910  0.91392401  1
  O  O228  1  0.48982607  0.38258702  0.15893356  1
  O  O229  1  0.49807772  0.37491888  0.41714538  1
  O  O230  1  0.49547616  0.37404138  0.66975087  1
  O  O231  1  0.50049488  0.38001573  0.91320043  1
  O  O232  1  0.48717526  0.62397321  0.16372251  1
  O  O233  1  0.49575874  0.61909711  0.41688362  1
  O  O234  1  0.50433094  0.62657674  0.66671231  1
  O  O235  1  0.50638831  0.62861767  0.91140417  1
  O  O236  1  0.48974685  0.86793054  0.16034126  1
  O  O237  1  0.50090433  0.87500153  0.41457173  1
  O  O238  1  0.50376776  0.87692017  0.66705962  1
  O  O239  1  0.50937795  0.87459471  0.91334232  1
  O  O240  1  0.74867996  0.12672295  0.15201785  1
  O  O241  1  0.74988929  0.13112180  0.41544613  1
  O  O242  1  0.74917625  0.12330812  0.67139546  1
  O  O243  1  0.73968961  0.12787249  0.91714618  1
  O  O244  1  0.75101392  0.38134297  0.15226421  1
  O  O245  1  0.75341537  0.37248579  0.41726105  1
  O  O246  1  0.75485595  0.37160230  0.67107212  1
  O  O247  1  0.73726571  0.37981743  0.91390788  1
  O  O248  1  0.75515630  0.62172431  0.15214322  1
  O  O249  1  0.75033715  0.61822910  0.41426412  1
  O  O250  1  0.74256919  0.62665295  0.66235648  1
  O  O251  1  0.74118643  0.62838719  0.91261129  1
  O  O252  1  0.75047985  0.86937886  0.16116299  1
  O  O253  1  0.75103328  0.87750461  0.41405058  1
  O  O254  1  0.75116220  0.87653409  0.66876700  1
  O  O255  1  0.74459851  0.87459514  0.91814552  1
  O  O256  1  0.12912828  0.12718552  0.02137888  1
  O  O257  1  0.12922416  0.12829078  0.28067959  1
  O  O258  1  0.11871314  0.12606053  0.55574685  1
  O  O259  1  0.12739318  0.12145504  0.79199302  1
  O  O260  1  0.13655715  0.38148900  0.02838185  1
  O  O261  1  0.13332455  0.37634510  0.28753558  1
  O  O262  1  0.12501514  0.37162124  0.54454699  1
  O  O263  1  0.12896425  0.37458153  0.79399843  1
  O  O264  1  0.12831283  0.62492508  0.04355594  1
  O  O265  1  0.12975102  0.62068005  0.30149253  1
  O  O266  1  0.12485243  0.62399349  0.55774244  1
  O  O267  1  0.12778214  0.63076857  0.78032923  1
  O  O268  1  0.12070728  0.86774446  0.02726731  1
  O  O269  1  0.12753447  0.86747918  0.28570330  1
  O  O270  1  0.11989056  0.87650281  0.55093284  1
  O  O271  1  0.12183736  0.87709556  0.80061647  1
  O  O272  1  0.38207589  0.12168628  0.03214771  1
  O  O273  1  0.38238165  0.12719014  0.28083567  1
  O  O274  1  0.38374917  0.12689456  0.54201679  1
  O  O275  1  0.37561724  0.12936129  0.78440213  1
  O  O276  1  0.37258934  0.38293784  0.04188678  1
  O  O277  1  0.37611750  0.37823295  0.30088295  1
  O  O278  1  0.37575512  0.37296104  0.55345799  1
  O  O279  1  0.37911911  0.37460575  0.79611411  1
  O  O280  1  0.36944487  0.62699826  0.04684923  1
  O  O281  1  0.37135516  0.62123615  0.30074911  1
  O  O282  1  0.37500351  0.62152465  0.55526001  1
  O  O283  1  0.37762952  0.62511050  0.78130116  1
  O  O284  1  0.37262776  0.86920149  0.04485348  1
  O  O285  1  0.37026508  0.86919677  0.28409917  1
  O  O286  1  0.37535102  0.87561115  0.55437013  1
  O  O287  1  0.38468937  0.87339790  0.78200964  1
  O  O288  1  0.61280046  0.12354476  0.02606441  1
  O  O289  1  0.62751902  0.13273842  0.29711528  1
  O  O290  1  0.62783806  0.12245945  0.55373692  1
  O  O291  1  0.62563245  0.12203490  0.80511246  1
  O  O292  1  0.61885498  0.38862473  0.02642404  1
  O  O293  1  0.62539139  0.37141184  0.30090775  1
  O  O294  1  0.62665004  0.37011102  0.54208753  1
  O  O295  1  0.62107834  0.37201794  0.80230893  1
  O  O296  1  0.61401064  0.62389456  0.03576384  1
  O  O297  1  0.62313069  0.61557645  0.28268165  1
  O  O298  1  0.62336470  0.62288100  0.54930307  1
  O  O299  1  0.62620803  0.62507175  0.79717187  1
  O  O300  1  0.62931816  0.86847294  0.03444063  1
  O  O301  1  0.62587995  0.86862067  0.28121686  1
  O  O302  1  0.62768826  0.88091383  0.54969269  1
  O  O303  1  0.62896950  0.87264245  0.80190503  1
  O  O304  1  0.87384125  0.12849057  0.02094694  1
  O  O305  1  0.87185952  0.13480189  0.29580546  1
  O  O306  1  0.87555458  0.12482385  0.55555150  1
  O  O307  1  0.86998763  0.12369803  0.79476073  1
  O  O308  1  0.87460143  0.38316805  0.02041249  1
  O  O309  1  0.87345808  0.37321983  0.29812253  1
  O  O310  1  0.87491194  0.37078586  0.55722854  1
  O  O311  1  0.86816052  0.38224674  0.79388805  1
  O  O312  1  0.87907962  0.62419992  0.04398875  1
  O  O313  1  0.87823847  0.61522272  0.28289386  1
  O  O314  1  0.87984832  0.61609138  0.54378273  1
  O  O315  1  0.87080987  0.62228650  0.78015791  1
  O  O316  1  0.86787891  0.86805492  0.03386724  1
  O  O317  1  0.87618418  0.86867271  0.27873649  1
  O  O318  1  0.87685976  0.88099135  0.55026584  1
  O  O319  1  0.87034839  0.87520553  0.80166083  1
