# generated using pymatgen
data_VFe(PbO3)2
_symmetry_space_group_name_H-M   'P 1'
_cell_length_a   15.39780582
_cell_length_b   15.40246369
_cell_length_c   18.46644713
_cell_angle_alpha   90.00281431
_cell_angle_beta   89.99662063
_cell_angle_gamma   90.03068510
_symmetry_Int_Tables_number   1
_chemical_formula_structural   VFe(PbO3)2
_chemical_formula_sum   'V32 Fe32 Pb64 O192'
_cell_volume   4379.57850695
_cell_formula_units_Z   32
loop_
 _symmetry_equiv_pos_site_id
 _symmetry_equiv_pos_as_xyz
  1  'x, y, z'
loop_
 _atom_site_type_symbol
 _atom_site_label
 _atom_site_symmetry_multiplicity
 _atom_site_fract_x
 _atom_site_fract_y
 _atom_site_fract_z
 _atom_site_occupancy
  V  V0  1  0.87412694  0.62268874  0.38988975  1
  V  V1  1  0.37358858  0.62449605  0.64480878  1
  V  V2  1  0.87667439  0.63220364  0.64948684  1
  V  V3  1  0.62704354  0.37049734  0.13410903  1
  V  V4  1  0.87423804  0.86359677  0.13448113  1
  V  V5  1  0.62681152  0.12478969  0.64235657  1
  V  V6  1  0.87804773  0.12400563  0.64223177  1
  V  V7  1  0.37520087  0.87332073  0.64326380  1
  V  V8  1  0.37648105  0.62262955  0.38839220  1
  V  V9  1  0.12952206  0.37101214  0.13705590  1
  V  V10  1  0.62302791  0.87613250  0.38918031  1
  V  V11  1  0.87430381  0.87455373  0.39036638  1
  V  V12  1  0.12464490  0.37518374  0.39328819  1
  V  V13  1  0.87418464  0.37582656  0.39305690  1
  V  V14  1  0.62553035  0.87390937  0.88760332  1
  V  V15  1  0.12819352  0.12744071  0.13820489  1
  V  V16  1  0.62505381  0.87419064  0.64128223  1
  V  V17  1  0.37796987  0.37406039  0.14139872  1
  V  V18  1  0.37433866  0.12658547  0.13718932  1
  V  V19  1  0.87621893  0.12775662  0.13719262  1
  V  V20  1  0.87643479  0.38393935  0.65697469  1
  V  V21  1  0.37432907  0.62564284  0.88744083  1
  V  V22  1  0.12551370  0.37511496  0.88151742  1
  V  V23  1  0.87434884  0.12203421  0.88182630  1
  V  V24  1  0.87369979  0.12764438  0.39645723  1
  V  V25  1  0.12633723  0.62514053  0.64855957  1
  V  V26  1  0.62406379  0.37422265  0.39703963  1
  V  V27  1  0.12469362  0.87367809  0.64618148  1
  V  V28  1  0.12550404  0.37572944  0.64556384  1
  V  V29  1  0.37835987  0.37341346  0.65199295  1
  V  V30  1  0.12249405  0.12512325  0.39574333  1
  V  V31  1  0.12870042  0.12392372  0.65064309  1
  Fe  Fe32  1  0.37384365  0.87640336  0.12456116  1
  Fe  Fe33  1  0.12452494  0.87501689  0.38498241  1
  Fe  Fe34  1  0.12588355  0.62383340  0.88828861  1
  Fe  Fe35  1  0.62503646  0.87917875  0.13140574  1
  Fe  Fe36  1  0.62790494  0.62384028  0.38942086  1
  Fe  Fe37  1  0.87406556  0.62677442  0.88277285  1
  Fe  Fe38  1  0.62327245  0.62892736  0.64751934  1
  Fe  Fe39  1  0.62326226  0.62621355  0.88012639  1
  Fe  Fe40  1  0.62550866  0.12426263  0.88508598  1
  Fe  Fe41  1  0.37500430  0.62223344  0.12878438  1
  Fe  Fe42  1  0.37592258  0.12109642  0.64812016  1
  Fe  Fe43  1  0.12319050  0.12706453  0.87500452  1
  Fe  Fe44  1  0.12318676  0.87653653  0.88780422  1
  Fe  Fe45  1  0.62774184  0.37740087  0.65011705  1
  Fe  Fe46  1  0.37611866  0.87431402  0.89319370  1
  Fe  Fe47  1  0.87159409  0.87664222  0.87687854  1
  Fe  Fe48  1  0.37602973  0.37574838  0.38917808  1
  Fe  Fe49  1  0.87561864  0.37318621  0.87645491  1
  Fe  Fe50  1  0.87578079  0.37003044  0.12993002  1
  Fe  Fe51  1  0.12196269  0.87879223  0.12992686  1
  Fe  Fe52  1  0.87425373  0.61739552  0.12631989  1
  Fe  Fe53  1  0.37811350  0.12697995  0.39033266  1
  Fe  Fe54  1  0.63107817  0.12383992  0.38995673  1
  Fe  Fe55  1  0.12496744  0.62372313  0.12607676  1
  Fe  Fe56  1  0.37486888  0.87453972  0.38462764  1
  Fe  Fe57  1  0.37491992  0.37693380  0.87199880  1
  Fe  Fe58  1  0.12337318  0.62347841  0.38541719  1
  Fe  Fe59  1  0.62381120  0.37494189  0.87195515  1
  Fe  Fe60  1  0.87587124  0.87838003  0.64986109  1
  Fe  Fe61  1  0.62307424  0.62397230  0.12993431  1
  Fe  Fe62  1  0.62325168  0.12731212  0.13159227  1
  Fe  Fe63  1  0.37532832  0.12457436  0.87344818  1
  Pb  Pb64  1  0.00425264  -0.00478693  -0.00839757  1
  Pb  Pb65  1  0.00209227  -0.00375675  0.24954554  1
  Pb  Pb66  1  -0.00562014  -0.00808235  0.50742379  1
  Pb  Pb67  1  0.01130474  -0.00431068  0.75862008  1
  Pb  Pb68  1  -0.00718051  0.25447911  -0.00640216  1
  Pb  Pb69  1  0.00204833  0.25045693  0.24876951  1
  Pb  Pb70  1  -0.00022572  0.25151055  0.50761648  1
  Pb  Pb71  1  -0.00097088  0.25035985  0.75322756  1
  Pb  Pb72  1  -0.00855854  0.50635054  -0.00733973  1
  Pb  Pb73  1  0.00010351  0.50178904  0.24100521  1
  Pb  Pb74  1  -0.00278901  0.50126395  0.50274723  1
  Pb  Pb75  1  0.00066688  0.51280164  0.76359350  1
  Pb  Pb76  1  0.00011748  0.74759784  -0.01124355  1
  Pb  Pb77  1  0.01389319  0.73969066  0.24411300  1
  Pb  Pb78  1  -0.00227066  0.75260911  0.49979751  1
  Pb  Pb79  1  0.00922748  0.74865533  0.76267925  1
  Pb  Pb80  1  0.25046803  -0.00118486  -0.01187568  1
  Pb  Pb81  1  0.25246303  -0.01450935  0.25055529  1
  Pb  Pb82  1  0.25580905  0.00211365  0.50108605  1
  Pb  Pb83  1  0.25248832  -0.01274552  0.76046628  1
  Pb  Pb84  1  0.25398807  0.24772379  -0.01605452  1
  Pb  Pb85  1  0.26023959  0.24842709  0.25873327  1
  Pb  Pb86  1  0.25754926  0.24648445  0.50727117  1
  Pb  Pb87  1  0.25689545  0.24535214  0.75443356  1
  Pb  Pb88  1  0.25223786  0.50783145  -0.00183470  1
  Pb  Pb89  1  0.24530551  0.50679222  0.24678138  1
  Pb  Pb90  1  0.25325783  0.49882964  0.50121715  1
  Pb  Pb91  1  0.25036348  0.50126005  0.75614246  1
  Pb  Pb92  1  0.24492570  0.75699744  -0.00205329  1
  Pb  Pb93  1  0.24909774  0.75374904  0.23612097  1
  Pb  Pb94  1  0.24700254  0.75217668  0.49398824  1
  Pb  Pb95  1  0.24938765  0.75698276  0.76194051  1
  Pb  Pb96  1  0.49953929  0.00082065  -0.00570507  1
  Pb  Pb97  1  0.49463316  -0.00138571  0.24480884  1
  Pb  Pb98  1  0.49222641  0.00874393  0.50284031  1
  Pb  Pb99  1  0.50027741  0.00365536  0.75599281  1
  Pb  Pb100  1  0.50114042  0.24992075  -0.01759338  1
  Pb  Pb101  1  0.49207573  0.24722715  0.25613609  1
  Pb  Pb102  1  0.49662638  0.24511726  0.50607253  1
  Pb  Pb103  1  0.51032892  0.23992521  0.75782910  1
  Pb  Pb104  1  0.50243873  0.50399121  -0.00980930  1
  Pb  Pb105  1  0.50300190  0.50586755  0.24881932  1
  Pb  Pb106  1  0.51151015  0.50050956  0.51117621  1
  Pb  Pb107  1  0.51161847  0.50205766  0.75500948  1
  Pb  Pb108  1  0.50189658  0.74723765  0.00104180  1
  Pb  Pb109  1  0.49401503  0.75461311  0.23677559  1
  Pb  Pb110  1  0.50674089  0.74294227  0.50028722  1
  Pb  Pb111  1  0.49355757  0.75741053  0.75673116  1
  Pb  Pb112  1  0.73752402  0.00043640  0.00068691  1
  Pb  Pb113  1  0.74343626  0.00794562  0.24782885  1
  Pb  Pb114  1  0.75733507  -0.00869372  0.50634268  1
  Pb  Pb115  1  0.74880485  -0.00009838  0.75374562  1
  Pb  Pb116  1  0.74832855  0.25554224  -0.01156808  1
  Pb  Pb117  1  0.74373261  0.24573664  0.24981390  1
  Pb  Pb118  1  0.74537088  0.25949623  0.51079757  1
  Pb  Pb119  1  0.75025214  0.25329498  0.75536799  1
  Pb  Pb120  1  0.75051047  0.50067093  -0.01550785  1
  Pb  Pb121  1  0.74821885  0.50265458  0.24327107  1
  Pb  Pb122  1  0.74096593  0.49984124  0.51327607  1
  Pb  Pb123  1  0.74719362  0.51343156  0.76056812  1
  Pb  Pb124  1  0.75024226  0.74173272  -0.00700104  1
  Pb  Pb125  1  0.73785078  0.73869459  0.24502321  1
  Pb  Pb126  1  0.75172181  0.74842569  0.50346596  1
  Pb  Pb127  1  0.75542340  0.74896032  0.75696934  1
  O  O128  1  0.12034723  0.01158379  0.16138665  1
  O  O129  1  0.12202613  0.00872568  0.41692097  1
  O  O130  1  0.12770349  -0.00508666  0.66705926  1
  O  O131  1  0.12283651  0.00519840  0.90791576  1
  O  O132  1  0.12747822  0.24841880  0.16903741  1
  O  O133  1  0.12143544  0.24870097  0.42414064  1
  O  O134  1  0.12359723  0.25536483  0.66554227  1
  O  O135  1  0.12403928  0.25510053  0.90614297  1
  O  O136  1  0.12739049  0.48845757  0.15821201  1
  O  O137  1  0.12285743  0.49689485  0.41902352  1
  O  O138  1  0.12195109  0.49807753  0.66971721  1
  O  O139  1  0.12559849  0.49060963  0.90774027  1
  O  O140  1  0.12138765  0.75176853  0.15450068  1
  O  O141  1  0.12301391  0.74815402  0.41606372  1
  O  O142  1  0.12474583  0.75269969  0.66964562  1
  O  O143  1  0.12437511  0.74974681  0.90883940  1
  O  O144  1  0.37171284  0.01091774  0.15686745  1
  O  O145  1  0.37516511  0.00048805  0.41828715  1
  O  O146  1  0.37436911  -0.00923900  0.66579506  1
  O  O147  1  0.37507686  0.00198280  0.90549416  1
  O  O148  1  0.37067560  0.24980414  0.16748101  1
  O  O149  1  0.37581115  0.25211462  0.42517985  1
  O  O150  1  0.37148575  0.25719898  0.66026499  1
  O  O151  1  0.37370082  0.25198130  0.90089219  1
  O  O152  1  0.37285736  0.48913013  0.16402848  1
  O  O153  1  0.37645905  0.50405146  0.41825628  1
  O  O154  1  0.36869798  0.50778399  0.66823974  1
  O  O155  1  0.37389786  0.50392321  0.90557700  1
  O  O156  1  0.37408711  0.75007598  0.15360213  1
  O  O157  1  0.37699931  0.74193514  0.41190340  1
  O  O158  1  0.37230469  0.74893149  0.67000856  1
  O  O159  1  0.37513358  0.74190282  0.91335111  1
  O  O160  1  0.62829688  0.00441107  0.16532573  1
  O  O161  1  0.63090924  -0.00877344  0.41399549  1
  O  O162  1  0.62296699  -0.00335976  0.66656252  1
  O  O163  1  0.62653538  -0.00443438  0.91008267  1
  O  O164  1  0.62109084  0.25480042  0.16384057  1
  O  O165  1  0.63056869  0.25664499  0.42089313  1
  O  O166  1  0.62685533  0.24208602  0.66027644  1
  O  O167  1  0.62448597  0.25093949  0.90444487  1
  O  O168  1  0.62096231  0.48635431  0.16140263  1
  O  O169  1  0.62837399  0.49522751  0.42224563  1
  O  O170  1  0.62558144  0.50369822  0.66861168  1
  O  O171  1  0.62404768  0.49970060  0.89840741  1
  O  O172  1  0.62635995  0.75236136  0.16015171  1
  O  O173  1  0.62889754  0.75485722  0.41743399  1
  O  O174  1  0.62358188  0.75853958  0.66552438  1
  O  O175  1  0.62341745  0.75494286  0.90819460  1
  O  O176  1  0.87771507  0.01537309  0.16334547  1
  O  O177  1  0.87608842  0.00022239  0.42056431  1
  O  O178  1  0.87251161  0.00819595  0.66821434  1
  O  O179  1  0.87220215  0.00641978  0.90583461  1
  O  O180  1  0.87812868  0.24647248  0.16819792  1
  O  O181  1  0.87573274  0.25282580  0.42447461  1
  O  O182  1  0.87331700  0.23988695  0.66660386  1
  O  O183  1  0.87705928  0.24363867  0.90753214  1
  O  O184  1  0.87604421  0.49240891  0.16079527  1
  O  O185  1  0.87558448  0.49852629  0.42114695  1
  O  O186  1  0.87935021  0.50118585  0.66980608  1
  O  O187  1  0.87517899  0.49730441  0.90007236  1
  O  O188  1  0.87545676  0.75039616  0.14964840  1
  O  O189  1  0.87543415  0.74937349  0.41753528  1
  O  O190  1  0.87738519  0.74765163  0.66463086  1
  O  O191  1  0.87329488  0.75295427  0.90627344  1
  O  O192  1  0.00346174  0.13221889  0.16467282  1
  O  O193  1  0.00038851  0.12765878  0.42467914  1
  O  O194  1  -0.00548055  0.12336650  0.66451591  1
  O  O195  1  -0.00683817  0.12569221  0.90589413  1
  O  O196  1  0.01029322  0.36814768  0.16001143  1
  O  O197  1  -0.00140254  0.37455348  0.42283902  1
  O  O198  1  0.00273011  0.37324975  0.67054935  1
  O  O199  1  0.00592860  0.37235550  0.90503464  1
  O  O200  1  -0.00003010  0.61966329  0.15922766  1
  O  O201  1  -0.00591851  0.62350848  0.41939768  1
  O  O202  1  -0.00050468  0.62597802  0.67152214  1
  O  O203  1  -0.00030728  0.62194626  0.90738131  1
  O  O204  1  -0.01175797  0.88218102  0.16367490  1
  O  O205  1  -0.00297589  0.87651477  0.41808798  1
  O  O206  1  0.00762400  0.87575854  0.66611207  1
  O  O207  1  -0.00468021  0.87918347  0.90629088  1
  O  O208  1  0.24684075  0.12952760  0.16204353  1
  O  O209  1  0.24118002  0.12864342  0.41816092  1
  O  O210  1  0.24818105  0.12673950  0.66611026  1
  O  O211  1  0.24840124  0.12808818  0.90004235  1
  O  O212  1  0.24847546  0.37009740  0.16682632  1
  O  O213  1  0.24627835  0.37454666  0.42047654  1
  O  O214  1  0.24164491  0.37817209  0.66762177  1
  O  O215  1  0.24507120  0.37421637  0.90481553  1
  O  O216  1  0.24920973  0.61950849  0.16011256  1
  O  O217  1  0.25651121  0.62232241  0.41173080  1
  O  O218  1  0.25106202  0.62785377  0.67101528  1
  O  O219  1  0.25490225  0.62271364  0.90963256  1
  O  O220  1  0.24805467  0.88129799  0.15708155  1
  O  O221  1  0.24948439  0.87568918  0.41707543  1
  O  O222  1  0.24850092  0.87189733  0.66896929  1
  O  O223  1  0.24878313  0.87439666  0.91199806  1
  O  O224  1  0.49117380  0.12962890  0.15848052  1
  O  O225  1  0.50628225  0.12629888  0.41997524  1
  O  O226  1  0.50811868  0.12211568  0.66374310  1
  O  O227  1  0.49875071  0.12389047  0.90746495  1
  O  O228  1  0.49569205  0.36960666  0.16086954  1
  O  O229  1  0.50751869  0.37561152  0.41900672  1
  O  O230  1  0.49304193  0.38051811  0.66033188  1
  O  O231  1  0.49778686  0.37592274  0.90067736  1
  O  O232  1  0.49920674  0.61959986  0.16408398  1
  O  O233  1  0.49724030  0.62278531  0.41573695  1
  O  O234  1  0.48936855  0.62780931  0.66736416  1
  O  O235  1  0.49523826  0.62530407  0.90751488  1
  O  O236  1  0.49805167  0.88171173  0.15957899  1
  O  O237  1  0.50745539  0.87266589  0.41012600  1
  O  O238  1  0.50136551  0.87364163  0.66775023  1
  O  O239  1  0.50722568  0.87474340  0.91093021  1
  O  O240  1  0.75622819  0.13233266  0.15966072  1
  O  O241  1  0.75595011  0.12575356  0.42377804  1
  O  O242  1  0.74758577  0.12107530  0.66457954  1
  O  O243  1  0.75662013  0.12671455  0.90729384  1
  O  O244  1  0.74282119  0.36953473  0.15664888  1
  O  O245  1  0.75093249  0.37654738  0.42369545  1
  O  O246  1  0.75959395  0.37293455  0.66785108  1
  O  O247  1  0.75037701  0.37060481  0.89943214  1
  O  O248  1  0.74908528  0.61982764  0.16095794  1
  O  O249  1  0.75556561  0.62501668  0.42059927  1
  O  O250  1  0.75799899  0.62579594  0.66518829  1
  O  O251  1  0.74787451  0.62663519  0.90583392  1
  O  O252  1  0.76328390  0.88103370  0.16393867  1
  O  O253  1  0.75062322  0.87297417  0.41998434  1
  O  O254  1  0.74159134  0.87724319  0.66340439  1
  O  O255  1  0.74426278  0.87554231  0.90914246  1
  O  O256  1  0.12591514  0.13134504  0.04764009  1
  O  O257  1  0.11860045  0.13010091  0.30502106  1
  O  O258  1  0.12222777  0.12356839  0.55864582  1
  O  O259  1  0.11656660  0.12367319  0.77324261  1
  O  O260  1  0.13375802  0.36627932  0.04669933  1
  O  O261  1  0.12311353  0.37290839  0.30221992  1
  O  O262  1  0.12380731  0.37799471  0.55420723  1
  O  O263  1  0.12521348  0.37517262  0.78979844  1
  O  O264  1  0.12671493  0.61697215  0.02560679  1
  O  O265  1  0.11880846  0.62265062  0.28550582  1
  O  O266  1  0.12526089  0.62500590  0.55726678  1
  O  O267  1  0.12015583  0.62436490  0.78489308  1
  O  O268  1  0.11912064  0.88277970  0.02978883  1
  O  O269  1  0.12248966  0.88215729  0.28482856  1
  O  O270  1  0.12799014  0.87264672  0.55466219  1
  O  O271  1  0.12876506  0.87838706  0.78412564  1
  O  O272  1  0.37072718  0.13245964  0.04644535  1
  O  O273  1  0.37597574  0.13506688  0.28989942  1
  O  O274  1  0.37856415  0.12132800  0.54560218  1
  O  O275  1  0.38190761  0.12794307  0.77041375  1
  O  O276  1  0.37379558  0.37163600  0.05078106  1
  O  O277  1  0.37785887  0.36456016  0.28985437  1
  O  O278  1  0.36587909  0.38506004  0.56018380  1
  O  O279  1  0.36578331  0.37857408  0.76960902  1
  O  O280  1  0.37839133  0.61225515  0.02935897  1
  O  O281  1  0.37820486  0.61784515  0.29726516  1
  O  O282  1  0.37203267  0.62527550  0.55356810  1
  O  O283  1  0.37355689  0.62846062  0.79548287  1
  O  O284  1  0.37595181  0.87716230  0.02358793  1
  O  O285  1  0.37145267  0.88242260  0.28476443  1
  O  O286  1  0.37532067  0.86949815  0.55182756  1
  O  O287  1  0.37222867  0.86588518  0.78989179  1
  O  O288  1  0.62701894  0.12239791  0.03162968  1
  O  O289  1  0.63724692  0.12861284  0.29002016  1
  O  O290  1  0.62777920  0.11990124  0.55083968  1
  O  O291  1  0.62039998  0.12228102  0.78300996  1
  O  O292  1  0.62424339  0.37033408  0.04303136  1
  O  O293  1  0.62663168  0.37509991  0.30599811  1
  O  O294  1  0.63300874  0.38078290  0.54697994  1
  O  O295  1  0.62213843  0.36811405  0.76895565  1
  O  O296  1  0.61967592  0.62316189  0.02963152  1
  O  O297  1  0.63388796  0.61898582  0.28957346  1
  O  O298  1  0.61980244  0.62538667  0.54473326  1
  O  O299  1  0.62660195  0.62749289  0.77689519  1
  O  O300  1  0.62815851  0.88299892  0.03215544  1
  O  O301  1  0.62936037  0.87422558  0.29808115  1
  O  O302  1  0.62134304  0.87562504  0.54991886  1
  O  O303  1  0.62441610  0.87611702  0.79553604  1
  O  O304  1  0.88007486  0.12967850  0.04625292  1
  O  O305  1  0.87597022  0.12843802  0.30541155  1
  O  O306  1  0.87642478  0.12297014  0.55031997  1
  O  O307  1  0.87322886  0.12414644  0.79002514  1
  O  O308  1  0.87762022  0.36420241  0.03038154  1
  O  O309  1  0.87336113  0.37409970  0.30216083  1
  O  O310  1  0.88109346  0.37530111  0.56486027  1
  O  O311  1  0.87964362  0.36315867  0.77308148  1
  O  O312  1  0.87291802  0.61740598  0.02586137  1
  O  O313  1  0.87430453  0.62143878  0.29861244  1
  O  O314  1  0.88032169  0.62457503  0.55793269  1
  O  O315  1  0.87318787  0.62737236  0.77906375  1
  O  O316  1  0.87383145  0.87694875  0.04374480  1
  O  O317  1  0.87303907  0.87709577  0.29989890  1
  O  O318  1  0.87630756  0.88223645  0.54775675  1
  O  O319  1  0.86701032  0.87694838  0.77452217  1
