# generated using pymatgen
data_VFe(PbO3)2
_symmetry_space_group_name_H-M   'P 1'
_cell_length_a   15.37970288
_cell_length_b   15.37290013
_cell_length_c   18.54901152
_cell_angle_alpha   89.99459325
_cell_angle_beta   89.98716079
_cell_angle_gamma   89.99969594
_symmetry_Int_Tables_number   1
_chemical_formula_structural   VFe(PbO3)2
_chemical_formula_sum   'V32 Fe32 Pb64 O192'
_cell_volume   4385.55446951
_cell_formula_units_Z   32
loop_
 _symmetry_equiv_pos_site_id
 _symmetry_equiv_pos_as_xyz
  1  'x, y, z'
loop_
 _atom_site_type_symbol
 _atom_site_label
 _atom_site_symmetry_multiplicity
 _atom_site_fract_x
 _atom_site_fract_y
 _atom_site_fract_z
 _atom_site_occupancy
  V  V0  1  0.37765816  0.87597629  0.63779951  1
  V  V1  1  0.87484744  0.62290265  0.64151957  1
  V  V2  1  0.37404941  0.37434067  0.64048996  1
  V  V3  1  0.62123724  0.62653390  0.89651088  1
  V  V4  1  0.37589436  0.37769790  0.38672159  1
  V  V5  1  0.62437816  0.87928231  0.38923269  1
  V  V6  1  0.87466237  0.37750218  0.64520120  1
  V  V7  1  0.62637049  0.12429627  0.89003380  1
  V  V8  1  0.87416796  0.87628047  0.89119772  1
  V  V9  1  0.12731938  0.12497125  0.63765418  1
  V  V10  1  0.62503095  0.87586830  0.89590701  1
  V  V11  1  0.12462471  0.37420900  0.64328125  1
  V  V12  1  0.62613518  0.62467327  0.38703471  1
  V  V13  1  0.87496852  0.62438480  0.38692826  1
  V  V14  1  0.37666233  0.37632907  0.89133581  1
  V  V15  1  0.62311739  0.12336636  0.63743910  1
  V  V16  1  0.12510680  0.87825982  0.14047470  1
  V  V17  1  0.12370577  0.12617947  0.13990451  1
  V  V18  1  0.62577071  0.37635815  0.13698906  1
  V  V19  1  0.37645524  0.12428848  0.38816546  1
  V  V20  1  0.87785815  0.12760377  0.13982577  1
  V  V21  1  0.87414822  0.37504534  0.38943336  1
  V  V22  1  0.62457379  0.37451880  0.64321204  1
  V  V23  1  0.62594012  0.62450540  0.64197433  1
  V  V24  1  0.87435259  0.62545345  0.89072902  1
  V  V25  1  0.12435164  0.62908109  0.13908783  1
  V  V26  1  0.62504093  0.12414495  0.14068583  1
  V  V27  1  0.12556779  0.37729458  0.13719232  1
  V  V28  1  0.87294362  0.12121050  0.39076800  1
  V  V29  1  0.12163960  0.12435245  0.88718888  1
  V  V30  1  0.37534503  0.62174622  0.13946236  1
  V  V31  1  0.37634046  0.12325372  0.89136179  1
  Fe  Fe32  1  0.37333909  0.87613889  0.14058315  1
  Fe  Fe33  1  0.87772868  0.62291201  0.13179584  1
  Fe  Fe34  1  0.37539491  0.12672275  0.63555103  1
  Fe  Fe35  1  0.87780881  0.37267222  0.13305211  1
  Fe  Fe36  1  0.37589841  0.87567083  0.88585484  1
  Fe  Fe37  1  0.12468432  0.62172026  0.38498547  1
  Fe  Fe38  1  0.12262694  0.12856409  0.38501185  1
  Fe  Fe39  1  0.87690447  0.87578223  0.13843690  1
  Fe  Fe40  1  0.12691515  0.37345488  0.88246318  1
  Fe  Fe41  1  0.87264144  0.12222113  0.87952337  1
  Fe  Fe42  1  0.62535048  0.87427186  0.13144060  1
  Fe  Fe43  1  0.37863161  0.62291530  0.64177722  1
  Fe  Fe44  1  0.37242716  0.37290149  0.13491687  1
  Fe  Fe45  1  0.12507463  0.62689118  0.88016469  1
  Fe  Fe46  1  0.62690746  0.12795180  0.38346569  1
  Fe  Fe47  1  0.37152862  0.12867185  0.13665243  1
  Fe  Fe48  1  0.12558023  0.37267640  0.38844630  1
  Fe  Fe49  1  0.62326019  0.37281728  0.88618739  1
  Fe  Fe50  1  0.12555945  0.62372367  0.64054973  1
  Fe  Fe51  1  0.12400861  0.87577608  0.63652704  1
  Fe  Fe52  1  0.37630715  0.62718284  0.88012622  1
  Fe  Fe53  1  0.37586023  0.62521468  0.38355018  1
  Fe  Fe54  1  0.62454516  0.37524673  0.38578266  1
  Fe  Fe55  1  0.87133270  0.87403399  0.63152117  1
  Fe  Fe56  1  0.12539063  0.87671761  0.88126262  1
  Fe  Fe57  1  0.87313865  0.37268758  0.88564164  1
  Fe  Fe58  1  0.12402222  0.87582646  0.38532460  1
  Fe  Fe59  1  0.37599946  0.87359991  0.37940709  1
  Fe  Fe60  1  0.62571452  0.62506800  0.12952739  1
  Fe  Fe61  1  0.87410462  0.87133462  0.38715474  1
  Fe  Fe62  1  0.87461366  0.12796687  0.63903269  1
  Fe  Fe63  1  0.62584955  0.87356791  0.63279498  1
  Pb  Pb64  1  -0.00548443  -0.00473426  0.00007431  1
  Pb  Pb65  1  0.00103109  -0.00952801  0.25842702  1
  Pb  Pb66  1  0.00221950  -0.00942794  0.50061086  1
  Pb  Pb67  1  -0.00296937  -0.00066673  0.74259476  1
  Pb  Pb68  1  -0.00509182  0.25567801  -0.00509310  1
  Pb  Pb69  1  0.00931242  0.25023657  0.25367911  1
  Pb  Pb70  1  -0.00680656  0.24490518  0.50291937  1
  Pb  Pb71  1  -0.00515957  0.25483931  0.75381950  1
  Pb  Pb72  1  -0.00278541  0.49646273  -0.00563193  1
  Pb  Pb73  1  0.00916903  0.49806809  0.24948560  1
  Pb  Pb74  1  0.00859365  0.50429487  0.50202368  1
  Pb  Pb75  1  0.00876615  0.49933250  0.75599772  1
  Pb  Pb76  1  -0.00504527  0.74995321  -0.00120353  1
  Pb  Pb77  1  -0.00056981  0.75705148  0.25370968  1
  Pb  Pb78  1  0.01265710  0.75683024  0.50115933  1
  Pb  Pb79  1  0.01109005  0.75663715  0.74762255  1
  Pb  Pb80  1  0.25723844  -0.00148137  0.00010766  1
  Pb  Pb81  1  0.24785611  -0.00487883  0.25095490  1
  Pb  Pb82  1  0.24550358  -0.00553586  0.49382226  1
  Pb  Pb83  1  0.25154776  -0.01050480  0.75046559  1
  Pb  Pb84  1  0.25801875  0.24834124  0.00282821  1
  Pb  Pb85  1  0.24292319  0.25093583  0.25079808  1
  Pb  Pb86  1  0.25260478  0.24619889  0.49730717  1
  Pb  Pb87  1  0.24506325  0.25216454  0.75191485  1
  Pb  Pb88  1  0.24723340  0.50341555  -0.00789919  1
  Pb  Pb89  1  0.24769611  0.50766067  0.25434730  1
  Pb  Pb90  1  0.24663226  0.51477294  0.50358738  1
  Pb  Pb91  1  0.24795177  0.50842251  0.75202473  1
  Pb  Pb92  1  0.25162749  0.75401763  -0.01087983  1
  Pb  Pb93  1  0.25247463  0.74390784  0.25494223  1
  Pb  Pb94  1  0.24653466  0.74868737  0.49359872  1
  Pb  Pb95  1  0.24886012  0.74717449  0.74584648  1
  Pb  Pb96  1  0.49730789  -0.00691901  0.00750788  1
  Pb  Pb97  1  0.49359835  -0.00415140  0.24566727  1
  Pb  Pb98  1  0.49527067  0.00308272  0.49907663  1
  Pb  Pb99  1  0.49565139  -0.00601871  0.75017435  1
  Pb  Pb100  1  0.49104388  0.24774975  0.00525928  1
  Pb  Pb101  1  0.50585839  0.25120011  0.25050804  1
  Pb  Pb102  1  0.50028274  0.24686808  0.49788955  1
  Pb  Pb103  1  0.50595059  0.25306812  0.75189669  1
  Pb  Pb104  1  0.50064331  0.49927944  0.00104461  1
  Pb  Pb105  1  0.50211328  0.49470896  0.24791681  1
  Pb  Pb106  1  0.49408440  0.50436902  0.50121386  1
  Pb  Pb107  1  0.50187126  0.49856632  0.75449669  1
  Pb  Pb108  1  0.49498266  0.75843620  0.00357000  1
  Pb  Pb109  1  0.49593996  0.75099945  0.24402939  1
  Pb  Pb110  1  0.49367915  0.74550056  0.49820356  1
  Pb  Pb111  1  0.49019252  0.75206680  0.75422786  1
  Pb  Pb112  1  0.75011768  -0.00972028  0.00570009  1
  Pb  Pb113  1  0.75128899  -0.00095718  0.24842291  1
  Pb  Pb114  1  0.75185737  -0.00810191  0.50357825  1
  Pb  Pb115  1  0.75433880  0.00244512  0.74527743  1
  Pb  Pb116  1  0.75551538  0.25599809  -0.00388282  1
  Pb  Pb117  1  0.74212338  0.24958690  0.25191627  1
  Pb  Pb118  1  0.75253448  0.24571985  0.50206172  1
  Pb  Pb119  1  0.75577857  0.25196288  0.75465981  1
  Pb  Pb120  1  0.75147963  0.50536402  0.00079954  1
  Pb  Pb121  1  0.75506403  0.50148028  0.24180381  1
  Pb  Pb122  1  0.75038570  0.50086843  0.49859090  1
  Pb  Pb123  1  0.74898794  0.49094088  0.75810263  1
  Pb  Pb124  1  0.75075789  0.74402282  0.00806615  1
  Pb  Pb125  1  0.75354166  0.75146077  0.23879238  1
  Pb  Pb126  1  0.74842432  0.75698584  0.50205667  1
  Pb  Pb127  1  0.74899574  0.75178866  0.74938309  1
  O  O128  1  0.12267583  -0.00266664  0.16276575  1
  O  O129  1  0.12205613  0.00493971  0.41440518  1
  O  O130  1  0.12698197  0.00754271  0.65967413  1
  O  O131  1  0.12825334  0.00831219  0.91461791  1
  O  O132  1  0.12321024  0.25307239  0.16217203  1
  O  O133  1  0.12449800  0.25025495  0.42166600  1
  O  O134  1  0.12766836  0.24877506  0.66694302  1
  O  O135  1  0.12984817  0.24110802  0.91285304  1
  O  O136  1  0.12620506  0.49807000  0.16023558  1
  O  O137  1  0.12419513  0.49598753  0.41914208  1
  O  O138  1  0.12428180  0.49472459  0.66727285  1
  O  O139  1  0.12369040  0.50001876  0.91154145  1
  O  O140  1  0.12613350  0.74800999  0.15923886  1
  O  O141  1  0.12227795  0.74714683  0.41266347  1
  O  O142  1  0.12471495  0.75020750  0.66218181  1
  O  O143  1  0.12199220  0.75183347  0.91093608  1
  O  O144  1  0.37237622  0.00395928  0.16632263  1
  O  O145  1  0.37902061  0.00453808  0.40966271  1
  O  O146  1  0.37834345  -0.00269136  0.66353583  1
  O  O147  1  0.37727627  0.00629773  0.91359011  1
  O  O148  1  0.37399853  0.25100746  0.16842140  1
  O  O149  1  0.37851236  0.24830255  0.41121506  1
  O  O150  1  0.37662038  0.25607510  0.66611702  1
  O  O151  1  0.37680398  0.24924362  0.91464138  1
  O  O152  1  0.37195774  0.50251106  0.16345202  1
  O  O153  1  0.37788050  0.49384390  0.41068048  1
  O  O154  1  0.37849636  0.49044437  0.66733008  1
  O  O155  1  0.37863924  0.49492168  0.90984125  1
  O  O156  1  0.37024018  0.74164318  0.16182237  1
  O  O157  1  0.37949942  0.75020767  0.41346272  1
  O  O158  1  0.37983230  0.75680660  0.66099170  1
  O  O159  1  0.37878751  0.75030882  0.91285918  1
  O  O160  1  0.62777093  0.00749597  0.16180195  1
  O  O161  1  0.62787528  -0.00377369  0.40855995  1
  O  O162  1  0.62422555  0.00651225  0.65945130  1
  O  O163  1  0.62207016  0.00573720  0.91729281  1
  O  O164  1  0.62733779  0.25087284  0.16293795  1
  O  O165  1  0.62520226  0.25120010  0.41745356  1
  O  O166  1  0.62303744  0.24989442  0.66478265  1
  O  O167  1  0.62091184  0.24125714  0.91440505  1
  O  O168  1  0.62316039  0.49436158  0.15888671  1
  O  O169  1  0.62583986  0.50504327  0.41391469  1
  O  O170  1  0.62501878  0.50090143  0.66985952  1
  O  O171  1  0.62600574  0.50568428  0.91392587  1
  O  O172  1  0.62435069  0.74858098  0.15865521  1
  O  O173  1  0.62657113  0.74353146  0.41183263  1
  O  O174  1  0.62714513  0.74212006  0.66264972  1
  O  O175  1  0.62657592  0.74859204  0.91798545  1
  O  O176  1  0.87625846  0.01038026  0.16674961  1
  O  O177  1  0.87070064  0.00511967  0.40845244  1
  O  O178  1  0.87166447  0.00154142  0.66093965  1
  O  O179  1  0.87306443  -0.00365476  0.91288208  1
  O  O180  1  0.87503121  0.24446619  0.16465353  1
  O  O181  1  0.87186227  0.25505796  0.41420052  1
  O  O182  1  0.87325634  0.25522250  0.66692034  1
  O  O183  1  0.87379115  0.24426156  0.91224458  1
  O  O184  1  0.87838014  0.49674972  0.16332817  1
  O  O185  1  0.87037540  0.50000880  0.41511438  1
  O  O186  1  0.87072433  0.50320418  0.67239384  1
  O  O187  1  0.87280886  0.50692091  0.90719369  1
  O  O188  1  0.87952733  0.74849639  0.16238375  1
  O  O189  1  0.87026018  0.73915359  0.40875199  1
  O  O190  1  0.86810739  0.73998279  0.66214923  1
  O  O191  1  0.87274595  0.75421154  0.91523792  1
  O  O192  1  -0.00250936  0.12708045  0.16379470  1
  O  O193  1  -0.01004570  0.13076837  0.41452241  1
  O  O194  1  0.00918442  0.12904277  0.66179674  1
  O  O195  1  0.00486904  0.12324908  0.90518211  1
  O  O196  1  0.00790827  0.37403489  0.16206865  1
  O  O197  1  -0.01080585  0.37595383  0.41629650  1
  O  O198  1  -0.00049149  0.37477223  0.66757456  1
  O  O199  1  0.00071236  0.37258685  0.91105225  1
  O  O200  1  0.00946416  0.62207700  0.16065337  1
  O  O201  1  -0.00988705  0.61902645  0.41009729  1
  O  O202  1  -0.00989647  0.62129750  0.66196114  1
  O  O203  1  -0.00785075  0.62857777  0.91048702  1
  O  O204  1  0.00672373  0.87469955  0.16610271  1
  O  O205  1  -0.00333020  0.87472927  0.41639271  1
  O  O206  1  -0.00414052  0.87507977  0.66116345  1
  O  O207  1  -0.00613946  0.87808013  0.91162140  1
  O  O208  1  0.24213208  0.12587934  0.16501511  1
  O  O209  1  0.25761319  0.12676922  0.41085243  1
  O  O210  1  0.24611400  0.12756826  0.66440200  1
  O  O211  1  0.25574630  0.12555556  0.91301397  1
  O  O212  1  0.24188032  0.37393820  0.16166623  1
  O  O213  1  0.26021234  0.37035708  0.41137356  1
  O  O214  1  0.25497151  0.37393958  0.66425801  1
  O  O215  1  0.25707524  0.37252746  0.91146026  1
  O  O216  1  0.24679209  0.62208082  0.16491245  1
  O  O217  1  0.25135506  0.62271700  0.41465631  1
  O  O218  1  0.25314128  0.62218169  0.66374196  1
  O  O219  1  0.25187833  0.62348736  0.90872297  1
  O  O220  1  0.24157752  0.87497860  0.16347117  1
  O  O221  1  0.25183413  0.87676966  0.41007092  1
  O  O222  1  0.25809183  0.87726031  0.65922924  1
  O  O223  1  0.24990730  0.87982213  0.91217437  1
  O  O224  1  0.50797245  0.12811561  0.16009805  1
  O  O225  1  0.49742954  0.12505182  0.41284302  1
  O  O226  1  0.50560871  0.12756832  0.66507826  1
  O  O227  1  0.49688882  0.12543964  0.91495656  1
  O  O228  1  0.50590005  0.37365992  0.16264528  1
  O  O229  1  0.49328762  0.37334823  0.41533820  1
  O  O230  1  0.49800094  0.37432449  0.66737778  1
  O  O231  1  0.49638875  0.37321442  0.91689964  1
  O  O232  1  0.49349358  0.62182684  0.15774486  1
  O  O233  1  0.50717737  0.62264358  0.41169851  1
  O  O234  1  0.50951577  0.62234534  0.66714407  1
  O  O235  1  0.50389869  0.62472490  0.91481701  1
  O  O236  1  0.50101070  0.87609697  0.16314704  1
  O  O237  1  0.50777117  0.87350227  0.41181364  1
  O  O238  1  0.49916303  0.87640865  0.66326975  1
  O  O239  1  0.50326496  0.87737694  0.91845313  1
  O  O240  1  0.75156892  0.12753007  0.16421467  1
  O  O241  1  0.75507408  0.12933849  0.41634055  1
  O  O242  1  0.73988744  0.12927966  0.66256428  1
  O  O243  1  0.74264000  0.12274169  0.91031203  1
  O  O244  1  0.74448961  0.37334043  0.15835303  1
  O  O245  1  0.75549715  0.37678404  0.41585785  1
  O  O246  1  0.74806452  0.37692511  0.66910447  1
  O  O247  1  0.74712179  0.37389298  0.91398169  1
  O  O248  1  0.75057480  0.62165539  0.16104724  1
  O  O249  1  0.74860724  0.62110111  0.41415336  1
  O  O250  1  0.74627495  0.62031368  0.67043585  1
  O  O251  1  0.75194081  0.62876274  0.91640011  1
  O  O252  1  0.75038092  0.87886853  0.16209950  1
  O  O253  1  0.74414453  0.87113860  0.41296351  1
  O  O254  1  0.74786431  0.87318617  0.66764892  1
  O  O255  1  0.75258733  0.87674057  0.91798873  1
  O  O256  1  0.12237896  0.12508465  0.04909610  1
  O  O257  1  0.12191180  0.13587759  0.28509663  1
  O  O258  1  0.12833243  0.12964671  0.54674532  1
  O  O259  1  0.12836587  0.12444574  0.79638259  1
  O  O260  1  0.12452284  0.37634074  0.04606786  1
  O  O261  1  0.11948240  0.37059320  0.28865521  1
  O  O262  1  0.12440000  0.37340973  0.55236579  1
  O  O263  1  0.12718471  0.37082796  0.78270455  1
  O  O264  1  0.12731748  0.62520871  0.04850402  1
  O  O265  1  0.12786504  0.61697689  0.28439548  1
  O  O266  1  0.12410695  0.61740541  0.53932874  1
  O  O267  1  0.12191473  0.62180751  0.77905549  1
  O  O268  1  0.12217688  0.87917401  0.04964876  1
  O  O269  1  0.11683015  0.87692799  0.28450683  1
  O  O270  1  0.11978655  0.87708089  0.53552119  1
  O  O271  1  0.12460941  0.87923817  0.78070677  1
  O  O272  1  0.37095550  0.13292314  0.03611500  1
  O  O273  1  0.37697475  0.12551213  0.29748279  1
  O  O274  1  0.38023187  0.12441767  0.53678531  1
  O  O275  1  0.37634995  0.12467302  0.80044852  1
  O  O276  1  0.37597330  0.36893110  0.03520302  1
  O  O277  1  0.37889566  0.37716271  0.29551795  1
  O  O278  1  0.37627292  0.37591056  0.54981090  1
  O  O279  1  0.37953659  0.37191249  0.80055358  1
  O  O280  1  0.37092436  0.62096717  0.04862454  1
  O  O281  1  0.36803708  0.62561071  0.28369621  1
  O  O282  1  0.38644168  0.61876930  0.54109835  1
  O  O283  1  0.38212607  0.62878569  0.77961135  1
  O  O284  1  0.37755815  0.87864355  0.03923516  1
  O  O285  1  0.37601188  0.87342342  0.27891227  1
  O  O286  1  0.38150802  0.87820022  0.54684656  1
  O  O287  1  0.38109365  0.87952182  0.78539227  1
  O  O288  1  0.62871333  0.12644951  0.05010430  1
  O  O289  1  0.63031802  0.13318257  0.28416503  1
  O  O290  1  0.62216034  0.12604547  0.54607336  1
  O  O291  1  0.62232126  0.12350253  0.79914570  1
  O  O292  1  0.62256856  0.37405212  0.04593268  1
  O  O293  1  0.62115635  0.37311235  0.28646601  1
  O  O294  1  0.62393490  0.37755630  0.55247117  1
  O  O295  1  0.61959313  0.37440007  0.78627564  1
  O  O296  1  0.63022215  0.62129171  0.02971940  1
  O  O297  1  0.62664246  0.62385273  0.29652659  1
  O  O298  1  0.62730432  0.62006577  0.55112997  1
  O  O299  1  0.62515956  0.62851468  0.80550584  1
  O  O300  1  0.62446735  0.88264654  0.03086755  1
  O  O301  1  0.62554696  0.87440941  0.29846199  1
  O  O302  1  0.63281409  0.87376360  0.53363457  1
  O  O303  1  0.62602738  0.87631181  0.80482659  1
  O  O304  1  0.87682636  0.12493130  0.04885481  1
  O  O305  1  0.87251464  0.12708487  0.29997388  1
  O  O306  1  0.87323327  0.13526489  0.53898209  1
  O  O307  1  0.87065908  0.12467851  0.77956904  1
  O  O308  1  0.88033489  0.36833845  0.03305153  1
  O  O309  1  0.87484388  0.37564823  0.29867581  1
  O  O310  1  0.87364263  0.38112766  0.55436913  1
  O  O311  1  0.87011828  0.37039183  0.78478088  1
  O  O312  1  0.87503108  0.62673963  0.03136324  1
  O  O313  1  0.87237602  0.61995782  0.29610310  1
  O  O314  1  0.86823391  0.61779112  0.55093433  1
  O  O315  1  0.87074138  0.63232160  0.80041852  1
  O  O316  1  0.88114005  0.88358576  0.03795637  1
  O  O317  1  0.88358019  0.87484040  0.28623964  1
  O  O318  1  0.86321699  0.87415847  0.53077499  1
  O  O319  1  0.87050645  0.87384870  0.80047968  1
