# generated using pymatgen
data_VFe(PbO3)2
_symmetry_space_group_name_H-M   'P 1'
_cell_length_a   15.38359541
_cell_length_b   15.37770989
_cell_length_c   18.47986254
_cell_angle_alpha   90.01390791
_cell_angle_beta   90.05102374
_cell_angle_gamma   90.00233968
_symmetry_Int_Tables_number   1
_chemical_formula_structural   VFe(PbO3)2
_chemical_formula_sum   'V32 Fe32 Pb64 O192'
_cell_volume   4371.67697161
_cell_formula_units_Z   32
loop_
 _symmetry_equiv_pos_site_id
 _symmetry_equiv_pos_as_xyz
  1  'x, y, z'
loop_
 _atom_site_type_symbol
 _atom_site_label
 _atom_site_symmetry_multiplicity
 _atom_site_fract_x
 _atom_site_fract_y
 _atom_site_fract_z
 _atom_site_occupancy
  V  V0  1  0.62242828  0.12693114  0.63950765  1
  V  V1  1  0.87706660  0.62594852  0.13876008  1
  V  V2  1  0.12759175  0.37405291  0.88942300  1
  V  V3  1  0.12609341  0.87591720  0.63405992  1
  V  V4  1  0.87857639  0.62243789  0.88295426  1
  V  V5  1  0.62507275  0.87552186  0.39102159  1
  V  V6  1  0.12383072  0.87467390  0.14570742  1
  V  V7  1  0.37338730  0.87317373  0.64243741  1
  V  V8  1  0.87641434  0.12497064  0.13975397  1
  V  V9  1  0.87782073  0.87642700  0.13722444  1
  V  V10  1  0.37713076  0.62739480  0.38707767  1
  V  V11  1  0.86886942  0.12363399  0.39502151  1
  V  V12  1  0.12266341  0.12546064  0.88594732  1
  V  V13  1  0.37737340  0.62065580  0.63937079  1
  V  V14  1  0.12640512  0.62364426  0.14587780  1
  V  V15  1  0.62235270  0.87708965  0.64230734  1
  V  V16  1  0.62116445  0.37525844  0.63821652  1
  V  V17  1  0.62663442  0.62512704  0.39075640  1
  V  V18  1  0.87337163  0.37691201  0.39541064  1
  V  V19  1  0.12663936  0.87517277  0.88691523  1
  V  V20  1  0.12877241  0.37317521  0.62995024  1
  V  V21  1  0.62369594  0.12611339  0.14024077  1
  V  V22  1  0.12447484  0.12652947  0.14916440  1
  V  V23  1  0.37414434  0.37553400  0.14000490  1
  V  V24  1  0.87673733  0.37473507  0.14253772  1
  V  V25  1  0.87385245  0.12709095  0.88820221  1
  V  V26  1  0.37212954  0.62331498  0.89034671  1
  V  V27  1  0.62167836  0.12612328  0.88714399  1
  V  V28  1  0.37800324  0.87204315  0.38764937  1
  V  V29  1  0.62600017  0.37194304  0.38758033  1
  V  V30  1  0.37609541  0.87602764  0.13807731  1
  V  V31  1  0.87559364  0.87293006  0.39670588  1
  Fe  Fe32  1  0.87264548  0.62619991  0.39494755  1
  Fe  Fe33  1  0.62599340  0.12408919  0.38436890  1
  Fe  Fe34  1  0.37195845  0.62672005  0.13430396  1
  Fe  Fe35  1  0.37126037  0.12413679  0.14819527  1
  Fe  Fe36  1  0.12621620  0.12494031  0.62903505  1
  Fe  Fe37  1  0.62691030  0.62442197  0.87685923  1
  Fe  Fe38  1  0.87805409  0.37452689  0.88214629  1
  Fe  Fe39  1  0.38004495  0.12359079  0.37710221  1
  Fe  Fe40  1  0.62885658  0.87550326  0.12952229  1
  Fe  Fe41  1  0.37451216  0.37445250  0.62861128  1
  Fe  Fe42  1  0.87382287  0.87534690  0.63306867  1
  Fe  Fe43  1  0.37441043  0.37381863  0.88671087  1
  Fe  Fe44  1  0.12751063  0.62628289  0.63968877  1
  Fe  Fe45  1  0.62557390  0.62484328  0.13180223  1
  Fe  Fe46  1  0.12115028  0.37617088  0.14973017  1
  Fe  Fe47  1  0.12509165  0.62384985  0.87885405  1
  Fe  Fe48  1  0.62779247  0.37507602  0.13396136  1
  Fe  Fe49  1  0.37959001  0.37864498  0.38924977  1
  Fe  Fe50  1  0.62079003  0.62534207  0.64809310  1
  Fe  Fe51  1  0.37273955  0.87594882  0.88589947  1
  Fe  Fe52  1  0.62607885  0.37406229  0.88798947  1
  Fe  Fe53  1  0.37664685  0.12357686  0.63774186  1
  Fe  Fe54  1  0.87338442  0.12440462  0.63310649  1
  Fe  Fe55  1  0.87860127  0.87528275  0.88198751  1
  Fe  Fe56  1  0.87519698  0.37361104  0.63178798  1
  Fe  Fe57  1  0.12490604  0.62652585  0.38750365  1
  Fe  Fe58  1  0.12439452  0.12380489  0.38886058  1
  Fe  Fe59  1  0.12409252  0.37551211  0.38072135  1
  Fe  Fe60  1  0.62567119  0.87652466  0.88963531  1
  Fe  Fe61  1  0.87337582  0.62489292  0.62940438  1
  Fe  Fe62  1  0.12495682  0.87468001  0.38608183  1
  Fe  Fe63  1  0.37043544  0.12618177  0.88597320  1
  Pb  Pb64  1  0.00336856  0.00165853  -0.00251181  1
  Pb  Pb65  1  0.00398325  0.00027987  0.25809053  1
  Pb  Pb66  1  0.00313920  0.00548091  0.50225908  1
  Pb  Pb67  1  -0.00586444  -0.00042688  0.74231042  1
  Pb  Pb68  1  0.01008580  0.25684649  0.00446355  1
  Pb  Pb69  1  0.00529746  0.24724880  0.25926752  1
  Pb  Pb70  1  -0.00079957  0.24770622  0.49893912  1
  Pb  Pb71  1  -0.00447074  0.25261073  0.74038630  1
  Pb  Pb72  1  0.00755074  0.49328965  0.00050203  1
  Pb  Pb73  1  -0.00305207  0.51273091  0.26131531  1
  Pb  Pb74  1  0.00351713  0.50699121  0.49959904  1
  Pb  Pb75  1  -0.00252663  0.50073910  0.73921226  1
  Pb  Pb76  1  -0.00013078  0.74736799  -0.00639377  1
  Pb  Pb77  1  -0.00013262  0.74523786  0.25848151  1
  Pb  Pb78  1  0.00472443  0.73956786  0.50493125  1
  Pb  Pb79  1  -0.00589858  0.74943648  0.74182546  1
  Pb  Pb80  1  0.25771036  0.00677595  0.00355294  1
  Pb  Pb81  1  0.24061208  0.00022502  0.25849215  1
  Pb  Pb82  1  0.24973150  0.01406836  0.49618787  1
  Pb  Pb83  1  0.25758431  0.00523660  0.74917101  1
  Pb  Pb84  1  0.25664290  0.24534984  0.00574454  1
  Pb  Pb85  1  0.25268707  0.26056728  0.26080695  1
  Pb  Pb86  1  0.25416941  0.25009159  0.48793933  1
  Pb  Pb87  1  0.25927664  0.24668545  0.74365768  1
  Pb  Pb88  1  0.25134826  0.50166351  0.00268222  1
  Pb  Pb89  1  0.25142354  0.49237933  0.25614674  1
  Pb  Pb90  1  0.24983393  0.49397792  0.49416579  1
  Pb  Pb91  1  0.24629040  0.50023941  0.74700376  1
  Pb  Pb92  1  0.25350373  0.74470558  0.00061113  1
  Pb  Pb93  1  0.24057211  0.75168763  0.25454229  1
  Pb  Pb94  1  0.24402858  0.74626525  0.50075316  1
  Pb  Pb95  1  0.25106761  0.74964129  0.75219175  1
  Pb  Pb96  1  0.49679307  -0.00248403  -0.00164236  1
  Pb  Pb97  1  0.50218312  0.00795259  0.25077355  1
  Pb  Pb98  1  0.49492012  0.00771287  0.49978771  1
  Pb  Pb99  1  0.49856761  -0.00813889  0.75713579  1
  Pb  Pb100  1  0.49671904  0.25397029  -0.00066679  1
  Pb  Pb101  1  0.49163047  0.25240538  0.25341281  1
  Pb  Pb102  1  0.48615931  0.24534924  0.49897732  1
  Pb  Pb103  1  0.49209230  0.25333056  0.75159421  1
  Pb  Pb104  1  0.50775472  0.50319573  -0.00280574  1
  Pb  Pb105  1  0.50023338  0.49906455  0.24311984  1
  Pb  Pb106  1  0.50875631  0.50482998  0.50304812  1
  Pb  Pb107  1  0.50165321  0.48477387  0.75776400  1
  Pb  Pb108  1  0.50691688  0.74745311  -0.00482835  1
  Pb  Pb109  1  0.50390085  0.74810107  0.24081464  1
  Pb  Pb110  1  0.50865186  0.74431762  0.50605286  1
  Pb  Pb111  1  0.50287589  0.75499361  0.75815427  1
  Pb  Pb112  1  0.75041634  -0.00572888  -0.00223308  1
  Pb  Pb113  1  0.74655193  0.00261817  0.24946935  1
  Pb  Pb114  1  0.75623432  -0.00236671  0.50706790  1
  Pb  Pb115  1  0.75095111  -0.00881494  0.75141661  1
  Pb  Pb116  1  0.74997296  0.25904210  -0.00022670  1
  Pb  Pb117  1  0.74625161  0.24559569  0.25151811  1
  Pb  Pb118  1  0.75571835  0.25095375  0.50616132  1
  Pb  Pb119  1  0.75116244  0.25944949  0.74987901  1
  Pb  Pb120  1  0.74301573  0.50132666  -0.00499066  1
  Pb  Pb121  1  0.75184782  0.50507567  0.24859746  1
  Pb  Pb122  1  0.75325391  0.50335596  0.50631920  1
  Pb  Pb123  1  0.74972503  0.49957968  0.74504323  1
  Pb  Pb124  1  0.74404489  0.74941264  -0.00692495  1
  Pb  Pb125  1  0.75368789  0.74865761  0.24553112  1
  Pb  Pb126  1  0.75360429  0.74859356  0.50817623  1
  Pb  Pb127  1  0.74839396  0.74621893  0.74718637  1
  O  O128  1  0.12041706  0.00186807  0.17034824  1
  O  O129  1  0.12427280  -0.00346733  0.41579892  1
  O  O130  1  0.12921451  -0.00917530  0.65928293  1
  O  O131  1  0.12223367  -0.00154121  0.91259326  1
  O  O132  1  0.12023379  0.24404054  0.16930253  1
  O  O133  1  0.12115131  0.25070971  0.40891153  1
  O  O134  1  0.12669215  0.25635381  0.65359977  1
  O  O135  1  0.12314134  0.25238738  0.91544729  1
  O  O136  1  0.12183598  0.50778756  0.16787437  1
  O  O137  1  0.12306718  0.50017891  0.41105381  1
  O  O138  1  0.12868260  0.49351671  0.65868416  1
  O  O139  1  0.12429785  0.49406988  0.91230855  1
  O  O140  1  0.12163369  0.74746344  0.16841896  1
  O  O141  1  0.12648133  0.75254590  0.41774363  1
  O  O142  1  0.13030115  0.75950623  0.66321716  1
  O  O143  1  0.12468897  0.75549987  0.90903854  1
  O  O144  1  0.37112985  -0.00933737  0.16707065  1
  O  O145  1  0.38288408  -0.01042250  0.40696402  1
  O  O146  1  0.37607533  -0.00740063  0.66339760  1
  O  O147  1  0.37127708  0.00222469  0.91794077  1
  O  O148  1  0.37423555  0.25601018  0.16627580  1
  O  O149  1  0.38074011  0.24971086  0.40628104  1
  O  O150  1  0.37719701  0.25050347  0.66071236  1
  O  O151  1  0.37140350  0.24901558  0.92027068  1
  O  O152  1  0.37223517  0.49551031  0.16236455  1
  O  O153  1  0.38109276  0.51159445  0.41107257  1
  O  O154  1  0.37454417  0.50411166  0.65761499  1
  O  O155  1  0.37049096  0.50392532  0.91492937  1
  O  O156  1  0.36956564  0.75851694  0.16292178  1
  O  O157  1  0.38276259  0.74739861  0.41586783  1
  O  O158  1  0.37602017  0.75329579  0.66634355  1
  O  O159  1  0.36962487  0.74507891  0.91324867  1
  O  O160  1  0.62828650  0.00376403  0.16200819  1
  O  O161  1  0.62422473  -0.00874443  0.41257837  1
  O  O162  1  0.62143745  -0.00254671  0.66433131  1
  O  O163  1  0.62883898  0.01093347  0.91578953  1
  O  O164  1  0.62830484  0.24539264  0.16331275  1
  O  O165  1  0.62780441  0.25674504  0.40699795  1
  O  O166  1  0.62131977  0.24782364  0.65988665  1
  O  O167  1  0.63007493  0.24068872  0.91552419  1
  O  O168  1  0.62796447  0.49900259  0.16423569  1
  O  O169  1  0.62702367  0.50201732  0.41554867  1
  O  O170  1  0.62121081  0.49143529  0.66193255  1
  O  O171  1  0.62628691  0.50243068  0.91049870  1
  O  O172  1  0.62804661  0.75201259  0.16199768  1
  O  O173  1  0.62465464  0.75144044  0.41837421  1
  O  O174  1  0.61871331  0.75898331  0.66622036  1
  O  O175  1  0.62620804  0.74733038  0.90945030  1
  O  O176  1  0.87630576  0.00175426  0.16578824  1
  O  O177  1  0.86736831  -0.00038139  0.41589403  1
  O  O178  1  0.87157406  -0.00010095  0.66335786  1
  O  O179  1  0.88184613  0.00824022  0.91456823  1
  O  O180  1  0.87502524  0.24994723  0.16773128  1
  O  O181  1  0.86866663  0.24888791  0.41476929  1
  O  O182  1  0.87185623  0.24893691  0.66294299  1
  O  O183  1  0.88080766  0.24259337  0.91408468  1
  O  O184  1  0.87623752  0.49743329  0.16482421  1
  O  O185  1  0.87037618  0.49404541  0.41527754  1
  O  O186  1  0.87267340  0.49829072  0.65804471  1
  O  O187  1  0.88046359  0.50566062  0.90826163  1
  O  O188  1  0.87719239  0.75072188  0.16466927  1
  O  O189  1  0.86845405  0.75728829  0.41536078  1
  O  O190  1  0.87406640  0.75112701  0.66038576  1
  O  O191  1  0.88050548  0.74390402  0.90939194  1
  O  O192  1  -0.00141902  0.12443393  0.17177777  1
  O  O193  1  -0.01194710  0.12288439  0.41405504  1
  O  O194  1  0.00168235  0.12333603  0.65882440  1
  O  O195  1  0.00232743  0.12558519  0.91703043  1
  O  O196  1  -0.01027190  0.37384070  0.17290044  1
  O  O197  1  -0.00889281  0.37293839  0.41072641  1
  O  O198  1  0.00785497  0.37464400  0.65415976  1
  O  O199  1  0.00550199  0.37373848  0.91630583  1
  O  O200  1  -0.00004071  0.62608739  0.17038129  1
  O  O201  1  -0.00135925  0.62722199  0.41727849  1
  O  O202  1  0.00070119  0.62558991  0.65851912  1
  O  O203  1  -0.00032896  0.62520071  0.91135085  1
  O  O204  1  -0.00147588  0.87539404  0.16975878  1
  O  O205  1  -0.00846023  0.87750510  0.41167437  1
  O  O206  1  0.00754149  0.87544816  0.65221955  1
  O  O207  1  0.00631004  0.87603562  0.91544857  1
  O  O208  1  0.24048973  0.12316958  0.17006460  1
  O  O209  1  0.25534227  0.12050358  0.40297806  1
  O  O210  1  0.24944737  0.12258268  0.66129985  1
  O  O211  1  0.24084858  0.12573801  0.91690088  1
  O  O212  1  0.25365785  0.37493913  0.16681282  1
  O  O213  1  0.25116937  0.37832278  0.40907931  1
  O  O214  1  0.24613454  0.37562323  0.65629095  1
  O  O215  1  0.24316298  0.37400869  0.91497921  1
  O  O216  1  0.24359695  0.62707899  0.16611147  1
  O  O217  1  0.26024581  0.62891282  0.40791320  1
  O  O218  1  0.25933762  0.62848790  0.66557805  1
  O  O219  1  0.24911719  0.62397086  0.91590947  1
  O  O220  1  0.24674320  0.87571127  0.16828823  1
  O  O221  1  0.26284807  0.86995755  0.40862591  1
  O  O222  1  0.25349050  0.87415471  0.66237043  1
  O  O223  1  0.24165701  0.87675920  0.91360583  1
  O  O224  1  0.50657976  0.12336082  0.15979210  1
  O  O225  1  0.50311245  0.12166669  0.41307095  1
  O  O226  1  0.50754160  0.12122158  0.66664293  1
  O  O227  1  0.50555312  0.12611662  0.90851051  1
  O  O228  1  0.49526568  0.37497912  0.15973104  1
  O  O229  1  0.51132569  0.38072207  0.41039357  1
  O  O230  1  0.50276216  0.37315783  0.66283704  1
  O  O231  1  0.49951133  0.37278777  0.91775830  1
  O  O232  1  0.49761409  0.62644665  0.16103971  1
  O  O233  1  0.50247901  0.62747524  0.41629590  1
  O  O234  1  0.48902747  0.62800790  0.66975798  1
  O  O235  1  0.49236392  0.62481302  0.90662518  1
  O  O236  1  0.49421514  0.87521892  0.15511497  1
  O  O237  1  0.50343706  0.86971807  0.41575812  1
  O  O238  1  0.49800480  0.87601719  0.66756281  1
  O  O239  1  0.49787696  0.87744775  0.91636059  1
  O  O240  1  0.75085366  0.12457786  0.16603970  1
  O  O241  1  0.75061511  0.12404222  0.41748621  1
  O  O242  1  0.73802346  0.12294129  0.66463114  1
  O  O243  1  0.75653382  0.12460102  0.90946266  1
  O  O244  1  0.75872134  0.37351670  0.16673730  1
  O  O245  1  0.74580122  0.37694530  0.41804593  1
  O  O246  1  0.74045441  0.37108344  0.65936659  1
  O  O247  1  0.75500732  0.37218169  0.91376088  1
  O  O248  1  0.75595604  0.62515254  0.16405308  1
  O  O249  1  0.74344923  0.62668356  0.41622469  1
  O  O250  1  0.74851163  0.62599683  0.66258671  1
  O  O251  1  0.76031123  0.62504340  0.90373790  1
  O  O252  1  0.75676134  0.87624232  0.16233499  1
  O  O253  1  0.74336864  0.87371453  0.41777322  1
  O  O254  1  0.74064994  0.87598002  0.66133162  1
  O  O255  1  0.75522293  0.87877971  0.91215508  1
  O  O256  1  0.12132631  0.12425547  0.05767916  1
  O  O257  1  0.11433191  0.11746894  0.28751399  1
  O  O258  1  0.12461944  0.11784471  0.52778984  1
  O  O259  1  0.12315936  0.12657586  0.79495853  1
  O  O260  1  0.11369643  0.37690374  0.04886737  1
  O  O261  1  0.12898140  0.37344395  0.27800779  1
  O  O262  1  0.12953892  0.37653632  0.53843734  1
  O  O263  1  0.12697888  0.37243755  0.79868847  1
  O  O264  1  0.12300062  0.62555624  0.05427165  1
  O  O265  1  0.11795936  0.63217045  0.28661677  1
  O  O266  1  0.12821938  0.63282696  0.53812102  1
  O  O267  1  0.13232336  0.62132490  0.77908597  1
  O  O268  1  0.12395860  0.87444510  0.05469957  1
  O  O269  1  0.12675424  0.87511900  0.28509530  1
  O  O270  1  0.13323490  0.87343159  0.54271725  1
  O  O271  1  0.12514867  0.87712203  0.79606515  1
  O  O272  1  0.36381923  0.12438482  0.04719630  1
  O  O273  1  0.38756882  0.12395020  0.27426059  1
  O  O274  1  0.38375110  0.12181258  0.53625334  1
  O  O275  1  0.36645232  0.12681619  0.78523997  1
  O  O276  1  0.37051588  0.37282051  0.04830305  1
  O  O277  1  0.37617114  0.37758953  0.28741597  1
  O  O278  1  0.37649544  0.37405988  0.52790800  1
  O  O279  1  0.38103990  0.37254025  0.78643507  1
  O  O280  1  0.36423975  0.62600537  0.03502825  1
  O  O281  1  0.38055183  0.62964262  0.29585606  1
  O  O282  1  0.37918392  0.62662379  0.54789212  1
  O  O283  1  0.36645187  0.62288271  0.79918624  1
  O  O284  1  0.36842797  0.87852527  0.04641770  1
  O  O285  1  0.38220511  0.86805006  0.29694996  1
  O  O286  1  0.37618070  0.87163460  0.55161665  1
  O  O287  1  0.37527804  0.87736381  0.78606893  1
  O  O288  1  0.62829238  0.12599397  0.04933933  1
  O  O289  1  0.62810715  0.11958400  0.28424593  1
  O  O290  1  0.62091116  0.12360813  0.54797093  1
  O  O291  1  0.62553620  0.12583546  0.79626810  1
  O  O292  1  0.63347952  0.37381795  0.03396695  1
  O  O293  1  0.62947662  0.37704914  0.29604033  1
  O  O294  1  0.61875135  0.37482489  0.54689838  1
  O  O295  1  0.62032451  0.37280712  0.78708729  1
  O  O296  1  0.62867794  0.62362195  0.03153146  1
  O  O297  1  0.62511981  0.62694142  0.29940198  1
  O  O298  1  0.61277493  0.62494174  0.54604078  1
  O  O299  1  0.62600937  0.62594997  0.77531502  1
  O  O300  1  0.63121379  0.87722728  0.02938290  1
  O  O301  1  0.62571168  0.87270446  0.29978858  1
  O  O302  1  0.61831660  0.87587219  0.55095321  1
  O  O303  1  0.61911764  0.88216829  0.78852145  1
  O  O304  1  0.87809389  0.12652302  0.04899808  1
  O  O305  1  0.86763510  0.12399216  0.30356710  1
  O  O306  1  0.86855484  0.12577153  0.53251821  1
  O  O307  1  0.87778207  0.12600722  0.79695033  1
  O  O308  1  0.87967814  0.37378273  0.05105899  1
  O  O309  1  0.86758056  0.37381122  0.30433381  1
  O  O310  1  0.86827563  0.36850089  0.53098194  1
  O  O311  1  0.87613334  0.36853738  0.78234443  1
  O  O312  1  0.87984192  0.62517791  0.04789486  1
  O  O313  1  0.87771689  0.62337676  0.29336630  1
  O  O314  1  0.87015903  0.62606548  0.52677532  1
  O  O315  1  0.88215981  0.62394906  0.79139512  1
  O  O316  1  0.88100739  0.87595752  0.04603237  1
  O  O317  1  0.86871580  0.87552275  0.30547974  1
  O  O318  1  0.86387671  0.87713747  0.53220958  1
  O  O319  1  0.87939245  0.88073833  0.78225130  1
