# generated using pymatgen
data_VFe(PbO3)2
_symmetry_space_group_name_H-M   'P 1'
_cell_length_a   15.38568539
_cell_length_b   15.39213014
_cell_length_c   18.47969048
_cell_angle_alpha   89.95910279
_cell_angle_beta   90.04782175
_cell_angle_gamma   89.99815722
_symmetry_Int_Tables_number   1
_chemical_formula_structural   VFe(PbO3)2
_chemical_formula_sum   'V32 Fe32 Pb64 O192'
_cell_volume   4376.32941750
_cell_formula_units_Z   32
loop_
 _symmetry_equiv_pos_site_id
 _symmetry_equiv_pos_as_xyz
  1  'x, y, z'
loop_
 _atom_site_type_symbol
 _atom_site_label
 _atom_site_symmetry_multiplicity
 _atom_site_fract_x
 _atom_site_fract_y
 _atom_site_fract_z
 _atom_site_occupancy
  V  V0  1  0.12357458  0.12182465  0.63339299  1
  V  V1  1  0.62242767  0.87429084  0.14066145  1
  V  V2  1  0.12663816  0.87476416  0.38547086  1
  V  V3  1  0.62225053  0.37664878  0.14428068  1
  V  V4  1  0.87464648  0.37370275  0.88876405  1
  V  V5  1  0.87893042  0.62340979  0.14092215  1
  V  V6  1  0.37532006  0.12666472  0.14130675  1
  V  V7  1  0.37617649  0.38463120  0.39584589  1
  V  V8  1  0.12755409  0.12684706  0.38477327  1
  V  V9  1  0.87569103  0.87278913  0.63804423  1
  V  V10  1  0.62690309  0.87320947  0.38852182  1
  V  V11  1  0.12583934  0.12522586  0.14267925  1
  V  V12  1  0.37814975  0.87463344  0.39153777  1
  V  V13  1  0.12937896  0.62525213  0.13971149  1
  V  V14  1  0.62584985  0.37471315  0.40024493  1
  V  V15  1  0.62726517  0.37020658  0.88561907  1
  V  V16  1  0.37593509  0.87518175  0.13888823  1
  V  V17  1  0.37862635  0.62403515  0.13928553  1
  V  V18  1  0.62777184  0.62479770  0.13753120  1
  V  V19  1  0.62335578  0.12596712  0.14367040  1
  V  V20  1  0.37409754  0.12619845  0.88880915  1
  V  V21  1  0.87633596  0.12708149  0.89363261  1
  V  V22  1  0.37367804  0.87680292  0.88684953  1
  V  V23  1  0.87856832  0.62898049  0.39324557  1
  V  V24  1  0.37373283  0.62849826  0.63973061  1
  V  V25  1  0.12229600  0.37362432  0.89080139  1
  V  V26  1  0.12409156  0.12842020  0.89418965  1
  V  V27  1  0.37376959  0.87728091  0.64017979  1
  V  V28  1  0.87682416  0.12014426  0.63162605  1
  V  V29  1  0.87749702  0.62316823  0.88851982  1
  V  V30  1  0.62148613  0.62489156  0.39477407  1
  V  V31  1  0.37659295  0.12658433  0.40454045  1
  Fe  Fe32  1  0.37757379  0.37444371  0.13914188  1
  Fe  Fe33  1  0.37170230  0.11961344  0.62445484  1
  Fe  Fe34  1  0.12913570  0.87549791  0.13517227  1
  Fe  Fe35  1  0.62313152  0.12455526  0.39600551  1
  Fe  Fe36  1  0.87382231  0.37856198  0.14809355  1
  Fe  Fe37  1  0.12335456  0.37410658  0.62368005  1
  Fe  Fe38  1  0.62764904  0.88045147  0.88197313  1
  Fe  Fe39  1  0.12364661  0.87769642  0.89150148  1
  Fe  Fe40  1  0.87394463  0.12719230  0.14721954  1
  Fe  Fe41  1  0.87571103  0.87567171  0.88489533  1
  Fe  Fe42  1  0.62553026  0.12209834  0.62411016  1
  Fe  Fe43  1  0.12864004  0.37662509  0.39136671  1
  Fe  Fe44  1  0.87518992  0.87306611  0.14449093  1
  Fe  Fe45  1  0.87379957  0.37656441  0.38999862  1
  Fe  Fe46  1  0.12406421  0.87555666  0.63777940  1
  Fe  Fe47  1  0.62874721  0.62322335  0.88079332  1
  Fe  Fe48  1  0.37293941  0.62013609  0.87997757  1
  Fe  Fe49  1  0.37258186  0.37446643  0.63201726  1
  Fe  Fe50  1  0.37382568  0.37069862  0.87905491  1
  Fe  Fe51  1  0.87526945  0.87181169  0.37814711  1
  Fe  Fe52  1  0.12334752  0.62785821  0.63049513  1
  Fe  Fe53  1  0.37775245  0.63126353  0.38819323  1
  Fe  Fe54  1  0.62871392  0.12851429  0.88547558  1
  Fe  Fe55  1  0.62484231  0.87614297  0.64177684  1
  Fe  Fe56  1  0.12830269  0.37537762  0.14355784  1
  Fe  Fe57  1  0.87610761  0.37284749  0.62278011  1
  Fe  Fe58  1  0.87562398  0.62610902  0.62779590  1
  Fe  Fe59  1  0.12260147  0.62271505  0.88534844  1
  Fe  Fe60  1  0.62626450  0.62645986  0.63961572  1
  Fe  Fe61  1  0.87674446  0.12068577  0.37884716  1
  Fe  Fe62  1  0.12967554  0.62772077  0.38986434  1
  Fe  Fe63  1  0.62617880  0.37427061  0.62530396  1
  Pb  Pb64  1  -0.00647614  -0.01022638  0.01001752  1
  Pb  Pb65  1  -0.00571441  -0.00380378  0.24735594  1
  Pb  Pb66  1  -0.00040941  -0.00679742  0.49267364  1
  Pb  Pb67  1  -0.00250742  -0.00995686  0.75516319  1
  Pb  Pb68  1  -0.00780392  0.24743577  0.01190593  1
  Pb  Pb69  1  -0.00598007  0.25597703  0.25424120  1
  Pb  Pb70  1  -0.00284194  0.25808793  0.49204987  1
  Pb  Pb71  1  -0.00021977  0.25042467  0.73979913  1
  Pb  Pb72  1  0.00126996  0.48600791  0.00639119  1
  Pb  Pb73  1  0.00717940  0.48903848  0.26136286  1
  Pb  Pb74  1  0.00188132  0.49517992  0.49645948  1
  Pb  Pb75  1  0.00221961  0.50160161  0.73309702  1
  Pb  Pb76  1  0.00123162  0.75653279  -0.00074891  1
  Pb  Pb77  1  0.00467863  0.74930713  0.24936877  1
  Pb  Pb78  1  0.01100774  0.75156723  0.50305431  1
  Pb  Pb79  1  0.00834831  0.74723288  0.74859981  1
  Pb  Pb80  1  0.24367473  0.00007418  0.00366582  1
  Pb  Pb81  1  0.25553647  0.00045574  0.25150210  1
  Pb  Pb82  1  0.24854703  -0.00265068  0.50172575  1
  Pb  Pb83  1  0.24276313  -0.00550455  0.74964598  1
  Pb  Pb84  1  0.24761865  0.26136565  0.00590524  1
  Pb  Pb85  1  0.25051399  0.25820670  0.25414021  1
  Pb  Pb86  1  0.25506750  0.25568926  0.50616102  1
  Pb  Pb87  1  0.25595791  0.25571306  0.74016828  1
  Pb  Pb88  1  0.25351911  0.49435152  -0.00326664  1
  Pb  Pb89  1  0.24304000  0.50037467  0.25726887  1
  Pb  Pb90  1  0.24276133  0.50568446  0.50045530  1
  Pb  Pb91  1  0.24824540  0.50103492  0.74226775  1
  Pb  Pb92  1  0.24531895  0.74749933  -0.00572498  1
  Pb  Pb93  1  0.25186869  0.73835793  0.25412926  1
  Pb  Pb94  1  0.24486012  0.74985204  0.50327815  1
  Pb  Pb95  1  0.24402970  0.74164127  0.75270502  1
  Pb  Pb96  1  0.50498593  0.00370599  -0.00347262  1
  Pb  Pb97  1  0.50689377  0.00611406  0.25702353  1
  Pb  Pb98  1  0.50996590  -0.00424328  0.50836499  1
  Pb  Pb99  1  0.51260949  0.00855186  0.74648381  1
  Pb  Pb100  1  0.49467335  0.25730182  -0.00107720  1
  Pb  Pb101  1  0.50737698  0.24459463  0.25969724  1
  Pb  Pb102  1  0.49904692  0.25873719  0.51036532  1
  Pb  Pb103  1  0.49826339  0.24691410  0.73314141  1
  Pb  Pb104  1  0.49584584  0.49798773  -0.00979681  1
  Pb  Pb105  1  0.49657811  0.50577848  0.25274818  1
  Pb  Pb106  1  0.50824407  0.50284178  0.50979726  1
  Pb  Pb107  1  0.49578506  0.49561752  0.74251166  1
  Pb  Pb108  1  0.50405959  0.74652937  -0.01138016  1
  Pb  Pb109  1  0.49512951  0.74631786  0.25162993  1
  Pb  Pb110  1  0.51273014  0.75270577  0.51020052  1
  Pb  Pb111  1  0.50262557  0.74361773  0.75168977  1
  Pb  Pb112  1  0.75764653  -0.00147330  0.00238408  1
  Pb  Pb113  1  0.75571251  0.00320071  0.25338814  1
  Pb  Pb114  1  0.74789516  0.00079910  0.49434367  1
  Pb  Pb115  1  0.74756970  -0.00197488  0.74980312  1
  Pb  Pb116  1  0.76046366  0.24858508  0.01002044  1
  Pb  Pb117  1  0.75581474  0.24862986  0.25839708  1
  Pb  Pb118  1  0.75544628  0.24634534  0.49346806  1
  Pb  Pb119  1  0.74378994  0.24664117  0.73655424  1
  Pb  Pb120  1  0.75564742  0.49315750  -0.00023470  1
  Pb  Pb121  1  0.75329043  0.49691131  0.25879030  1
  Pb  Pb122  1  0.75463508  0.50879814  0.50618900  1
  Pb  Pb123  1  0.75017109  0.49954742  0.73516390  1
  Pb  Pb124  1  0.75321524  0.75607981  -0.00524400  1
  Pb  Pb125  1  0.75238740  0.75052985  0.25238850  1
  Pb  Pb126  1  0.75060113  0.74382781  0.50556448  1
  Pb  Pb127  1  0.74464335  0.74785488  0.74880838  1
  O  O128  1  0.13006510  0.00585302  0.16542961  1
  O  O129  1  0.12621315  -0.00660773  0.40991671  1
  O  O130  1  0.12238667  0.00458827  0.66357015  1
  O  O131  1  0.12354739  0.01232127  0.91915993  1
  O  O132  1  0.13022015  0.24287969  0.16817723  1
  O  O133  1  0.12968112  0.24178279  0.40275273  1
  O  O134  1  0.12213173  0.23996729  0.65651695  1
  O  O135  1  0.12271080  0.25008538  0.92064260  1
  O  O136  1  0.12652126  0.51014848  0.16723188  1
  O  O137  1  0.12907186  0.50299156  0.41374911  1
  O  O138  1  0.12417519  0.50057570  0.65169596  1
  O  O139  1  0.12264436  0.49033942  0.91311439  1
  O  O140  1  0.12572617  0.74317579  0.16276173  1
  O  O141  1  0.12701436  0.75782165  0.41261847  1
  O  O142  1  0.12489917  0.75197178  0.66545727  1
  O  O143  1  0.12434278  0.74979752  0.91513159  1
  O  O144  1  0.37791391  0.00093304  0.16783885  1
  O  O145  1  0.37167308  -0.00981466  0.42048472  1
  O  O146  1  0.36989052  -0.00556566  0.65966507  1
  O  O147  1  0.37103284  0.00734828  0.91582583  1
  O  O148  1  0.37812456  0.24528381  0.17039611  1
  O  O149  1  0.37131211  0.24311375  0.41424817  1
  O  O150  1  0.37029362  0.24370561  0.65537036  1
  O  O151  1  0.37089435  0.24444387  0.91387253  1
  O  O152  1  0.37959070  0.50542771  0.16462403  1
  O  O153  1  0.37736632  0.49945330  0.41137734  1
  O  O154  1  0.37347747  0.50713070  0.65599321  1
  O  O155  1  0.37492309  0.49380941  0.91080821  1
  O  O156  1  0.37976699  0.74959598  0.16550317  1
  O  O157  1  0.37564587  0.76033151  0.41677633  1
  O  O158  1  0.37303211  0.75077374  0.66603940  1
  O  O159  1  0.37461979  0.75959596  0.90621420  1
  O  O160  1  0.62038058  -0.00331734  0.16564886  1
  O  O161  1  0.61991682  -0.01028579  0.41218962  1
  O  O162  1  0.62658191  0.00197299  0.66279454  1
  O  O163  1  0.62545414  0.00530628  0.91886536  1
  O  O164  1  0.62121689  0.25425258  0.16931570  1
  O  O165  1  0.61965260  0.25572573  0.41487111  1
  O  O166  1  0.62682199  0.24652211  0.65246587  1
  O  O167  1  0.62820670  0.25499995  0.91706624  1
  O  O168  1  0.62255326  0.49883633  0.16650593  1
  O  O169  1  0.61815067  0.49904998  0.41814927  1
  O  O170  1  0.62476121  0.49871569  0.65747060  1
  O  O171  1  0.62751026  0.48876591  0.90966755  1
  O  O172  1  0.62228949  0.75237598  0.16232601  1
  O  O173  1  0.62071619  0.75499522  0.41571096  1
  O  O174  1  0.62453266  0.75238906  0.66714766  1
  O  O175  1  0.62549781  0.75223262  0.91001312  1
  O  O176  1  0.87263045  -0.00040169  0.16530202  1
  O  O177  1  0.87701249  -0.00503595  0.40759801  1
  O  O178  1  0.87866704  0.00423415  0.66245044  1
  O  O179  1  0.87837019  0.01036763  0.91460198  1
  O  O180  1  0.87240668  0.25346456  0.17183854  1
  O  O181  1  0.87498233  0.24653093  0.40605689  1
  O  O182  1  0.87897181  0.23841743  0.65478220  1
  O  O183  1  0.87709088  0.25072255  0.92217485  1
  O  O184  1  0.87080248  0.50984705  0.17159818  1
  O  O185  1  0.86931251  0.50991850  0.41278161  1
  O  O186  1  0.87657796  0.49843294  0.65180534  1
  O  O187  1  0.87540785  0.49705308  0.91651804  1
  O  O188  1  0.87086368  0.74019594  0.16668132  1
  O  O189  1  0.86886510  0.74730563  0.41297502  1
  O  O190  1  0.87534968  0.75811759  0.65595915  1
  O  O191  1  0.87591056  0.74218531  0.91038193  1
  O  O192  1  0.00948440  0.12592640  0.16425432  1
  O  O193  1  0.01032565  0.11849379  0.40596655  1
  O  O194  1  0.00075854  0.12171253  0.66206720  1
  O  O195  1  0.00088994  0.13157374  0.91955813  1
  O  O196  1  0.00201192  0.37907929  0.17059593  1
  O  O197  1  0.00099215  0.37712241  0.40658204  1
  O  O198  1  0.00021505  0.36917174  0.65668446  1
  O  O199  1  0.00091512  0.37184340  0.91778795  1
  O  O200  1  -0.00258362  0.62606548  0.15994930  1
  O  O201  1  -0.00481053  0.62905017  0.40653839  1
  O  O202  1  -0.00216899  0.62959826  0.65918795  1
  O  O203  1  -0.00709399  0.61940619  0.91720884  1
  O  O204  1  0.00434530  0.87215987  0.16477302  1
  O  O205  1  0.00619718  0.87196521  0.40439862  1
  O  O206  1  -0.00616813  0.87972847  0.66468303  1
  O  O207  1  -0.00195744  0.87879852  0.92000646  1
  O  O208  1  0.25223282  0.12372720  0.16927132  1
  O  O209  1  0.24259797  0.11587129  0.41672291  1
  O  O210  1  0.24064954  0.12076164  0.65588144  1
  O  O211  1  0.24610571  0.12843991  0.91636876  1
  O  O212  1  0.25430172  0.37665189  0.17059679  1
  O  O213  1  0.25903358  0.37239169  0.41513715  1
  O  O214  1  0.24611538  0.37273829  0.65700033  1
  O  O215  1  0.24222202  0.37043469  0.91120319  1
  O  O216  1  0.25006926  0.62765709  0.16003594  1
  O  O217  1  0.25562137  0.63002467  0.41785971  1
  O  O218  1  0.25390405  0.62827942  0.66059618  1
  O  O219  1  0.24947801  0.62297307  0.91562475  1
  O  O220  1  0.25661353  0.87445126  0.16381713  1
  O  O221  1  0.24907449  0.87486178  0.41091676  1
  O  O222  1  0.25480380  0.87421960  0.66694463  1
  O  O223  1  0.25670229  0.88207754  0.91579650  1
  O  O224  1  0.49983995  0.12469813  0.17242431  1
  O  O225  1  0.49172368  0.11896458  0.41675599  1
  O  O226  1  0.49749458  0.12095027  0.64838742  1
  O  O227  1  0.49149225  0.12757581  0.91127940  1
  O  O228  1  0.50551105  0.37645058  0.17153683  1
  O  O229  1  0.49280106  0.37145314  0.41869408  1
  O  O230  1  0.49926932  0.37364206  0.65672165  1
  O  O231  1  0.50637871  0.36957514  0.90695430  1
  O  O232  1  0.50419669  0.62617558  0.16743833  1
  O  O233  1  0.50226074  0.62841724  0.42047210  1
  O  O234  1  0.49310844  0.62832380  0.66222765  1
  O  O235  1  0.50075829  0.62366076  0.91086645  1
  O  O236  1  0.50226189  0.87478572  0.16865237  1
  O  O237  1  0.49762542  0.87553001  0.41356226  1
  O  O238  1  0.48949971  0.87448424  0.66558451  1
  O  O239  1  0.49176847  0.88309517  0.91144483  1
  O  O240  1  0.74083166  0.12610233  0.16680634  1
  O  O241  1  0.75065214  0.12108720  0.40938162  1
  O  O242  1  0.75945785  0.12151940  0.65121656  1
  O  O243  1  0.75887634  0.12968639  0.91637958  1
  O  O244  1  0.73871884  0.37728531  0.17178619  1
  O  O245  1  0.74282610  0.37718179  0.41163054  1
  O  O246  1  0.75239445  0.36996601  0.65288386  1
  O  O247  1  0.75029770  0.37213397  0.91592696  1
  O  O248  1  0.74714829  0.62502303  0.16720179  1
  O  O249  1  0.74337330  0.62726475  0.41749241  1
  O  O250  1  0.75392043  0.62812362  0.66271615  1
  O  O251  1  0.75804388  0.62055370  0.91397551  1
  O  O252  1  0.73828787  0.87396031  0.16478328  1
  O  O253  1  0.74295157  0.87315412  0.40568393  1
  O  O254  1  0.75870054  0.88130969  0.66042128  1
  O  O255  1  0.75236366  0.87894953  0.91689813  1
  O  O256  1  0.12955903  0.12616925  0.05124089  1
  O  O257  1  0.13274512  0.11957751  0.29371310  1
  O  O258  1  0.11913208  0.11930296  0.54223279  1
  O  O259  1  0.12288099  0.12933950  0.80370507  1
  O  O260  1  0.12903968  0.37749826  0.04276807  1
  O  O261  1  0.13313915  0.38352813  0.28832177  1
  O  O262  1  0.12337039  0.37067899  0.52190901  1
  O  O263  1  0.11872857  0.36927430  0.80024345  1
  O  O264  1  0.12718540  0.62282069  0.04861171  1
  O  O265  1  0.13397639  0.63041291  0.28819900  1
  O  O266  1  0.12643842  0.63708556  0.52844757  1
  O  O267  1  0.12338844  0.62620184  0.78553042  1
  O  O268  1  0.12809294  0.88060172  0.03452980  1
  O  O269  1  0.13004009  0.87270998  0.29408225  1
  O  O270  1  0.11937312  0.87136070  0.53743987  1
  O  O271  1  0.12352903  0.88567320  0.79086559  1
  O  O272  1  0.37580554  0.12760991  0.05013053  1
  O  O273  1  0.36914081  0.11641056  0.31277457  1
  O  O274  1  0.36238578  0.11900406  0.52260232  1
  O  O275  1  0.37096380  0.12415218  0.79813750  1
  O  O276  1  0.37775382  0.36865619  0.03876704  1
  O  O277  1  0.37813578  0.37574413  0.30419308  1
  O  O278  1  0.37366837  0.36701212  0.53039958  1
  O  O279  1  0.37064530  0.37043596  0.77936672  1
  O  O280  1  0.38040032  0.62580000  0.04804011  1
  O  O281  1  0.37842691  0.63316628  0.28722973  1
  O  O282  1  0.37443229  0.63365867  0.54841490  1
  O  O283  1  0.37079531  0.62196493  0.78064605  1
  O  O284  1  0.37912768  0.87546144  0.04802940  1
  O  O285  1  0.37752569  0.87553332  0.29992962  1
  O  O286  1  0.37252451  0.87284831  0.54877876  1
  O  O287  1  0.37101807  0.88355440  0.79643558  1
  O  O288  1  0.61923173  0.12740944  0.05240591  1
  O  O289  1  0.61367595  0.12469703  0.29390537  1
  O  O290  1  0.62740965  0.11394770  0.52183830  1
  O  O291  1  0.62838995  0.12506119  0.78593553  1
  O  O292  1  0.62240955  0.37422086  0.05334821  1
  O  O293  1  0.61681500  0.37867805  0.30857817  1
  O  O294  1  0.61574323  0.37633036  0.52366327  1
  O  O295  1  0.63188456  0.36601877  0.79499428  1
  O  O296  1  0.62657824  0.62345073  0.04659305  1
  O  O297  1  0.62148739  0.62546412  0.30295641  1
  O  O298  1  0.62386689  0.63187619  0.53688266  1
  O  O299  1  0.62911486  0.62668334  0.78116537  1
  O  O300  1  0.61993270  0.87674819  0.04957785  1
  O  O301  1  0.62098680  0.87199478  0.29719725  1
  O  O302  1  0.61801591  0.87604914  0.53987654  1
  O  O303  1  0.62926496  0.88689610  0.78160845  1
  O  O304  1  0.87424359  0.13567040  0.04517672  1
  O  O305  1  0.87376882  0.12233065  0.27687277  1
  O  O306  1  0.88212100  0.11640045  0.54018511  1
  O  O307  1  0.87801811  0.13146576  0.80299468  1
  O  O308  1  0.87118815  0.37953425  0.04614811  1
  O  O309  1  0.86927168  0.38299502  0.28689278  1
  O  O310  1  0.87968242  0.37078326  0.52081365  1
  O  O311  1  0.87408802  0.37063315  0.79839078  1
  O  O312  1  0.87338026  0.62028359  0.05016822  1
  O  O313  1  0.86781244  0.62943373  0.30159359  1
  O  O314  1  0.86600253  0.62859913  0.52665648  1
  O  O315  1  0.87832907  0.62021318  0.79786993  1
  O  O316  1  0.87284342  0.87453184  0.04261704  1
  O  O317  1  0.87092120  0.86895045  0.27707375  1
  O  O318  1  0.87830309  0.87878881  0.54631767  1
  O  O319  1  0.87716489  0.88236075  0.78559777  1
