# generated using pymatgen
data_VFe(PbO3)2
_symmetry_space_group_name_H-M   'P 1'
_cell_length_a   15.38523123
_cell_length_b   15.37485927
_cell_length_c   18.51221807
_cell_angle_alpha   89.98174699
_cell_angle_beta   89.98788639
_cell_angle_gamma   89.99267888
_symmetry_Int_Tables_number   1
_chemical_formula_structural   VFe(PbO3)2
_chemical_formula_sum   'V32 Fe32 Pb64 O192'
_cell_volume   4378.98642848
_cell_formula_units_Z   32
loop_
 _symmetry_equiv_pos_site_id
 _symmetry_equiv_pos_as_xyz
  1  'x, y, z'
loop_
 _atom_site_type_symbol
 _atom_site_label
 _atom_site_symmetry_multiplicity
 _atom_site_fract_x
 _atom_site_fract_y
 _atom_site_fract_z
 _atom_site_occupancy
  V  V0  1  0.37542915  0.37804315  0.88604311  1
  V  V1  1  0.62410204  0.12456125  0.14024952  1
  V  V2  1  0.37173839  0.87209465  0.88326272  1
  V  V3  1  0.12881676  0.37477542  0.88566258  1
  V  V4  1  0.37739645  0.37222336  0.13607522  1
  V  V5  1  0.62502323  0.37613461  0.38786441  1
  V  V6  1  0.87466764  0.87685522  0.13869415  1
  V  V7  1  0.37638043  0.12425148  0.39650663  1
  V  V8  1  0.37502598  0.62581062  0.39108939  1
  V  V9  1  0.62246574  0.62243708  0.38551871  1
  V  V10  1  0.12568125  0.87573178  0.39556087  1
  V  V11  1  0.62338661  0.87535761  0.88882811  1
  V  V12  1  0.12686688  0.62488300  0.88545289  1
  V  V13  1  0.62401765  0.37571789  0.64656003  1
  V  V14  1  0.87177842  0.87426789  0.63969836  1
  V  V15  1  0.87890890  0.12644838  0.13988480  1
  V  V16  1  0.12563419  0.37211588  0.13823801  1
  V  V17  1  0.12680227  0.62443487  0.39475841  1
  V  V18  1  0.12548722  0.12501397  0.39394509  1
  V  V19  1  0.37437994  0.87879730  0.13614301  1
  V  V20  1  0.37437149  0.37681021  0.39451929  1
  V  V21  1  0.37573558  0.62177047  0.63835450  1
  V  V22  1  0.12225951  0.12754872  0.64236182  1
  V  V23  1  0.62820901  0.62451557  0.64136513  1
  V  V24  1  0.62932207  0.12389050  0.64292203  1
  V  V25  1  0.87597933  0.37486147  0.38856663  1
  V  V26  1  0.87430142  0.37261960  0.64454943  1
  V  V27  1  0.87374282  0.12145125  0.88612241  1
  V  V28  1  0.87298153  0.12560938  0.63936111  1
  V  V29  1  0.62402418  0.62405213  0.89217186  1
  V  V30  1  0.87516386  0.62623525  0.39014481  1
  V  V31  1  0.37313832  0.87230249  0.39738800  1
  Fe  Fe32  1  0.11859905  0.62230190  0.63492013  1
  Fe  Fe33  1  0.87510849  0.62838484  0.89102715  1
  Fe  Fe34  1  0.37624610  0.62656882  0.89085905  1
  Fe  Fe35  1  0.87747863  0.62479754  0.12844830  1
  Fe  Fe36  1  0.37765776  0.12711255  0.63983335  1
  Fe  Fe37  1  0.62452195  0.62564974  0.13198638  1
  Fe  Fe38  1  0.37668944  0.37469768  0.63546956  1
  Fe  Fe39  1  0.12358407  0.37563084  0.63311251  1
  Fe  Fe40  1  0.87824459  0.37494098  0.89189601  1
  Fe  Fe41  1  0.62385613  0.12842493  0.38535441  1
  Fe  Fe42  1  0.87402927  0.87552072  0.88368907  1
  Fe  Fe43  1  0.12512982  0.87396313  0.87519815  1
  Fe  Fe44  1  0.62577423  0.37339753  0.12508878  1
  Fe  Fe45  1  0.86993745  0.62181163  0.63619456  1
  Fe  Fe46  1  0.12350060  0.87189596  0.64335679  1
  Fe  Fe47  1  0.12618953  0.62907730  0.13419194  1
  Fe  Fe48  1  0.37188389  0.62699310  0.13118289  1
  Fe  Fe49  1  0.37963820  0.87604892  0.63305752  1
  Fe  Fe50  1  0.62488349  0.87787220  0.14176627  1
  Fe  Fe51  1  0.37454619  0.12541645  0.13400337  1
  Fe  Fe52  1  0.62471536  0.87125509  0.63496710  1
  Fe  Fe53  1  0.12534104  0.37414472  0.39389035  1
  Fe  Fe54  1  0.62355424  0.87461815  0.38186456  1
  Fe  Fe55  1  0.12717879  0.12276153  0.13433817  1
  Fe  Fe56  1  0.87655371  0.37205378  0.12677900  1
  Fe  Fe57  1  0.12564701  0.87944284  0.13296736  1
  Fe  Fe58  1  0.87622536  0.12502587  0.38588998  1
  Fe  Fe59  1  0.62475078  0.37433799  0.89378596  1
  Fe  Fe60  1  0.62493578  0.12362168  0.88128273  1
  Fe  Fe61  1  0.12472348  0.12523225  0.87925222  1
  Fe  Fe62  1  0.37585069  0.12246622  0.88072440  1
  Fe  Fe63  1  0.87746858  0.87472676  0.38443876  1
  Pb  Pb64  1  0.01135674  -0.00504307  -0.00731252  1
  Pb  Pb65  1  -0.00677170  0.00067089  0.25294058  1
  Pb  Pb66  1  0.00065228  -0.00530684  0.50223786  1
  Pb  Pb67  1  0.00691744  -0.00303069  0.75348973  1
  Pb  Pb68  1  -0.00077588  0.24908571  -0.00438095  1
  Pb  Pb69  1  0.00601443  0.25631981  0.25227270  1
  Pb  Pb70  1  0.00629829  0.25574970  0.50314971  1
  Pb  Pb71  1  -0.00145357  0.24779444  0.75362271  1
  Pb  Pb72  1  -0.00528471  0.50416405  -0.00141427  1
  Pb  Pb73  1  -0.00117037  0.50147874  0.24320155  1
  Pb  Pb74  1  -0.00044429  0.50781495  0.50502102  1
  Pb  Pb75  1  -0.00869073  0.50251425  0.75051620  1
  Pb  Pb76  1  0.00170233  0.75143054  -0.00673432  1
  Pb  Pb77  1  -0.00108162  0.75336616  0.24445014  1
  Pb  Pb78  1  0.00676228  0.74810037  0.50717172  1
  Pb  Pb79  1  -0.00863551  0.74512407  0.74965199  1
  Pb  Pb80  1  0.24002735  0.00298451  -0.00531533  1
  Pb  Pb81  1  0.24852798  0.00422049  0.24654487  1
  Pb  Pb82  1  0.25748217  -0.00015832  0.51018499  1
  Pb  Pb83  1  0.24653841  -0.00190658  0.74510157  1
  Pb  Pb84  1  0.25198743  0.23514871  -0.00372313  1
  Pb  Pb85  1  0.24679137  0.25232926  0.25179943  1
  Pb  Pb86  1  0.25917155  0.24946978  0.50897056  1
  Pb  Pb87  1  0.25564886  0.24637972  0.74665737  1
  Pb  Pb88  1  0.24880958  0.50863553  0.00126648  1
  Pb  Pb89  1  0.24609946  0.49664422  0.24802772  1
  Pb  Pb90  1  0.24223122  0.49754556  0.50446867  1
  Pb  Pb91  1  0.24783596  0.49752375  0.74452651  1
  Pb  Pb92  1  0.24451126  0.74697304  -0.00043844  1
  Pb  Pb93  1  0.24852117  0.75030796  0.24516011  1
  Pb  Pb94  1  0.24280262  0.75562081  0.51041303  1
  Pb  Pb95  1  0.24695853  0.75080633  0.74355102  1
  Pb  Pb96  1  0.49629219  0.00102098  -0.00343042  1
  Pb  Pb97  1  0.50805125  -0.00049787  0.25417667  1
  Pb  Pb98  1  0.50450004  -0.00718780  0.50274945  1
  Pb  Pb99  1  0.49758828  0.00378864  0.74604960  1
  Pb  Pb100  1  0.49975133  0.24583672  -0.00690666  1
  Pb  Pb101  1  0.50582144  0.24618860  0.24931506  1
  Pb  Pb102  1  0.49220777  0.25095374  0.50724998  1
  Pb  Pb103  1  0.50152223  0.24370427  0.75565373  1
  Pb  Pb104  1  0.50434913  0.50616211  0.00350508  1
  Pb  Pb105  1  0.50226686  0.50277345  0.24045191  1
  Pb  Pb106  1  0.49557626  0.49686999  0.50124950  1
  Pb  Pb107  1  0.49841796  0.50419070  0.75669228  1
  Pb  Pb108  1  0.50861568  0.75141460  0.00487104  1
  Pb  Pb109  1  0.50245509  0.75335979  0.24576348  1
  Pb  Pb110  1  0.50295416  0.75727554  0.50224395  1
  Pb  Pb111  1  0.49459329  0.74489583  0.75138843  1
  Pb  Pb112  1  0.74365431  -0.00659302  0.00088552  1
  Pb  Pb113  1  0.75782557  0.00274721  0.25730694  1
  Pb  Pb114  1  0.74668333  -0.00280841  0.49042290  1
  Pb  Pb115  1  0.75378642  -0.00465520  0.75021917  1
  Pb  Pb116  1  0.74818921  0.25513125  -0.00431102  1
  Pb  Pb117  1  0.74985444  0.24521348  0.24614894  1
  Pb  Pb118  1  0.74801390  0.24782005  0.49722731  1
  Pb  Pb119  1  0.74342591  0.25701182  0.76145199  1
  Pb  Pb120  1  0.75559652  0.49723150  -0.00127756  1
  Pb  Pb121  1  0.75175537  0.49736583  0.23387502  1
  Pb  Pb122  1  0.75433575  0.50658777  0.50069918  1
  Pb  Pb123  1  0.75219062  0.48832864  0.76308051  1
  Pb  Pb124  1  0.74906211  0.74706269  0.00206853  1
  Pb  Pb125  1  0.74758601  0.75216625  0.24431439  1
  Pb  Pb126  1  0.74698924  0.75465315  0.49429760  1
  Pb  Pb127  1  0.76056604  0.74755366  0.75637166  1
  O  O128  1  0.12560568  0.00048712  0.16924359  1
  O  O129  1  0.12813743  0.00383185  0.42059717  1
  O  O130  1  0.11947823  0.00627417  0.66136776  1
  O  O131  1  0.12753612  -0.00118704  0.90690368  1
  O  O132  1  0.12590072  0.25270562  0.16627889  1
  O  O133  1  0.12649530  0.24263488  0.41866930  1
  O  O134  1  0.11867394  0.24680815  0.66402885  1
  O  O135  1  0.12649161  0.25664572  0.90599116  1
  O  O136  1  0.12669091  0.49160847  0.16166137  1
  O  O137  1  0.12607134  0.50521703  0.41453671  1
  O  O138  1  0.12177121  0.49896367  0.66544056  1
  O  O139  1  0.12730544  0.50132855  0.91097077  1
  O  O140  1  0.12539744  0.75575987  0.16686361  1
  O  O141  1  0.12570054  0.74746895  0.41890886  1
  O  O142  1  0.12453519  0.74471285  0.66600815  1
  O  O143  1  0.12877420  0.74473949  0.90438887  1
  O  O144  1  0.37645241  -0.00324913  0.16412536  1
  O  O145  1  0.37204993  0.00375517  0.41914746  1
  O  O146  1  0.37810009  0.00198066  0.66089784  1
  O  O147  1  0.38013032  -0.01075954  0.90614827  1
  O  O148  1  0.37314572  0.25670508  0.16517782  1
  O  O149  1  0.37305849  0.24757133  0.41775263  1
  O  O150  1  0.37735966  0.25206588  0.66703882  1
  O  O151  1  0.37176536  0.25996671  0.90865627  1
  O  O152  1  0.36982335  0.48933417  0.16259093  1
  O  O153  1  0.37342728  0.50223876  0.41995945  1
  O  O154  1  0.38148930  0.50378708  0.66452525  1
  O  O155  1  0.37161416  0.49428972  0.91435032  1
  O  O156  1  0.37353796  0.75799226  0.16031335  1
  O  O157  1  0.37275601  0.74714162  0.41836672  1
  O  O158  1  0.38220344  0.73964603  0.66041750  1
  O  O159  1  0.37995884  0.75820350  0.91390239  1
  O  O160  1  0.62478553  0.00795314  0.16695717  1
  O  O161  1  0.62175491  0.00174541  0.41040626  1
  O  O162  1  0.62779984  0.00656060  0.65848783  1
  O  O163  1  0.62432517  -0.00519911  0.91152955  1
  O  O164  1  0.62392514  0.24574597  0.16134160  1
  O  O165  1  0.62386773  0.25727236  0.41787143  1
  O  O166  1  0.62966443  0.25444524  0.66682061  1
  O  O167  1  0.62425876  0.24660336  0.91341274  1
  O  O168  1  0.62294787  0.49742328  0.15907325  1
  O  O169  1  0.62410948  0.49819951  0.41713002  1
  O  O170  1  0.62748762  0.49772181  0.66955067  1
  O  O171  1  0.62274815  0.50718791  0.91232858  1
  O  O172  1  0.62376569  0.75091836  0.16558671  1
  O  O173  1  0.62277786  0.74286257  0.41001048  1
  O  O174  1  0.62421250  0.73991254  0.66204870  1
  O  O175  1  0.62328864  0.75234628  0.91422986  1
  O  O176  1  0.87240709  0.00397174  0.16607443  1
  O  O177  1  0.87772786  0.00020974  0.41760968  1
  O  O178  1  0.86991178  0.00059840  0.66267765  1
  O  O179  1  0.87303255  0.00441693  0.91257822  1
  O  O180  1  0.87581713  0.24367546  0.16080847  1
  O  O181  1  0.87630405  0.25760509  0.41322266  1
  O  O182  1  0.87153384  0.25114891  0.66842098  1
  O  O183  1  0.87818252  0.24116867  0.91249380  1
  O  O184  1  0.87995785  0.49687245  0.15806192  1
  O  O185  1  0.87445798  0.49743672  0.41543770  1
  O  O186  1  0.87049798  0.49131605  0.66556474  1
  O  O187  1  0.87812306  0.50250172  0.91339829  1
  O  O188  1  0.87637796  0.75845401  0.15793409  1
  O  O189  1  0.87675134  0.74499981  0.41265212  1
  O  O190  1  0.86891355  0.75472730  0.66000257  1
  O  O191  1  0.87284147  0.75329206  0.91748203  1
  O  O192  1  -0.00477193  0.12384692  0.16039218  1
  O  O193  1  0.00789192  0.12465653  0.41557283  1
  O  O194  1  -0.00445356  0.12646063  0.66656699  1
  O  O195  1  -0.00502060  0.12294588  0.90933754  1
  O  O196  1  0.00643425  0.37028399  0.16134308  1
  O  O197  1  -0.00714409  0.37722068  0.41502184  1
  O  O198  1  -0.00838416  0.37231437  0.66390627  1
  O  O199  1  0.01166667  0.37639781  0.91217637  1
  O  O200  1  0.00143062  0.62639709  0.16525765  1
  O  O201  1  0.00352493  0.62340209  0.41464342  1
  O  O202  1  -0.00700255  0.62392596  0.66497839  1
  O  O203  1  0.00973741  0.62614997  0.90930372  1
  O  O204  1  -0.00712755  0.88135289  0.16094721  1
  O  O205  1  0.00510284  0.87461636  0.41875267  1
  O  O206  1  -0.01156449  0.87602150  0.66176983  1
  O  O207  1  0.00111963  0.87478223  0.90559091  1
  O  O208  1  0.25156673  0.12697912  0.16899537  1
  O  O209  1  0.24960736  0.12470709  0.42121604  1
  O  O210  1  0.24096896  0.12679861  0.65839928  1
  O  O211  1  0.25147588  0.12572152  0.90659822  1
  O  O212  1  0.24801450  0.37170197  0.16471156  1
  O  O213  1  0.25385304  0.37554639  0.41748792  1
  O  O214  1  0.25005716  0.37594222  0.65981538  1
  O  O215  1  0.24648555  0.37826555  0.91154172  1
  O  O216  1  0.25016873  0.62373803  0.16924242  1
  O  O217  1  0.24705834  0.62517090  0.41800210  1
  O  O218  1  0.25869024  0.62173989  0.65583598  1
  O  O219  1  0.24596776  0.62470477  0.91181941  1
  O  O220  1  0.25699435  0.87821745  0.16328068  1
  O  O221  1  0.24830298  0.87475182  0.42459076  1
  O  O222  1  0.25363083  0.87301665  0.66100024  1
  O  O223  1  0.25631262  0.87226091  0.89918465  1
  O  O224  1  0.50387630  0.12691801  0.16333313  1
  O  O225  1  0.49289574  0.12699039  0.41636596  1
  O  O226  1  0.51064894  0.13074057  0.66103765  1
  O  O227  1  0.49889181  0.12360516  0.91250473  1
  O  O228  1  0.49443155  0.37320771  0.15664909  1
  O  O229  1  0.49958688  0.37616683  0.41734630  1
  O  O230  1  0.50806908  0.37577612  0.66588905  1
  O  O231  1  0.49131622  0.37766431  0.90778987  1
  O  O232  1  0.49517421  0.62303500  0.16189814  1
  O  O233  1  0.49876734  0.62163080  0.41541918  1
  O  O234  1  0.50538336  0.61872332  0.66671017  1
  O  O235  1  0.50472302  0.62771474  0.91686749  1
  O  O236  1  0.49228732  0.87734460  0.16444533  1
  O  O237  1  0.49623970  0.87414358  0.41588116  1
  O  O238  1  0.50316935  0.87369245  0.66579130  1
  O  O239  1  0.50452309  0.87387383  0.91264130  1
  O  O240  1  0.74893087  0.12611591  0.16293824  1
  O  O241  1  0.75021996  0.12913768  0.41540422  1
  O  O242  1  0.74913746  0.12831270  0.66752669  1
  O  O243  1  0.75557499  0.12392619  0.91079314  1
  O  O244  1  0.75092588  0.37101696  0.15462458  1
  O  O245  1  0.75343383  0.37681205  0.41246204  1
  O  O246  1  0.74985571  0.37404677  0.67186264  1
  O  O247  1  0.75204850  0.37518829  0.91610772  1
  O  O248  1  0.75266979  0.62646942  0.16049943  1
  O  O249  1  0.74788364  0.62164508  0.41317278  1
  O  O250  1  0.74312469  0.62066753  0.66583321  1
  O  O251  1  0.74180736  0.62821498  0.91261056  1
  O  O252  1  0.75695224  0.87926846  0.16499237  1
  O  O253  1  0.74992982  0.87200850  0.41016884  1
  O  O254  1  0.75147770  0.87611511  0.66464882  1
  O  O255  1  0.74166906  0.87471373  0.91478493  1
  O  O256  1  0.13270862  0.12002012  0.03414178  1
  O  O257  1  0.12876505  0.12465408  0.30292448  1
  O  O258  1  0.11675611  0.12903570  0.55108380  1
  O  O259  1  0.11893614  0.12366531  0.77942776  1
  O  O260  1  0.12814357  0.36980633  0.04786349  1
  O  O261  1  0.12289052  0.36697028  0.29395246  1
  O  O262  1  0.11796205  0.37584321  0.53191386  1
  O  O263  1  0.12858481  0.37868787  0.79452069  1
  O  O264  1  0.13398635  0.63069065  0.03457165  1
  O  O265  1  0.12714120  0.62724460  0.30388156  1
  O  O266  1  0.11883394  0.62387293  0.53387791  1
  O  O267  1  0.12833024  0.62038383  0.79425010  1
  O  O268  1  0.12923267  0.88046531  0.03298101  1
  O  O269  1  0.12751904  0.87584068  0.30474695  1
  O  O270  1  0.12084635  0.86623298  0.54130036  1
  O  O271  1  0.12553612  0.88076833  0.77345893  1
  O  O272  1  0.37291407  0.12828043  0.03443444  1
  O  O273  1  0.37420985  0.12493746  0.30558843  1
  O  O274  1  0.37310456  0.13380289  0.53815630  1
  O  O275  1  0.38073454  0.12929920  0.77941522  1
  O  O276  1  0.37266398  0.37219376  0.04550579  1
  O  O277  1  0.37740159  0.37616893  0.30351062  1
  O  O278  1  0.38246571  0.37094723  0.53481171  1
  O  O279  1  0.37143357  0.38015905  0.79451838  1
  O  O280  1  0.36657534  0.62356061  0.03079463  1
  O  O281  1  0.37373231  0.62395614  0.30047356  1
  O  O282  1  0.38138990  0.61975321  0.54734545  1
  O  O283  1  0.38348915  0.62491484  0.79062585  1
  O  O284  1  0.37464522  0.88002901  0.04510113  1
  O  O285  1  0.37086746  0.87576169  0.30663470  1
  O  O286  1  0.38059244  0.87509830  0.53220647  1
  O  O287  1  0.38097866  0.86834067  0.79193563  1
  O  O288  1  0.62489308  0.12187220  0.04917132  1
  O  O289  1  0.62059935  0.13468350  0.28566124  1
  O  O290  1  0.63233883  0.13152470  0.55174719  1
  O  O291  1  0.62110828  0.12773177  0.78158605  1
  O  O292  1  0.62100123  0.37565788  0.02481820  1
  O  O293  1  0.62308977  0.37481968  0.29701716  1
  O  O294  1  0.62860829  0.37691944  0.55579118  1
  O  O295  1  0.63464268  0.37606154  0.79181253  1
  O  O296  1  0.61966875  0.62974114  0.03189347  1
  O  O297  1  0.62130697  0.61828869  0.29466134  1
  O  O298  1  0.62700414  0.62024582  0.55029655  1
  O  O299  1  0.62071143  0.62667876  0.80060696  1
  O  O300  1  0.62494049  0.87994632  0.04163891  1
  O  O301  1  0.61702678  0.87534048  0.28113390  1
  O  O302  1  0.62124271  0.86875492  0.53461022  1
  O  O303  1  0.62472642  0.87339662  0.79785065  1
  O  O304  1  0.87474967  0.12244735  0.04947163  1
  O  O305  1  0.87356732  0.12177700  0.28586136  1
  O  O306  1  0.87406112  0.12875320  0.54861134  1
  O  O307  1  0.87411130  0.12222374  0.79466494  1
  O  O308  1  0.88423281  0.37053467  0.02643505  1
  O  O309  1  0.87748781  0.37519484  0.29756887  1
  O  O310  1  0.86995184  0.37152663  0.55360477  1
  O  O311  1  0.87265146  0.37503955  0.79056020  1
  O  O312  1  0.88031306  0.62602569  0.02807961  1
  O  O313  1  0.87642986  0.62254076  0.29931662  1
  O  O314  1  0.87116305  0.61564223  0.53585741  1
  O  O315  1  0.87467371  0.63438610  0.78865804  1
  O  O316  1  0.87151373  0.88266249  0.04771998  1
  O  O317  1  0.88015041  0.88300537  0.28491292  1
  O  O318  1  0.87066650  0.87563202  0.54841535  1
  O  O319  1  0.86430131  0.87173203  0.78372962  1
