# generated using pymatgen
data_VFe(PbO3)2
_symmetry_space_group_name_H-M   'P 1'
_cell_length_a   15.37521564
_cell_length_b   15.37625855
_cell_length_c   18.52475748
_cell_angle_alpha   90.02434041
_cell_angle_beta   89.98509596
_cell_angle_gamma   90.00004312
_symmetry_Int_Tables_number   1
_chemical_formula_structural   VFe(PbO3)2
_chemical_formula_sum   'V32 Fe32 Pb64 O192'
_cell_volume   4379.49833683
_cell_formula_units_Z   32
loop_
 _symmetry_equiv_pos_site_id
 _symmetry_equiv_pos_as_xyz
  1  'x, y, z'
loop_
 _atom_site_type_symbol
 _atom_site_label
 _atom_site_symmetry_multiplicity
 _atom_site_fract_x
 _atom_site_fract_y
 _atom_site_fract_z
 _atom_site_occupancy
  V  V0  1  0.62139883  0.87574301  0.40205607  1
  V  V1  1  0.62544615  0.12524167  0.38888873  1
  V  V2  1  0.62571876  0.62739502  0.63274104  1
  V  V3  1  0.37816466  0.12458547  0.88670359  1
  V  V4  1  0.87078705  0.62969815  0.88775424  1
  V  V5  1  0.87476809  0.87924822  0.63773229  1
  V  V6  1  0.62697889  0.37505427  0.63561033  1
  V  V7  1  0.87807847  0.87402642  0.39006192  1
  V  V8  1  0.12894338  0.12329434  0.38943466  1
  V  V9  1  0.62556827  0.62408654  0.39205468  1
  V  V10  1  0.37623450  0.62552714  0.39666345  1
  V  V11  1  0.87596941  0.37620567  0.38911829  1
  V  V12  1  0.12558680  0.62742792  0.39520414  1
  V  V13  1  0.12926096  0.62336996  0.14047733  1
  V  V14  1  0.37706039  0.12408895  0.39140503  1
  V  V15  1  0.62215558  0.62434018  0.14163150  1
  V  V16  1  0.87043847  0.13002489  0.89123233  1
  V  V17  1  0.87514208  0.87397213  0.13958168  1
  V  V18  1  0.62618993  0.62467675  0.88911108  1
  V  V19  1  0.37342158  0.62795755  0.88405548  1
  V  V20  1  0.12406501  0.87707917  0.63953877  1
  V  V21  1  0.87321521  0.87638067  0.88984715  1
  V  V22  1  0.12553666  0.37759423  0.13938790  1
  V  V23  1  0.62494673  0.12332621  0.63600526  1
  V  V24  1  0.87645979  0.12417891  0.38847785  1
  V  V25  1  0.62401862  0.87618909  0.89448636  1
  V  V26  1  0.37597593  0.87206022  0.13798241  1
  V  V27  1  0.62328457  0.12427391  0.13987881  1
  V  V28  1  0.87352208  0.37971087  0.88784286  1
  V  V29  1  0.37148401  0.87501575  0.39363952  1
  V  V30  1  0.37470670  0.37729916  0.13980452  1
  V  V31  1  0.12304609  0.12501164  0.63940541  1
  Fe  Fe32  1  0.37383216  0.62402244  0.13614518  1
  Fe  Fe33  1  0.12424586  0.12490201  0.88776130  1
  Fe  Fe34  1  0.12623206  0.37320566  0.39576149  1
  Fe  Fe35  1  0.12283831  0.37357582  0.62981422  1
  Fe  Fe36  1  0.87533310  0.37651347  0.13518198  1
  Fe  Fe37  1  0.37606096  0.37242318  0.63573544  1
  Fe  Fe38  1  0.37570495  0.37460362  0.39319606  1
  Fe  Fe39  1  0.87245288  0.62404347  0.62808348  1
  Fe  Fe40  1  0.12494965  0.87010323  0.13406063  1
  Fe  Fe41  1  0.87654606  0.62312025  0.13807094  1
  Fe  Fe42  1  0.11950314  0.62412729  0.87534515  1
  Fe  Fe43  1  0.87387674  0.37162819  0.63272554  1
  Fe  Fe44  1  0.37279674  0.12403961  0.63575198  1
  Fe  Fe45  1  0.87663110  0.12549440  0.13486910  1
  Fe  Fe46  1  0.12456995  0.87357662  0.88614840  1
  Fe  Fe47  1  0.12514818  0.37580889  0.88018587  1
  Fe  Fe48  1  0.87579041  0.62627104  0.39457436  1
  Fe  Fe49  1  0.37705500  0.37459194  0.87901708  1
  Fe  Fe50  1  0.12561344  0.87632859  0.38758150  1
  Fe  Fe51  1  0.37483428  0.12663116  0.13519041  1
  Fe  Fe52  1  0.62824107  0.87632317  0.62529945  1
  Fe  Fe53  1  0.62663596  0.12484638  0.88546824  1
  Fe  Fe54  1  0.62591210  0.87228299  0.13656415  1
  Fe  Fe55  1  0.87588933  0.12602888  0.63484547  1
  Fe  Fe56  1  0.37803210  0.87463177  0.88083069  1
  Fe  Fe57  1  0.37590653  0.62496976  0.63281999  1
  Fe  Fe58  1  0.12752305  0.12528740  0.13092487  1
  Fe  Fe59  1  0.62435772  0.37278841  0.38473619  1
  Fe  Fe60  1  0.37588162  0.87783932  0.64057102  1
  Fe  Fe61  1  0.62451625  0.37607043  0.13950562  1
  Fe  Fe62  1  0.12328826  0.62691761  0.63798533  1
  Fe  Fe63  1  0.62551981  0.37577113  0.88671328  1
  Pb  Pb64  1  0.00513417  0.00663538  0.00299993  1
  Pb  Pb65  1  0.00851774  -0.00227363  0.24483207  1
  Pb  Pb66  1  -0.00357171  0.00694714  0.50043386  1
  Pb  Pb67  1  0.00861264  0.00084211  0.75814307  1
  Pb  Pb68  1  0.00059772  0.24485519  -0.00113195  1
  Pb  Pb69  1  0.00212900  0.24861383  0.24519015  1
  Pb  Pb70  1  -0.00478738  0.25338995  0.50255072  1
  Pb  Pb71  1  0.00440971  0.25423079  0.74704510  1
  Pb  Pb72  1  -0.00843866  0.50227845  -0.00266915  1
  Pb  Pb73  1  -0.00180994  0.50199987  0.25367520  1
  Pb  Pb74  1  0.01023727  0.49894011  0.50670200  1
  Pb  Pb75  1  0.00308202  0.50024995  0.73703712  1
  Pb  Pb76  1  0.00450816  0.75039931  -0.00239689  1
  Pb  Pb77  1  -0.00337824  0.74433184  0.25307617  1
  Pb  Pb78  1  0.00402304  0.74121615  0.50638794  1
  Pb  Pb79  1  0.00323143  0.74858609  0.74859018  1
  Pb  Pb80  1  0.24541933  -0.00073936  -0.00490704  1
  Pb  Pb81  1  0.24473094  -0.00049807  0.24323231  1
  Pb  Pb82  1  0.25845463  0.00057866  0.50622991  1
  Pb  Pb83  1  0.24281158  -0.00023049  0.75414269  1
  Pb  Pb84  1  0.24965903  0.24564363  -0.00741157  1
  Pb  Pb85  1  0.24978800  0.25737299  0.25250649  1
  Pb  Pb86  1  0.25177481  0.25892205  0.50488586  1
  Pb  Pb87  1  0.24810737  0.25789685  0.74696404  1
  Pb  Pb88  1  0.24764727  0.49986923  -0.01221903  1
  Pb  Pb89  1  0.24973667  0.48864620  0.26086257  1
  Pb  Pb90  1  0.24885890  0.49723379  0.50674445  1
  Pb  Pb91  1  0.24737331  0.49478599  0.73773752  1
  Pb  Pb92  1  0.24466768  0.75475570  -0.00601769  1
  Pb  Pb93  1  0.24418001  0.75411289  0.25239684  1
  Pb  Pb94  1  0.25027879  0.74344960  0.50862087  1
  Pb  Pb95  1  0.24754104  0.74610995  0.74649844  1
  Pb  Pb96  1  0.49206791  0.00729362  0.00147748  1
  Pb  Pb97  1  0.49949965  -0.00148846  0.24884824  1
  Pb  Pb98  1  0.48922833  -0.00027378  0.50854085  1
  Pb  Pb99  1  0.49636031  -0.00414693  0.74672674  1
  Pb  Pb100  1  0.50614009  0.25765704  -0.00337207  1
  Pb  Pb101  1  0.49881308  0.25856731  0.25361986  1
  Pb  Pb102  1  0.49387471  0.25295749  0.50194255  1
  Pb  Pb103  1  0.49939742  0.25410152  0.74889160  1
  Pb  Pb104  1  0.49731344  0.50190067  -0.00219019  1
  Pb  Pb105  1  0.49766501  0.49109007  0.25575588  1
  Pb  Pb106  1  0.49407311  0.49552685  0.50289701  1
  Pb  Pb107  1  0.49826737  0.49200299  0.74751342  1
  Pb  Pb108  1  0.49794697  0.74729260  0.00260924  1
  Pb  Pb109  1  0.50070227  0.74830430  0.25178973  1
  Pb  Pb110  1  0.48938404  0.75191954  0.50774628  1
  Pb  Pb111  1  0.49444941  0.75670217  0.74422119  1
  Pb  Pb112  1  0.75176373  0.00080158  0.00433665  1
  Pb  Pb113  1  0.74991924  -0.00111426  0.24904138  1
  Pb  Pb114  1  0.74899637  0.00135492  0.49974816  1
  Pb  Pb115  1  0.74458486  0.00790710  0.74906291  1
  Pb  Pb116  1  0.74678935  0.26053737  0.00465834  1
  Pb  Pb117  1  0.75003893  0.25517383  0.24648865  1
  Pb  Pb118  1  0.75925051  0.24935857  0.50018397  1
  Pb  Pb119  1  0.74152481  0.24868172  0.75044001  1
  Pb  Pb120  1  0.75693602  0.49896301  0.00629930  1
  Pb  Pb121  1  0.75384749  0.50017018  0.25024499  1
  Pb  Pb122  1  0.76231264  0.49581110  0.50130595  1
  Pb  Pb123  1  0.74862618  0.49591159  0.74526310  1
  Pb  Pb124  1  0.74613592  0.75289012  0.00537969  1
  Pb  Pb125  1  0.75561255  0.74305479  0.25419497  1
  Pb  Pb126  1  0.74883688  0.75194432  0.50082940  1
  Pb  Pb127  1  0.75071393  0.75262096  0.74345022  1
  O  O128  1  0.12542294  -0.00363557  0.15940208  1
  O  O129  1  0.12272056  0.00669040  0.41568405  1
  O  O130  1  0.12032616  -0.00228153  0.66606570  1
  O  O131  1  0.12178971  -0.00106015  0.91501589  1
  O  O132  1  0.12910102  0.25975211  0.15968001  1
  O  O133  1  0.12535274  0.23876910  0.41608623  1
  O  O134  1  0.12328665  0.24219242  0.65690670  1
  O  O135  1  0.12128525  0.25140334  0.91406342  1
  O  O136  1  0.12866468  0.50036815  0.16827639  1
  O  O137  1  0.12737433  0.50768473  0.41706371  1
  O  O138  1  0.12301366  0.49941633  0.65433620  1
  O  O139  1  0.12352760  0.50225211  0.90934173  1
  O  O140  1  0.12601751  0.74236592  0.16509233  1
  O  O141  1  0.12637916  0.74745959  0.41809954  1
  O  O142  1  0.11969958  0.76026940  0.66047816  1
  O  O143  1  0.12180380  0.74542204  0.91328203  1
  O  O144  1  0.37704862  -0.00923119  0.16352388  1
  O  O145  1  0.37423633  0.00271762  0.41699599  1
  O  O146  1  0.37566181  0.00282302  0.66975163  1
  O  O147  1  0.37818548  0.00278852  0.91166944  1
  O  O148  1  0.37397633  0.25852437  0.16295719  1
  O  O149  1  0.37353520  0.24064847  0.41322078  1
  O  O150  1  0.37822762  0.24667305  0.66374627  1
  O  O151  1  0.37757113  0.24334043  0.90758480  1
  O  O152  1  0.37414914  0.49504846  0.16685175  1
  O  O153  1  0.37487847  0.50763293  0.41540993  1
  O  O154  1  0.37956402  0.49996287  0.65896548  1
  O  O155  1  0.38219001  0.51032414  0.90846597  1
  O  O156  1  0.37620588  0.75396486  0.16685985  1
  O  O157  1  0.37475335  0.74938250  0.41839257  1
  O  O158  1  0.37865467  0.75044414  0.66230149  1
  O  O159  1  0.38304521  0.74384445  0.91113083  1
  O  O160  1  0.62466258  0.00163933  0.16698070  1
  O  O161  1  0.62599239  0.00460386  0.41848879  1
  O  O162  1  0.62883715  0.00527922  0.65504011  1
  O  O163  1  0.62898616  -0.00667591  0.91444876  1
  O  O164  1  0.62255684  0.24158810  0.16360567  1
  O  O165  1  0.62442327  0.24341237  0.41302867  1
  O  O166  1  0.62713916  0.25138250  0.65881028  1
  O  O167  1  0.62785630  0.24889392  0.91660434  1
  O  O168  1  0.62224505  0.50736091  0.16513070  1
  O  O169  1  0.62121907  0.50747129  0.41232964  1
  O  O170  1  0.62713192  0.49760023  0.65675275  1
  O  O171  1  0.62676505  0.50872338  0.91179586  1
  O  O172  1  0.62448364  0.74467891  0.16966039  1
  O  O173  1  0.62239319  0.74580061  0.41959580  1
  O  O174  1  0.62937057  0.74563659  0.65242934  1
  O  O175  1  0.62823940  0.74926433  0.91804383  1
  O  O176  1  0.87450389  -0.00690846  0.16464378  1
  O  O177  1  0.87598734  -0.00182682  0.41379755  1
  O  O178  1  0.87311596  -0.00417067  0.66362466  1
  O  O179  1  0.87018077  -0.00641011  0.91343671  1
  O  O180  1  0.87659241  0.25132088  0.16602563  1
  O  O181  1  0.87499422  0.25106533  0.41220452  1
  O  O182  1  0.87217358  0.24801570  0.66634502  1
  O  O183  1  0.87274449  0.24857879  0.90693299  1
  O  O184  1  0.87715344  0.50022933  0.17209598  1
  O  O185  1  0.87395075  0.49437265  0.41041386  1
  O  O186  1  0.86998648  0.49916879  0.65907228  1
  O  O187  1  0.86981129  0.50043278  0.91111386  1
  O  O188  1  0.87465208  0.75233055  0.16542235  1
  O  O189  1  0.87520001  0.75771421  0.41409260  1
  O  O190  1  0.87161944  0.75854618  0.66062484  1
  O  O191  1  0.86903007  0.75344548  0.91487111  1
  O  O192  1  0.00316010  0.12594569  0.16608049  1
  O  O193  1  0.00057409  0.12466951  0.41337441  1
  O  O194  1  0.00477453  0.12140189  0.66458587  1
  O  O195  1  -0.01138620  0.12138851  0.91337213  1
  O  O196  1  0.00898213  0.37907737  0.16196254  1
  O  O197  1  -0.00604163  0.37360804  0.41249795  1
  O  O198  1  -0.00095105  0.37124613  0.65864068  1
  O  O199  1  -0.01066930  0.37593998  0.91001470  1
  O  O200  1  0.00918714  0.62244899  0.16777279  1
  O  O201  1  0.00622132  0.62637937  0.41518803  1
  O  O202  1  -0.00546057  0.62974983  0.65862295  1
  O  O203  1  -0.00914429  0.62540062  0.90749794  1
  O  O204  1  -0.00669532  0.87111564  0.16248703  1
  O  O205  1  -0.00479015  0.87720144  0.41433209  1
  O  O206  1  -0.00391531  0.87788413  0.66312532  1
  O  O207  1  -0.01119913  0.87182901  0.91229837  1
  O  O208  1  0.25101066  0.12548402  0.16484833  1
  O  O209  1  0.24886922  0.12116158  0.41183969  1
  O  O210  1  0.24065204  0.11962551  0.66228914  1
  O  O211  1  0.25717514  0.12322977  0.90962607  1
  O  O212  1  0.25036755  0.37829757  0.16722464  1
  O  O213  1  0.25178735  0.37430591  0.42110809  1
  O  O214  1  0.24840706  0.37076607  0.65575841  1
  O  O215  1  0.25349929  0.37678933  0.91037400  1
  O  O216  1  0.24536437  0.62413430  0.16636914  1
  O  O217  1  0.25138396  0.62810113  0.41821725  1
  O  O218  1  0.25045287  0.62952037  0.66121066  1
  O  O219  1  0.25734074  0.62684557  0.89892053  1
  O  O220  1  0.25680050  0.87109536  0.16122394  1
  O  O221  1  0.25263462  0.87658470  0.41768400  1
  O  O222  1  0.24064272  0.87818425  0.65988461  1
  O  O223  1  0.25362448  0.87181007  0.90982933  1
  O  O224  1  0.50375167  0.12159150  0.16706202  1
  O  O225  1  0.49574692  0.12226505  0.41216187  1
  O  O226  1  0.50961135  0.12596780  0.65961575  1
  O  O227  1  0.49803418  0.12190537  0.91181874  1
  O  O228  1  0.49446865  0.37621797  0.16397285  1
  O  O229  1  0.50177032  0.37381464  0.41828321  1
  O  O230  1  0.50986874  0.37358282  0.66043474  1
  O  O231  1  0.49909447  0.37726902  0.91505415  1
  O  O232  1  0.50314757  0.62646266  0.16859936  1
  O  O233  1  0.49787959  0.62845872  0.41648175  1
  O  O234  1  0.51169416  0.62338399  0.65927014  1
  O  O235  1  0.50743638  0.62810266  0.91340793  1
  O  O236  1  0.49673330  0.87243459  0.16577587  1
  O  O237  1  0.49601989  0.87649696  0.41880052  1
  O  O238  1  0.50744052  0.87705122  0.65917174  1
  O  O239  1  0.50731919  0.87257672  0.91346796  1
  O  O240  1  0.74367366  0.12218803  0.16430616  1
  O  O241  1  0.75280865  0.12342862  0.41195677  1
  O  O242  1  0.74453224  0.12574848  0.66319141  1
  O  O243  1  0.75535406  0.12091188  0.91826494  1
  O  O244  1  0.74884406  0.37604180  0.16711145  1
  O  O245  1  0.75383723  0.37337413  0.41012367  1
  O  O246  1  0.74298461  0.37399911  0.66219369  1
  O  O247  1  0.75600244  0.37511421  0.91548817  1
  O  O248  1  0.74352577  0.62533177  0.16604881  1
  O  O249  1  0.74277085  0.62747443  0.41160744  1
  O  O250  1  0.74350757  0.62432993  0.66118720  1
  O  O251  1  0.74595433  0.62730085  0.91744872  1
  O  O252  1  0.75524521  0.87287973  0.16817720  1
  O  O253  1  0.75741969  0.87735659  0.41623879  1
  O  O254  1  0.75357791  0.87704917  0.66079964  1
  O  O255  1  0.75021826  0.87252598  0.91997587  1
  O  O256  1  0.11984914  0.12631236  0.03014325  1
  O  O257  1  0.12720177  0.12313026  0.29820914  1
  O  O258  1  0.12117541  0.11918275  0.54825126  1
  O  O259  1  0.12205345  0.11774763  0.78725680  1
  O  O260  1  0.12932043  0.38310430  0.04902637  1
  O  O261  1  0.13534999  0.37468017  0.29488024  1
  O  O262  1  0.12111325  0.37442905  0.52641278  1
  O  O263  1  0.12454679  0.36922947  0.78002266  1
  O  O264  1  0.12695164  0.62169978  0.04967074  1
  O  O265  1  0.12857009  0.62860838  0.30393359  1
  O  O266  1  0.12306452  0.63136033  0.53572987  1
  O  O267  1  0.11991104  0.63342602  0.77513647  1
  O  O268  1  0.12511985  0.86213486  0.03421690  1
  O  O269  1  0.12895336  0.87317386  0.28812967  1
  O  O270  1  0.12021604  0.87975191  0.54850521  1
  O  O271  1  0.11725910  0.87914679  0.78567118  1
  O  O272  1  0.37870759  0.12090936  0.03647850  1
  O  O273  1  0.37574047  0.12157174  0.30052713  1
  O  O274  1  0.37492932  0.11594445  0.53510168  1
  O  O275  1  0.37889528  0.12227352  0.79571014  1
  O  O276  1  0.37215881  0.37939094  0.04909164  1
  O  O277  1  0.37397786  0.37578366  0.29166356  1
  O  O278  1  0.38117170  0.36964481  0.53297099  1
  O  O279  1  0.38279210  0.37461663  0.77854356  1
  O  O280  1  0.37988921  0.62591409  0.03775457  1
  O  O281  1  0.37457965  0.62791873  0.30568695  1
  O  O282  1  0.37719761  0.63129062  0.53198838  1
  O  O283  1  0.38368553  0.63016097  0.79322982  1
  O  O284  1  0.37871397  0.87067691  0.04680427  1
  O  O285  1  0.37369901  0.87499744  0.30256388  1
  O  O286  1  0.37602022  0.88477830  0.53869109  1
  O  O287  1  0.38607448  0.87403778  0.78102125  1
  O  O288  1  0.62237847  0.12145848  0.04883233  1
  O  O289  1  0.62417758  0.12197358  0.29784271  1
  O  O290  1  0.62722906  0.12687521  0.54480954  1
  O  O291  1  0.63383972  0.12413661  0.78611603  1
  O  O292  1  0.62724736  0.36949408  0.03931887  1
  O  O293  1  0.61463376  0.37257512  0.28446960  1
  O  O294  1  0.62716070  0.37375180  0.54446506  1
  O  O295  1  0.62632662  0.37603730  0.78680765  1
  O  O296  1  0.62140276  0.62719289  0.05034815  1
  O  O297  1  0.62121813  0.62840562  0.30098917  1
  O  O298  1  0.62708438  0.62327277  0.54185934  1
  O  O299  1  0.62709771  0.62889626  0.79859698  1
  O  O300  1  0.62984705  0.86984663  0.03805035  1
  O  O301  1  0.62596577  0.87425373  0.31055538  1
  O  O302  1  0.63460503  0.87632521  0.52464456  1
  O  O303  1  0.62952561  0.87241635  0.80350000  1
  O  O304  1  0.87775465  0.12244252  0.03562235  1
  O  O305  1  0.87749098  0.12384002  0.29754850  1
  O  O306  1  0.87722820  0.12749800  0.53448822  1
  O  O307  1  0.86766644  0.12145806  0.80038580  1
  O  O308  1  0.87245133  0.38361932  0.03509046  1
  O  O309  1  0.87640481  0.37380870  0.29766572  1
  O  O310  1  0.86826098  0.37010818  0.53168896  1
  O  O311  1  0.86982265  0.38039909  0.79707393  1
  O  O312  1  0.87547472  0.61487899  0.03848241  1
  O  O313  1  0.87785872  0.63051139  0.29358284  1
  O  O314  1  0.87058474  0.62562707  0.52605870  1
  O  O315  1  0.86341862  0.63150229  0.79709642  1
  O  O316  1  0.87209595  0.87403904  0.04861306  1
  O  O317  1  0.87648401  0.87461169  0.29885475  1
  O  O318  1  0.87710173  0.87932482  0.54661503  1
  O  O319  1  0.86880331  0.87453372  0.79902195  1
