# generated using pymatgen
data_VFe(PbO3)2
_symmetry_space_group_name_H-M   'P 1'
_cell_length_a   15.37443276
_cell_length_b   15.37820152
_cell_length_c   18.55758878
_cell_angle_alpha   89.97000215
_cell_angle_beta   90.00258375
_cell_angle_gamma   89.99632879
_symmetry_Int_Tables_number   1
_chemical_formula_structural   VFe(PbO3)2
_chemical_formula_sum   'V32 Fe32 Pb64 O192'
_cell_volume   4387.59098302
_cell_formula_units_Z   32
loop_
 _symmetry_equiv_pos_site_id
 _symmetry_equiv_pos_as_xyz
  1  'x, y, z'
loop_
 _atom_site_type_symbol
 _atom_site_label
 _atom_site_symmetry_multiplicity
 _atom_site_fract_x
 _atom_site_fract_y
 _atom_site_fract_z
 _atom_site_occupancy
  V  V0  1  0.62560210  0.12625940  0.13871137  1
  V  V1  1  0.87435771  0.62504305  0.63911807  1
  V  V2  1  0.62508519  0.87461170  0.88842279  1
  V  V3  1  0.12441194  0.87513291  0.89105840  1
  V  V4  1  0.37660250  0.12283167  0.88919170  1
  V  V5  1  0.12396042  0.87457982  0.13811190  1
  V  V6  1  0.37395603  0.12433044  0.63890653  1
  V  V7  1  0.37261799  0.87432544  0.64090774  1
  V  V8  1  0.62499496  0.37383432  0.63770077  1
  V  V9  1  0.62099275  0.87276987  0.39323237  1
  V  V10  1  0.87584967  0.12579152  0.63974823  1
  V  V11  1  0.37188589  0.12741434  0.14000154  1
  V  V12  1  0.12543546  0.12149751  0.64264553  1
  V  V13  1  0.87339125  0.62085337  0.14196723  1
  V  V14  1  0.87482669  0.12487186  0.38810339  1
  V  V15  1  0.12466778  0.37454584  0.13539626  1
  V  V16  1  0.37301207  0.12291218  0.38840136  1
  V  V17  1  0.87342383  0.62804909  0.88661137  1
  V  V18  1  0.87906964  0.87393248  0.64073993  1
  V  V19  1  0.87376737  0.87556774  0.13765976  1
  V  V20  1  0.37767445  0.37195005  0.39279290  1
  V  V21  1  0.62454820  0.37727862  0.13697888  1
  V  V22  1  0.62415820  0.12341749  0.88675178  1
  V  V23  1  0.62684578  0.87319629  0.13927024  1
  V  V24  1  0.37573328  0.62384574  0.38962820  1
  V  V25  1  0.62403674  0.62345669  0.88795458  1
  V  V26  1  0.12473614  0.12524316  0.89212388  1
  V  V27  1  0.62634278  0.61997771  0.39505508  1
  V  V28  1  0.87404696  0.87516562  0.39103555  1
  V  V29  1  0.12495887  0.87588286  0.63985008  1
  V  V30  1  0.12521479  0.62632812  0.64271333  1
  V  V31  1  0.12544730  0.12734516  0.38705727  1
  Fe  Fe32  1  0.62413314  0.37491737  0.38724972  1
  Fe  Fe33  1  0.37545972  0.62830892  0.88132895  1
  Fe  Fe34  1  0.12521712  0.12513680  0.13167224  1
  Fe  Fe35  1  0.62709719  0.62548098  0.13130489  1
  Fe  Fe36  1  0.62469725  0.12269655  0.63247328  1
  Fe  Fe37  1  0.37341100  0.37399770  0.63856736  1
  Fe  Fe38  1  0.37583202  0.87378666  0.38011284  1
  Fe  Fe39  1  0.37358825  0.87745276  0.89007081  1
  Fe  Fe40  1  0.37634246  0.62352328  0.13194308  1
  Fe  Fe41  1  0.12432459  0.37316687  0.64431632  1
  Fe  Fe42  1  0.37806114  0.87693394  0.13948336  1
  Fe  Fe43  1  0.37674507  0.37311399  0.13258257  1
  Fe  Fe44  1  0.62601661  0.62729700  0.63529671  1
  Fe  Fe45  1  0.87171162  0.37497972  0.88194573  1
  Fe  Fe46  1  0.87419285  0.37596341  0.38153590  1
  Fe  Fe47  1  0.87477996  0.37262979  0.13931649  1
  Fe  Fe48  1  0.12367506  0.62539224  0.13298599  1
  Fe  Fe49  1  0.87357787  0.62738318  0.38400685  1
  Fe  Fe50  1  0.37654189  0.37437654  0.88376675  1
  Fe  Fe51  1  0.12383382  0.37447612  0.87925147  1
  Fe  Fe52  1  0.62542440  0.37244310  0.88337277  1
  Fe  Fe53  1  0.87563768  0.12416741  0.13437707  1
  Fe  Fe54  1  0.62610488  0.87683318  0.63564654  1
  Fe  Fe55  1  0.87611564  0.37575673  0.64097588  1
  Fe  Fe56  1  0.12680055  0.37511878  0.38517054  1
  Fe  Fe57  1  0.62468390  0.12483176  0.39286995  1
  Fe  Fe58  1  0.37516184  0.62572187  0.64238723  1
  Fe  Fe59  1  0.12340093  0.62652553  0.88638286  1
  Fe  Fe60  1  0.87483294  0.87516702  0.88658948  1
  Fe  Fe61  1  0.87328241  0.12191718  0.88517049  1
  Fe  Fe62  1  0.12680047  0.87591225  0.38361327  1
  Fe  Fe63  1  0.12439470  0.62361564  0.38136821  1
  Pb  Pb64  1  -0.00294331  0.00923993  0.00177412  1
  Pb  Pb65  1  0.00525331  -0.00230295  0.24572040  1
  Pb  Pb66  1  0.00038260  0.00394140  0.49733995  1
  Pb  Pb67  1  -0.00878992  0.00113801  0.75610783  1
  Pb  Pb68  1  -0.01257015  0.25491267  -0.00255258  1
  Pb  Pb69  1  -0.00290864  0.25286810  0.24480246  1
  Pb  Pb70  1  0.00168672  0.26800292  0.50426695  1
  Pb  Pb71  1  -0.00154479  0.25615456  0.75302935  1
  Pb  Pb72  1  0.00395638  0.49691230  -0.00689349  1
  Pb  Pb73  1  0.00839561  0.49979901  0.25249218  1
  Pb  Pb74  1  0.00203790  0.49684141  0.49281641  1
  Pb  Pb75  1  0.00647634  0.49805638  0.75194496  1
  Pb  Pb76  1  0.00448045  0.74586521  0.00193708  1
  Pb  Pb77  1  0.00170924  0.74177680  0.25302953  1
  Pb  Pb78  1  0.00478305  0.74584848  0.49433325  1
  Pb  Pb79  1  0.00479266  0.74661324  0.75418945  1
  Pb  Pb80  1  0.24535491  0.00225222  0.00446160  1
  Pb  Pb81  1  0.25024921  -0.01136013  0.25168751  1
  Pb  Pb82  1  0.25173275  -0.00200148  0.49561369  1
  Pb  Pb83  1  0.25458163  -0.00674183  0.75506072  1
  Pb  Pb84  1  0.24756456  0.25448163  -0.00358090  1
  Pb  Pb85  1  0.24386976  0.25773530  0.24816486  1
  Pb  Pb86  1  0.24806984  0.26244386  0.50774579  1
  Pb  Pb87  1  0.25135985  0.25805537  0.75356202  1
  Pb  Pb88  1  0.25200461  0.50248973  -0.01180135  1
  Pb  Pb89  1  0.24562814  0.50363172  0.24293076  1
  Pb  Pb90  1  0.25071602  0.49529149  0.50308472  1
  Pb  Pb91  1  0.25493245  0.49489917  0.75179695  1
  Pb  Pb92  1  0.25590081  0.74049471  -0.00006033  1
  Pb  Pb93  1  0.25047750  0.75056630  0.24378995  1
  Pb  Pb94  1  0.25224622  0.74853856  0.49346008  1
  Pb  Pb95  1  0.25068241  0.74153897  0.75729559  1
  Pb  Pb96  1  0.49554806  -0.00540410  0.00353079  1
  Pb  Pb97  1  0.50502686  0.00695221  0.25236809  1
  Pb  Pb98  1  0.50838777  -0.00204171  0.50358729  1
  Pb  Pb99  1  0.50024473  -0.00410771  0.74839132  1
  Pb  Pb100  1  0.49739554  0.25779224  -0.00147290  1
  Pb  Pb101  1  0.51176945  0.24951208  0.25305107  1
  Pb  Pb102  1  0.50349349  0.24776396  0.50076682  1
  Pb  Pb103  1  0.50179735  0.26002608  0.75151063  1
  Pb  Pb104  1  0.48834141  0.50024508  -0.00315282  1
  Pb  Pb105  1  0.49811465  0.50195251  0.24374940  1
  Pb  Pb106  1  0.49177107  0.50604748  0.50926135  1
  Pb  Pb107  1  0.49429544  0.50046840  0.74755013  1
  Pb  Pb108  1  0.48767470  0.74955199  0.00322937  1
  Pb  Pb109  1  0.49503721  0.74946211  0.24567375  1
  Pb  Pb110  1  0.49743618  0.73977197  0.50821642  1
  Pb  Pb111  1  0.49574602  0.74576269  0.75020359  1
  Pb  Pb112  1  0.75466772  0.00524663  -0.00110938  1
  Pb  Pb113  1  0.74542472  0.00734806  0.25059284  1
  Pb  Pb114  1  0.74338964  -0.00142814  0.50473622  1
  Pb  Pb115  1  0.75863530  0.00151272  0.75004535  1
  Pb  Pb116  1  0.76118932  0.25474073  0.00044489  1
  Pb  Pb117  1  0.75012139  0.25539779  0.25218103  1
  Pb  Pb118  1  0.75245872  0.25354772  0.49870173  1
  Pb  Pb119  1  0.74916119  0.25569701  0.75222492  1
  Pb  Pb120  1  0.74920861  0.49807748  -0.00211002  1
  Pb  Pb121  1  0.75082838  0.49002839  0.25333062  1
  Pb  Pb122  1  0.76052057  0.49124836  0.49937848  1
  Pb  Pb123  1  0.74879760  0.48934710  0.75116685  1
  Pb  Pb124  1  0.74252235  0.74533048  0.00067927  1
  Pb  Pb125  1  0.75624484  0.74423445  0.25218434  1
  Pb  Pb126  1  0.73993772  0.75156989  0.50510495  1
  Pb  Pb127  1  0.75085363  0.75544739  0.74696070  1
  O  O128  1  0.12554934  -0.00498874  0.16164829  1
  O  O129  1  0.12722185  0.00556057  0.41660084  1
  O  O130  1  0.12489831  0.00049297  0.66883282  1
  O  O131  1  0.12770853  0.00069100  0.91742103  1
  O  O132  1  0.12637248  0.25456755  0.16051268  1
  O  O133  1  0.12624676  0.24445108  0.41551371  1
  O  O134  1  0.12480250  0.23697026  0.66715723  1
  O  O135  1  0.12828351  0.24239837  0.90956715  1
  O  O136  1  0.12290599  0.49450772  0.15936636  1
  O  O137  1  0.12796329  0.50030371  0.41518410  1
  O  O138  1  0.12277145  0.50896647  0.66231186  1
  O  O139  1  0.12160360  0.50016770  0.90957426  1
  O  O140  1  0.12189521  0.75663309  0.16015795  1
  O  O141  1  0.12719406  0.74980664  0.41306717  1
  O  O142  1  0.12298701  0.75168128  0.66747334  1
  O  O143  1  0.12101415  0.75786208  0.91332085  1
  O  O144  1  0.37852867  0.00903854  0.16407172  1
  O  O145  1  0.37297407  0.00561727  0.40878124  1
  O  O146  1  0.36982389  0.00004496  0.66578974  1
  O  O147  1  0.37499229  0.00551205  0.91919784  1
  O  O148  1  0.37853361  0.24495585  0.16633308  1
  O  O149  1  0.37554860  0.25178849  0.41322161  1
  O  O150  1  0.37118109  0.23977000  0.66156456  1
  O  O151  1  0.37592109  0.23941609  0.91245057  1
  O  O152  1  0.37797423  0.49660202  0.16324578  1
  O  O153  1  0.37775357  0.50208833  0.41596211  1
  O  O154  1  0.37460907  0.49941303  0.66539832  1
  O  O155  1  0.37887809  0.50224072  0.90622435  1
  O  O156  1  0.37748531  0.75081143  0.16392654  1
  O  O157  1  0.37899082  0.74346195  0.41005178  1
  O  O158  1  0.37085073  0.75856248  0.66261505  1
  O  O159  1  0.37768348  0.75287858  0.91405820  1
  O  O160  1  0.62533918  -0.00123130  0.16583870  1
  O  O161  1  0.62508709  -0.00597255  0.41644832  1
  O  O162  1  0.62386327  0.00056398  0.66594315  1
  O  O163  1  0.62133007  0.00100000  0.91468949  1
  O  O164  1  0.62486097  0.25105351  0.16342869  1
  O  O165  1  0.62196869  0.24979079  0.41820108  1
  O  O166  1  0.62587730  0.25096060  0.65993137  1
  O  O167  1  0.62135154  0.23857285  0.90892709  1
  O  O168  1  0.62719306  0.49445572  0.15823739  1
  O  O169  1  0.62424892  0.50510064  0.41530859  1
  O  O170  1  0.62566459  0.49307897  0.66020871  1
  O  O171  1  0.62917730  0.50744434  0.90642394  1
  O  O172  1  0.62772959  0.75689419  0.16143445  1
  O  O173  1  0.62419497  0.75305231  0.41632316  1
  O  O174  1  0.62753548  0.75353740  0.66684668  1
  O  O175  1  0.62896420  0.75474729  0.90963256  1
  O  O176  1  0.87327263  -0.00555273  0.16473796  1
  O  O177  1  0.87411468  -0.00242909  0.41844799  1
  O  O178  1  0.88037507  0.00139978  0.66451943  1
  O  O179  1  0.87435149  -0.00144752  0.91878198  1
  O  O180  1  0.87365428  0.24824621  0.16643903  1
  O  O181  1  0.87568871  0.23997017  0.40839646  1
  O  O182  1  0.87815965  0.24122700  0.66151278  1
  O  O183  1  0.87220753  0.24711386  0.91044528  1
  O  O184  1  0.87244936  0.50469733  0.15927978  1
  O  O185  1  0.87192785  0.50185153  0.41127784  1
  O  O186  1  0.87729457  0.50872463  0.66249257  1
  O  O187  1  0.87029425  0.50956344  0.91072668  1
  O  O188  1  0.87322141  0.75332458  0.16675632  1
  O  O189  1  0.87192404  0.75902314  0.41492744  1
  O  O190  1  0.87853844  0.74716054  0.66536923  1
  O  O191  1  0.87171617  0.74672132  0.91369425  1
  O  O192  1  0.00172620  0.12297256  0.16360144  1
  O  O193  1  -0.00307946  0.11845299  0.41089278  1
  O  O194  1  0.00300338  0.12068265  0.66628139  1
  O  O195  1  0.00686326  0.12114368  0.90963054  1
  O  O196  1  0.00601101  0.37428340  0.16058388  1
  O  O197  1  -0.00074923  0.37263554  0.41161860  1
  O  O198  1  -0.00057655  0.37315353  0.66797999  1
  O  O199  1  -0.00229531  0.37361805  0.90731784  1
  O  O200  1  -0.00740834  0.62807428  0.16336246  1
  O  O201  1  -0.00142638  0.62829398  0.41403313  1
  O  O202  1  -0.00014322  0.62897171  0.66696081  1
  O  O203  1  -0.00964543  0.62824899  0.91154338  1
  O  O204  1  0.00072508  0.87634641  0.16224034  1
  O  O205  1  -0.00594436  0.87776971  0.41195848  1
  O  O206  1  0.00197368  0.87557242  0.66780041  1
  O  O207  1  0.00622308  0.87944352  0.91527090  1
  O  O208  1  0.25557258  0.12680563  0.16100850  1
  O  O209  1  0.25439073  0.12699845  0.41435679  1
  O  O210  1  0.24856452  0.11976927  0.66592577  1
  O  O211  1  0.25333583  0.12211259  0.91448991  1
  O  O212  1  0.24558940  0.37365565  0.15895073  1
  O  O213  1  0.25757379  0.37570068  0.41710501  1
  O  O214  1  0.24890768  0.37227192  0.66800072  1
  O  O215  1  0.24988510  0.37175094  0.90844089  1
  O  O216  1  0.24889130  0.62540727  0.15848584  1
  O  O217  1  0.25874550  0.62407555  0.40896782  1
  O  O218  1  0.24250739  0.63006138  0.66354976  1
  O  O219  1  0.24943743  0.62955105  0.90932229  1
  O  O220  1  0.24505404  0.87615735  0.15890507  1
  O  O221  1  0.25342891  0.87517395  0.41556935  1
  O  O222  1  0.24965337  0.87747765  0.66733998  1
  O  O223  1  0.24186688  0.87702888  0.91690649  1
  O  O224  1  0.50102350  0.12548118  0.16757015  1
  O  O225  1  0.48979076  0.12540441  0.41566029  1
  O  O226  1  0.49026632  0.12046624  0.65975055  1
  O  O227  1  0.49720199  0.12100145  0.91261682  1
  O  O228  1  0.50763455  0.37192010  0.16243529  1
  O  O229  1  0.49401314  0.37696827  0.41660690  1
  O  O230  1  0.50504876  0.37076833  0.66051956  1
  O  O231  1  0.50253118  0.37183695  0.91325591  1
  O  O232  1  0.50433579  0.62534033  0.16472701  1
  O  O233  1  0.50101569  0.62545836  0.41852133  1
  O  O234  1  0.50254595  0.62764339  0.66784083  1
  O  O235  1  0.50923148  0.63063038  0.90588368  1
  O  O236  1  0.51019815  0.87812860  0.16516438  1
  O  O237  1  0.50336465  0.87661938  0.40994281  1
  O  O238  1  0.49060133  0.87838338  0.66051236  1
  O  O239  1  0.50853365  0.87752918  0.91532984  1
  O  O240  1  0.74567874  0.12273610  0.16450063  1
  O  O241  1  0.75763940  0.12004727  0.41385027  1
  O  O242  1  0.75813271  0.11996018  0.65501050  1
  O  O243  1  0.74041421  0.11925935  0.90813411  1
  O  O244  1  0.74288717  0.37337782  0.16290614  1
  O  O245  1  0.75024130  0.37234607  0.41744783  1
  O  O246  1  0.74599224  0.37277410  0.66268531  1
  O  O247  1  0.74756344  0.37516087  0.91602477  1
  O  O248  1  0.75372642  0.62828741  0.16582305  1
  O  O249  1  0.74299398  0.63064337  0.41527843  1
  O  O250  1  0.75740291  0.62782953  0.66072548  1
  O  O251  1  0.75015269  0.62943928  0.91434102  1
  O  O252  1  0.74628807  0.87728905  0.16599171  1
  O  O253  1  0.75035342  0.87658220  0.41715516  1
  O  O254  1  0.75795884  0.87636618  0.66233010  1
  O  O255  1  0.74175478  0.87931955  0.91447624  1
  O  O256  1  0.12970073  0.12225183  0.03248070  1
  O  O257  1  0.12770838  0.12635567  0.29610314  1
  O  O258  1  0.12509010  0.12081078  0.55211679  1
  O  O259  1  0.12904027  0.12083399  0.80162692  1
  O  O260  1  0.12441251  0.37424720  0.04435334  1
  O  O261  1  0.12989645  0.37518301  0.28566636  1
  O  O262  1  0.12580639  0.36730602  0.54227488  1
  O  O263  1  0.12302638  0.37266655  0.77809634  1
  O  O264  1  0.11513563  0.62954514  0.03278474  1
  O  O265  1  0.11735738  0.62003354  0.28072687  1
  O  O266  1  0.12216956  0.63077411  0.55191714  1
  O  O267  1  0.11996495  0.63319387  0.78588088  1
  O  O268  1  0.12181822  0.87554974  0.04735007  1
  O  O269  1  0.12966300  0.88114011  0.28460063  1
  O  O270  1  0.12639563  0.87639222  0.54930720  1
  O  O271  1  0.12599040  0.87769054  0.80002804  1
  O  O272  1  0.37589307  0.12810080  0.04908199  1
  O  O273  1  0.37326928  0.12721775  0.29794292  1
  O  O274  1  0.37042296  0.12151741  0.54816639  1
  O  O275  1  0.37538481  0.12018960  0.79843287  1
  O  O276  1  0.38300829  0.37237823  0.03288716  1
  O  O277  1  0.37609978  0.37367220  0.30232768  1
  O  O278  1  0.36661463  0.37550475  0.53813672  1
  O  O279  1  0.37919419  0.36682662  0.78202258  1
  O  O280  1  0.38049366  0.62745587  0.03106076  1
  O  O281  1  0.38255765  0.62013973  0.29908599  1
  O  O282  1  0.38261915  0.62627904  0.54112271  1
  O  O283  1  0.37464024  0.63346099  0.77931313  1
  O  O284  1  0.38600366  0.87677589  0.03893090  1
  O  O285  1  0.36935772  0.87528075  0.28042605  1
  O  O286  1  0.36935744  0.87717111  0.54998531  1
  O  O287  1  0.37322744  0.88391856  0.79044953  1
  O  O288  1  0.62370299  0.12587068  0.04806304  1
  O  O289  1  0.61976127  0.12114078  0.29241019  1
  O  O290  1  0.61953064  0.11678450  0.53189838  1
  O  O291  1  0.62090050  0.12102160  0.79582293  1
  O  O292  1  0.62374638  0.37406660  0.04582606  1
  O  O293  1  0.63012773  0.37354616  0.28793041  1
  O  O294  1  0.62617975  0.37309284  0.54657143  1
  O  O295  1  0.62952066  0.36757444  0.78311899  1
  O  O296  1  0.63211279  0.62760775  0.03219620  1
  O  O297  1  0.62356721  0.62429900  0.30443194  1
  O  O298  1  0.61975923  0.63379526  0.53551639  1
  O  O299  1  0.63000082  0.62855443  0.79711605  1
  O  O300  1  0.62660074  0.87609736  0.04848139  1
  O  O301  1  0.62736984  0.87290870  0.30281174  1
  O  O302  1  0.62670782  0.87878846  0.53524198  1
  O  O303  1  0.62416031  0.87750136  0.79741246  1
  O  O304  1  0.87420553  0.12492067  0.03369818  1
  O  O305  1  0.87346940  0.11873864  0.29747695  1
  O  O306  1  0.88399690  0.12347599  0.54897430  1
  O  O307  1  0.87438819  0.11419992  0.78495098  1
  O  O308  1  0.87280118  0.36655211  0.03842290  1
  O  O309  1  0.86610663  0.37470548  0.28056804  1
  O  O310  1  0.87452321  0.37230433  0.54024313  1
  O  O311  1  0.86267131  0.37338906  0.78036895  1
  O  O312  1  0.87178339  0.62805597  0.05122333  1
  O  O313  1  0.87411221  0.63370367  0.28451114  1
  O  O314  1  0.87802195  0.62805090  0.54852005  1
  O  O315  1  0.87207601  0.62843030  0.79585490  1
  O  O316  1  0.87215119  0.87410910  0.04681753  1
  O  O317  1  0.87104396  0.87725613  0.30058977  1
  O  O318  1  0.88058643  0.87432920  0.55000665  1
  O  O319  1  0.87294834  0.88133776  0.78707645  1
