# generated using pymatgen
data_VFe(PbO3)2
_symmetry_space_group_name_H-M   'P 1'
_cell_length_a   15.39122805
_cell_length_b   15.39776299
_cell_length_c   18.49763644
_cell_angle_alpha   90.03396861
_cell_angle_beta   89.98564816
_cell_angle_gamma   89.99503176
_symmetry_Int_Tables_number   1
_chemical_formula_structural   VFe(PbO3)2
_chemical_formula_sum   'V32 Fe32 Pb64 O192'
_cell_volume   4383.76284527
_cell_formula_units_Z   32
loop_
 _symmetry_equiv_pos_site_id
 _symmetry_equiv_pos_as_xyz
  1  'x, y, z'
loop_
 _atom_site_type_symbol
 _atom_site_label
 _atom_site_symmetry_multiplicity
 _atom_site_fract_x
 _atom_site_fract_y
 _atom_site_fract_z
 _atom_site_occupancy
  V  V0  1  0.87474954  0.87475419  0.14569182  1
  V  V1  1  0.37686539  0.62393588  0.39030994  1
  V  V2  1  0.37371394  0.62713954  0.13618560  1
  V  V3  1  0.62375100  0.87789311  0.14364817  1
  V  V4  1  0.87759920  0.62484302  0.14226370  1
  V  V5  1  0.36919705  0.87877245  0.88471280  1
  V  V6  1  0.87840331  0.62015013  0.63806284  1
  V  V7  1  0.87650836  0.37887257  0.89416367  1
  V  V8  1  0.62425997  0.37574515  0.63926602  1
  V  V9  1  0.36765215  0.37807538  0.64717595  1
  V  V10  1  0.12498691  0.87717146  0.14676390  1
  V  V11  1  0.12319170  0.37247757  0.14147994  1
  V  V12  1  0.37898209  0.37419290  0.38838810  1
  V  V13  1  0.62580014  0.62469383  0.39084041  1
  V  V14  1  0.62550472  0.87507150  0.63329992  1
  V  V15  1  0.12610960  0.62331296  0.63988689  1
  V  V16  1  0.37735726  0.87989348  0.40479785  1
  V  V17  1  0.62653430  0.63006759  0.13738810  1
  V  V18  1  0.62014311  0.87792692  0.39337586  1
  V  V19  1  0.37293392  0.87565954  0.13933936  1
  V  V20  1  0.62689176  0.87727517  0.88473152  1
  V  V21  1  0.37190053  0.37615444  0.13365433  1
  V  V22  1  0.87446458  0.12684236  0.88613293  1
  V  V23  1  0.87522679  0.12526569  0.14667388  1
  V  V24  1  0.62788205  0.12574738  0.88982158  1
  V  V25  1  0.37263835  0.12490429  0.14286306  1
  V  V26  1  0.62331571  0.13685706  0.39056182  1
  V  V27  1  0.87360580  0.63052664  0.88960716  1
  V  V28  1  0.87212370  0.37403216  0.38669935  1
  V  V29  1  0.11921132  0.37664528  0.64067318  1
  V  V30  1  0.62699663  0.62395543  0.64462566  1
  V  V31  1  0.87620807  0.62269539  0.38543256  1
  Fe  Fe32  1  0.12421024  0.12791905  0.63516712  1
  Fe  Fe33  1  0.37880315  0.12674802  0.63576150  1
  Fe  Fe34  1  0.62549189  0.11952711  0.13789407  1
  Fe  Fe35  1  0.37756157  0.12715985  0.39106372  1
  Fe  Fe36  1  0.13103484  0.37915848  0.38495068  1
  Fe  Fe37  1  0.37607263  0.62756830  0.87643995  1
  Fe  Fe38  1  0.87242923  0.37883710  0.63378472  1
  Fe  Fe39  1  0.62464285  0.37216100  0.13553866  1
  Fe  Fe40  1  0.12744136  0.87068493  0.39663564  1
  Fe  Fe41  1  0.62606214  0.12785962  0.63070562  1
  Fe  Fe42  1  0.12415665  0.12420516  0.87560917  1
  Fe  Fe43  1  0.87685873  0.37504903  0.13586997  1
  Fe  Fe44  1  0.12599014  0.62815587  0.14235638  1
  Fe  Fe45  1  0.62127291  0.38214790  0.38374498  1
  Fe  Fe46  1  0.12320933  0.37396186  0.88254778  1
  Fe  Fe47  1  0.87392274  0.88010431  0.88171169  1
  Fe  Fe48  1  0.37622888  0.62192994  0.64897753  1
  Fe  Fe49  1  0.62838283  0.62654888  0.88433286  1
  Fe  Fe50  1  0.12767850  0.62089268  0.38170442  1
  Fe  Fe51  1  0.12392280  0.12196834  0.14549947  1
  Fe  Fe52  1  0.62787883  0.37544259  0.89055776  1
  Fe  Fe53  1  0.87292570  0.87152396  0.62689420  1
  Fe  Fe54  1  0.87286141  0.12482623  0.39385232  1
  Fe  Fe55  1  0.37720094  0.12232062  0.87935950  1
  Fe  Fe56  1  0.87256396  0.12929467  0.62556789  1
  Fe  Fe57  1  0.87098977  0.87148913  0.39664494  1
  Fe  Fe58  1  0.12264250  0.62589558  0.88368840  1
  Fe  Fe59  1  0.37567803  0.87169630  0.62588822  1
  Fe  Fe60  1  0.11988820  0.87678560  0.87821977  1
  Fe  Fe61  1  0.37582493  0.37202568  0.88055407  1
  Fe  Fe62  1  0.12740510  0.12804840  0.38586525  1
  Fe  Fe63  1  0.12460278  0.87262892  0.62621911  1
  Pb  Pb64  1  0.00438974  0.00117844  -0.00489924  1
  Pb  Pb65  1  -0.00871003  0.00052462  0.26647579  1
  Pb  Pb66  1  0.00405649  -0.00027951  0.49388830  1
  Pb  Pb67  1  0.00274550  -0.00415091  0.73333090  1
  Pb  Pb68  1  0.00703476  0.24338980  -0.00111366  1
  Pb  Pb69  1  0.00242814  0.24124532  0.25727037  1
  Pb  Pb70  1  0.00676731  0.24032902  0.49830008  1
  Pb  Pb71  1  -0.00096998  0.24345773  0.74394415  1
  Pb  Pb72  1  0.00686389  0.50349157  0.00251582  1
  Pb  Pb73  1  0.01235169  0.49880835  0.25329688  1
  Pb  Pb74  1  -0.00055359  0.49480951  0.49612645  1
  Pb  Pb75  1  0.00701244  0.50163846  0.75551568  1
  Pb  Pb76  1  0.00658513  0.75206332  -0.00087521  1
  Pb  Pb77  1  0.00523149  0.76278891  0.26160539  1
  Pb  Pb78  1  0.00614574  0.75612839  0.49830549  1
  Pb  Pb79  1  0.00041999  0.76363689  0.74796576  1
  Pb  Pb80  1  0.23943005  0.01082388  -0.00492203  1
  Pb  Pb81  1  0.24508135  0.00318272  0.26066917  1
  Pb  Pb82  1  0.23712363  0.01060996  0.50411286  1
  Pb  Pb83  1  0.24504949  -0.00154185  0.73354514  1
  Pb  Pb84  1  0.24886348  0.24650626  -0.01165330  1
  Pb  Pb85  1  0.24628675  0.24625873  0.25482703  1
  Pb  Pb86  1  0.24667892  0.24372638  0.50061491  1
  Pb  Pb87  1  0.24940217  0.23739930  0.75093403  1
  Pb  Pb88  1  0.25090672  0.50178940  -0.01195785  1
  Pb  Pb89  1  0.24573631  0.50027287  0.24894562  1
  Pb  Pb90  1  0.25602982  0.50559195  0.50225286  1
  Pb  Pb91  1  0.24108403  0.49789262  0.75936652  1
  Pb  Pb92  1  0.24144139  0.74301838  -0.00536316  1
  Pb  Pb93  1  0.24280460  0.75473461  0.25758853  1
  Pb  Pb94  1  0.25095935  0.75109312  0.50435013  1
  Pb  Pb95  1  0.25117591  0.75202375  0.74307207  1
  Pb  Pb96  1  0.50508162  0.00377486  -0.00064963  1
  Pb  Pb97  1  0.49108354  0.00510824  0.25578653  1
  Pb  Pb98  1  0.50033210  0.01282313  0.51055490  1
  Pb  Pb99  1  0.49306889  0.00528432  0.74213231  1
  Pb  Pb100  1  0.50179966  0.25250694  -0.00438877  1
  Pb  Pb101  1  0.49951367  0.24891001  0.24659762  1
  Pb  Pb102  1  0.49886388  0.24536375  0.50664822  1
  Pb  Pb103  1  0.49551372  0.25068517  0.75288314  1
  Pb  Pb104  1  0.49959450  0.50122868  -0.01126951  1
  Pb  Pb105  1  0.50273807  0.49505140  0.24321162  1
  Pb  Pb106  1  0.49293379  0.50503835  0.50766448  1
  Pb  Pb107  1  0.50227370  0.48957528  0.76006929  1
  Pb  Pb108  1  0.49952105  0.75215528  -0.00868720  1
  Pb  Pb109  1  0.49614128  0.75131780  0.24926699  1
  Pb  Pb110  1  0.49192653  0.74356840  0.50884789  1
  Pb  Pb111  1  0.49777302  0.74414387  0.74920913  1
  Pb  Pb112  1  0.74740601  0.00604515  0.00212240  1
  Pb  Pb113  1  0.76041570  0.00052049  0.26205173  1
  Pb  Pb114  1  0.75767566  0.00328878  0.50288876  1
  Pb  Pb115  1  0.75985384  -0.00180102  0.73819430  1
  Pb  Pb116  1  0.75107508  0.25608852  0.00817848  1
  Pb  Pb117  1  0.74508436  0.25255303  0.24850977  1
  Pb  Pb118  1  0.75865886  0.25593372  0.50338746  1
  Pb  Pb119  1  0.75021398  0.25231217  0.74405620  1
  Pb  Pb120  1  0.74819483  0.49093396  0.00552274  1
  Pb  Pb121  1  0.74420972  0.49397763  0.24649988  1
  Pb  Pb122  1  0.75225443  0.49502023  0.50154384  1
  Pb  Pb123  1  0.74109610  0.49889841  0.75678231  1
  Pb  Pb124  1  0.74967634  0.75457009  -0.00245780  1
  Pb  Pb125  1  0.75504636  0.75551148  0.25460294  1
  Pb  Pb126  1  0.75069970  0.74891890  0.50309360  1
  Pb  Pb127  1  0.75150234  0.74763139  0.74901191  1
  O  O128  1  0.12592741  -0.00746693  0.17209771  1
  O  O129  1  0.12856084  0.00010634  0.41215703  1
  O  O130  1  0.12418099  -0.00083558  0.64914238  1
  O  O131  1  0.12160379  0.00094981  0.91151681  1
  O  O132  1  0.12599627  0.25450211  0.16665030  1
  O  O133  1  0.12761908  0.25683651  0.41373475  1
  O  O134  1  0.12635506  0.26127004  0.66040044  1
  O  O135  1  0.12034183  0.24763819  0.91109623  1
  O  O136  1  0.12638987  0.49513721  0.16173762  1
  O  O137  1  0.12464835  0.50038863  0.41903721  1
  O  O138  1  0.12442913  0.49887823  0.66755199  1
  O  O139  1  0.12006086  0.50008739  0.91641556  1
  O  O140  1  0.12553705  0.75723119  0.17020701  1
  O  O141  1  0.12815957  0.74042126  0.41551069  1
  O  O142  1  0.12185102  0.73938963  0.65607104  1
  O  O143  1  0.12115601  0.75221582  0.91306626  1
  O  O144  1  0.37254503  -0.00033771  0.17001476  1
  O  O145  1  0.38275728  -0.00488457  0.41573298  1
  O  O146  1  0.38049150  -0.00392975  0.65361397  1
  O  O147  1  0.38035577  -0.00606193  0.91245505  1
  O  O148  1  0.37372335  0.24637163  0.16112440  1
  O  O149  1  0.38054129  0.25890940  0.41054136  1
  O  O150  1  0.38178830  0.26015021  0.66320990  1
  O  O151  1  0.37898010  0.24521899  0.91300834  1
  O  O152  1  0.37511709  0.49991789  0.15837423  1
  O  O153  1  0.38035204  0.50163646  0.41748558  1
  O  O154  1  0.37890251  0.49299188  0.67150668  1
  O  O155  1  0.37685992  0.50155851  0.90567672  1
  O  O156  1  0.37481553  0.75261164  0.16682874  1
  O  O157  1  0.37882865  0.73796924  0.41652405  1
  O  O158  1  0.37762042  0.75026616  0.66298412  1
  O  O159  1  0.37765967  0.76206740  0.91062954  1
  O  O160  1  0.62297410  -0.00524786  0.17127562  1
  O  O161  1  0.61876697  -0.00856833  0.41073305  1
  O  O162  1  0.62816346  -0.00872215  0.65263752  1
  O  O163  1  0.62854941  0.00134591  0.91679915  1
  O  O164  1  0.62419027  0.24524656  0.16453712  1
  O  O165  1  0.62199563  0.25167191  0.40487776  1
  O  O166  1  0.62617883  0.25894779  0.65766897  1
  O  O167  1  0.62860357  0.24172189  0.91109987  1
  O  O168  1  0.62451698  0.50680113  0.15919177  1
  O  O169  1  0.62214718  0.50778656  0.41695049  1
  O  O170  1  0.62768441  0.50210829  0.66724302  1
  O  O171  1  0.62919306  0.50248943  0.91667818  1
  O  O172  1  0.62353439  0.75319824  0.17063429  1
  O  O173  1  0.62161893  0.73966101  0.41886515  1
  O  O174  1  0.62865389  0.74568376  0.66247169  1
  O  O175  1  0.63074813  0.75507477  0.91416127  1
  O  O176  1  0.87635895  -0.00140945  0.17401184  1
  O  O177  1  0.86841503  -0.00192051  0.41685971  1
  O  O178  1  0.87094402  -0.00114221  0.64899222  1
  O  O179  1  0.87146531  0.00994680  0.91188453  1
  O  O180  1  0.87635569  0.24326225  0.16593164  1
  O  O181  1  0.86648241  0.25842444  0.40603170  1
  O  O182  1  0.87099685  0.25555830  0.66233958  1
  O  O183  1  0.87273384  0.24381419  0.91539469  1
  O  O184  1  0.87239866  0.50791477  0.16086908  1
  O  O185  1  0.86876165  0.50345990  0.41296885  1
  O  O186  1  0.87250063  0.50559817  0.66738508  1
  O  O187  1  0.87485690  0.49756620  0.91232953  1
  O  O188  1  0.87380298  0.75015738  0.17094710  1
  O  O189  1  0.86817173  0.73679479  0.41177916  1
  O  O190  1  0.87282648  0.73709691  0.65998539  1
  O  O191  1  0.87314569  0.74635511  0.91144721  1
  O  O192  1  -0.00547575  0.12161562  0.17217186  1
  O  O193  1  0.00052423  0.12845094  0.41108355  1
  O  O194  1  -0.00303474  0.13177721  0.65537206  1
  O  O195  1  -0.00812326  0.12527972  0.90730838  1
  O  O196  1  0.00496989  0.37481857  0.16380353  1
  O  O197  1  -0.01125273  0.38044326  0.40806885  1
  O  O198  1  0.00315748  0.38022890  0.65870965  1
  O  O199  1  -0.00735902  0.37168739  0.91786927  1
  O  O200  1  -0.00732216  0.62792762  0.16437392  1
  O  O201  1  -0.00851353  0.61934972  0.40564564  1
  O  O202  1  -0.00180141  0.61831936  0.65954145  1
  O  O203  1  -0.01011299  0.62377039  0.91726776  1
  O  O204  1  0.00241271  0.87449893  0.17077832  1
  O  O205  1  -0.00210402  0.86932393  0.41306083  1
  O  O206  1  -0.00221078  0.86791874  0.65236531  1
  O  O207  1  -0.00437279  0.87743903  0.91539348  1
  O  O208  1  0.25558985  0.12286530  0.16862776  1
  O  O209  1  0.25379937  0.12702482  0.41563824  1
  O  O210  1  0.25249043  0.13054244  0.65718020  1
  O  O211  1  0.25075174  0.12167497  0.90696956  1
  O  O212  1  0.24933710  0.37382784  0.16409947  1
  O  O213  1  0.26229994  0.38120430  0.41353757  1
  O  O214  1  0.24972783  0.37889347  0.66295355  1
  O  O215  1  0.24939402  0.37386368  0.91006600  1
  O  O216  1  0.25575966  0.62689421  0.16382608  1
  O  O217  1  0.25917958  0.61825496  0.40981990  1
  O  O218  1  0.24209358  0.61962724  0.66256570  1
  O  O219  1  0.25106584  0.62919017  0.90950647  1
  O  O220  1  0.24822148  0.87513655  0.17018772  1
  O  O221  1  0.26113957  0.86844038  0.41684800  1
  O  O222  1  0.24974664  0.86981082  0.65255584  1
  O  O223  1  0.25444106  0.87798774  0.90448102  1
  O  O224  1  0.49247086  0.12130513  0.16547215  1
  O  O225  1  0.50670934  0.12401638  0.41686943  1
  O  O226  1  0.50490770  0.12642973  0.66461785  1
  O  O227  1  0.50889246  0.12048851  0.91160511  1
  O  O228  1  0.49406477  0.37387111  0.16020299  1
  O  O229  1  0.49507751  0.38066566  0.41649989  1
  O  O230  1  0.50833359  0.38086062  0.66446508  1
  O  O231  1  0.50184055  0.37256436  0.91557404  1
  O  O232  1  0.49948912  0.62895123  0.16331345  1
  O  O233  1  0.50020019  0.62175237  0.41732956  1
  O  O234  1  0.51028580  0.62358543  0.66558554  1
  O  O235  1  0.50094733  0.63145702  0.90995370  1
  O  O236  1  0.49669349  0.87498328  0.16788689  1
  O  O237  1  0.50356560  0.86315833  0.42142297  1
  O  O238  1  0.51052828  0.86797629  0.65769527  1
  O  O239  1  0.50435096  0.87723043  0.91277654  1
  O  O240  1  0.75639778  0.11995962  0.16756342  1
  O  O241  1  0.73701093  0.12177724  0.41227184  1
  O  O242  1  0.74844141  0.12722629  0.66128382  1
  O  O243  1  0.74968772  0.12360391  0.91573257  1
  O  O244  1  0.75163888  0.37461863  0.16619737  1
  O  O245  1  0.75077302  0.38158532  0.41186926  1
  O  O246  1  0.74322663  0.38105055  0.66396120  1
  O  O247  1  0.75786201  0.37115661  0.91826107  1
  O  O248  1  0.75053089  0.63058741  0.16591873  1
  O  O249  1  0.74573395  0.62210441  0.41171473  1
  O  O250  1  0.75068214  0.62251627  0.66498982  1
  O  O251  1  0.75909263  0.62430221  0.91845033  1
  O  O252  1  0.74978631  0.87459355  0.17041141  1
  O  O253  1  0.73622142  0.86578188  0.41567401  1
  O  O254  1  0.74423228  0.86738833  0.65910235  1
  O  O255  1  0.74827979  0.87814139  0.91532620  1
  O  O256  1  0.12382997  0.11820193  0.04549236  1
  O  O257  1  0.13103191  0.13112476  0.28283891  1
  O  O258  1  0.12824143  0.13431146  0.53240475  1
  O  O259  1  0.12500782  0.12877365  0.77463066  1
  O  O260  1  0.12316498  0.37109700  0.05040492  1
  O  O261  1  0.12828814  0.38444255  0.28476910  1
  O  O262  1  0.12395786  0.38132359  0.54943048  1
  O  O263  1  0.12085435  0.38475894  0.78271264  1
  O  O264  1  0.12212163  0.63365675  0.04215495  1
  O  O265  1  0.12794756  0.61683323  0.28001740  1
  O  O266  1  0.12497390  0.61597750  0.54877897  1
  O  O267  1  0.11933896  0.61719310  0.78379480  1
  O  O268  1  0.12439703  0.87691234  0.05551380  1
  O  O269  1  0.13014721  0.86606065  0.29410598  1
  O  O270  1  0.12633073  0.86628406  0.52374923  1
  O  O271  1  0.11597942  0.87438488  0.77793949  1
  O  O272  1  0.37220525  0.11966461  0.05209095  1
  O  O273  1  0.37990591  0.12262598  0.29058520  1
  O  O274  1  0.38878124  0.13244907  0.53314328  1
  O  O275  1  0.38165058  0.12534291  0.77875963  1
  O  O276  1  0.37129790  0.37250593  0.04303975  1
  O  O277  1  0.37966599  0.37784382  0.29691857  1
  O  O278  1  0.37536944  0.38151800  0.55568629  1
  O  O279  1  0.38481011  0.37040476  0.77987288  1
  O  O280  1  0.37424568  0.63158339  0.04535616  1
  O  O281  1  0.38100077  0.62374727  0.29930015  1
  O  O282  1  0.37842763  0.61529017  0.54658611  1
  O  O283  1  0.37604860  0.63382838  0.77556490  1
  O  O284  1  0.37101834  0.87785737  0.04894894  1
  O  O285  1  0.38251300  0.86992006  0.31305729  1
  O  O286  1  0.38060076  0.86165174  0.52369627  1
  O  O287  1  0.37565338  0.87832889  0.79354002  1
  O  O288  1  0.62630480  0.11361075  0.03831982  1
  O  O289  1  0.61994247  0.12545350  0.29898649  1
  O  O290  1  0.61629388  0.12966144  0.53071033  1
  O  O291  1  0.63047330  0.12084912  0.79915415  1
  O  O292  1  0.63550067  0.37028462  0.03499883  1
  O  O293  1  0.62143125  0.38381570  0.28382219  1
  O  O294  1  0.62502971  0.38138692  0.54762136  1
  O  O295  1  0.62904799  0.38099240  0.79007280  1
  O  O296  1  0.62935453  0.63589291  0.04670677  1
  O  O297  1  0.62243741  0.62600816  0.29982037  1
  O  O298  1  0.62800417  0.62118657  0.55319901  1
  O  O299  1  0.63588745  0.62642822  0.78477720  1
  O  O300  1  0.62558109  0.87678118  0.05257959  1
  O  O301  1  0.61727175  0.87054588  0.30216515  1
  O  O302  1  0.62673448  0.86902147  0.54207822  1
  O  O303  1  0.62640508  0.87851786  0.79369375  1
  O  O304  1  0.87665034  0.12052674  0.05558201  1
  O  O305  1  0.87399775  0.11738232  0.29200499  1
  O  O306  1  0.86583835  0.13505764  0.52304103  1
  O  O307  1  0.86965380  0.12862333  0.79509994  1
  O  O308  1  0.86978728  0.37225638  0.03666894  1
  O  O309  1  0.87065994  0.37923585  0.29526365  1
  O  O310  1  0.86548599  0.37833703  0.53366668  1
  O  O311  1  0.87588659  0.37368480  0.80320798  1
  O  O312  1  0.87491870  0.63038157  0.05141004  1
  O  O313  1  0.87243277  0.62247051  0.29448546  1
  O  O314  1  0.87518642  0.61734055  0.54675980  1
  O  O315  1  0.87368978  0.62855533  0.79848797  1
  O  O316  1  0.87560865  0.87689209  0.05491780  1
  O  O317  1  0.86965058  0.87435937  0.29361155  1
  O  O318  1  0.86464351  0.86357469  0.52553864  1
  O  O319  1  0.87551667  0.87383144  0.78187506  1
