# generated using pymatgen
data_VFe(PbO3)2
_symmetry_space_group_name_H-M   'P 1'
_cell_length_a   15.38098726
_cell_length_b   15.38366453
_cell_length_c   18.54733069
_cell_angle_alpha   90.04288546
_cell_angle_beta   90.00665119
_cell_angle_gamma   90.01523596
_symmetry_Int_Tables_number   1
_chemical_formula_structural   VFe(PbO3)2
_chemical_formula_sum   'V32 Fe32 Pb64 O192'
_cell_volume   4388.59282169
_cell_formula_units_Z   32
loop_
 _symmetry_equiv_pos_site_id
 _symmetry_equiv_pos_as_xyz
  1  'x, y, z'
loop_
 _atom_site_type_symbol
 _atom_site_label
 _atom_site_symmetry_multiplicity
 _atom_site_fract_x
 _atom_site_fract_y
 _atom_site_fract_z
 _atom_site_occupancy
  V  V0  1  0.37477671  0.12536958  0.88529478  1
  V  V1  1  0.62667247  0.62586611  0.39131444  1
  V  V2  1  0.37581353  0.87688327  0.14144443  1
  V  V3  1  0.37245823  0.87279292  0.88855053  1
  V  V4  1  0.62825403  0.12513391  0.39690948  1
  V  V5  1  0.62909674  0.87614551  0.39663338  1
  V  V6  1  0.87426349  0.37534612  0.38860794  1
  V  V7  1  0.37802254  0.62368869  0.14063449  1
  V  V8  1  0.37600832  0.62219366  0.63669424  1
  V  V9  1  0.87318676  0.62714246  0.89357724  1
  V  V10  1  0.12353459  0.37691719  0.63971214  1
  V  V11  1  0.87538509  0.38380447  0.65016566  1
  V  V12  1  0.87471365  0.87755819  0.39083579  1
  V  V13  1  0.12502458  0.12174756  0.88557809  1
  V  V14  1  0.87349675  0.12475661  0.13497694  1
  V  V15  1  0.12662598  0.62718953  0.89340490  1
  V  V16  1  0.87423653  0.37357826  0.13280415  1
  V  V17  1  0.37515275  0.37724643  0.64091503  1
  V  V18  1  0.12504156  0.37641952  0.38520479  1
  V  V19  1  0.87602937  0.87824852  0.64092445  1
  V  V20  1  0.87845516  0.13587870  0.64655737  1
  V  V21  1  0.37658952  0.37067752  0.13940943  1
  V  V22  1  0.12646589  0.62269094  0.64100467  1
  V  V23  1  0.62504814  0.87368641  0.88589133  1
  V  V24  1  0.87390943  0.62601765  0.38793354  1
  V  V25  1  0.87434169  0.87624483  0.13500894  1
  V  V26  1  0.62178344  0.12510947  0.13836881  1
  V  V27  1  0.88114128  0.62862990  0.64319569  1
  V  V28  1  0.37476396  0.62603237  0.88935921  1
  V  V29  1  0.38096962  0.87472243  0.39669825  1
  V  V30  1  0.12673031  0.87438364  0.39039291  1
  V  V31  1  0.62767182  0.37527962  0.39233909  1
  Fe  Fe32  1  0.62559397  0.87210087  0.63038872  1
  Fe  Fe33  1  0.37120764  0.12512923  0.62879132  1
  Fe  Fe34  1  0.62169600  0.37511121  0.87947627  1
  Fe  Fe35  1  0.12783955  0.37386184  0.89299710  1
  Fe  Fe36  1  0.62527989  0.12439991  0.64444376  1
  Fe  Fe37  1  0.12155905  0.12625205  0.39193525  1
  Fe  Fe38  1  0.63038837  0.62392162  0.63787530  1
  Fe  Fe39  1  0.37583525  0.62429808  0.38457167  1
  Fe  Fe40  1  0.12483335  0.62522105  0.13820179  1
  Fe  Fe41  1  0.12797047  0.87500888  0.89031368  1
  Fe  Fe42  1  0.12719735  0.12507290  0.13594565  1
  Fe  Fe43  1  0.37215651  0.87048603  0.62761426  1
  Fe  Fe44  1  0.37173439  0.37632948  0.88094693  1
  Fe  Fe45  1  0.62052440  0.12102486  0.87397332  1
  Fe  Fe46  1  0.87149208  0.12737504  0.38807870  1
  Fe  Fe47  1  0.12291255  0.12713673  0.63105309  1
  Fe  Fe48  1  0.37694921  0.12299332  0.13457582  1
  Fe  Fe49  1  0.37782144  0.37635290  0.38556693  1
  Fe  Fe50  1  0.37634541  0.12709056  0.39644371  1
  Fe  Fe51  1  0.87416508  0.12093360  0.87788711  1
  Fe  Fe52  1  0.62383885  0.37154651  0.13318824  1
  Fe  Fe53  1  0.12216721  0.87324618  0.63296085  1
  Fe  Fe54  1  0.87805298  0.87354596  0.88417187  1
  Fe  Fe55  1  0.12689891  0.87630280  0.13451991  1
  Fe  Fe56  1  0.12308213  0.62498913  0.38122582  1
  Fe  Fe57  1  0.62293913  0.87844122  0.13649190  1
  Fe  Fe58  1  0.62531470  0.62469648  0.13151162  1
  Fe  Fe59  1  0.87315035  0.62448688  0.12803862  1
  Fe  Fe60  1  0.62112429  0.62772390  0.88713000  1
  Fe  Fe61  1  0.62659929  0.37779430  0.64543849  1
  Fe  Fe62  1  0.12600045  0.37343427  0.13156333  1
  Fe  Fe63  1  0.87722819  0.37395725  0.88192734  1
  Pb  Pb64  1  0.00383204  -0.00486067  -0.00413043  1
  Pb  Pb65  1  0.00397873  0.00820366  0.24883416  1
  Pb  Pb66  1  0.00554010  0.00427186  0.50243942  1
  Pb  Pb67  1  -0.00181350  -0.00117240  0.75050882  1
  Pb  Pb68  1  0.00136974  0.25183278  -0.00657909  1
  Pb  Pb69  1  0.00494980  0.24387308  0.24704444  1
  Pb  Pb70  1  -0.00079994  0.24687332  0.49969149  1
  Pb  Pb71  1  0.00198740  0.25942813  0.75741629  1
  Pb  Pb72  1  0.00325383  0.50264146  0.00085804  1
  Pb  Pb73  1  0.00436671  0.50304172  0.24221357  1
  Pb  Pb74  1  -0.00308595  0.50044622  0.49595168  1
  Pb  Pb75  1  0.00251351  0.49314356  0.76130140  1
  Pb  Pb76  1  0.00640309  0.75029828  0.00431505  1
  Pb  Pb77  1  0.00369273  0.74677039  0.24390265  1
  Pb  Pb78  1  0.00223759  0.75546304  0.49980693  1
  Pb  Pb79  1  0.00190066  0.76165864  0.75884488  1
  Pb  Pb80  1  0.25058619  0.00992717  0.00511258  1
  Pb  Pb81  1  0.24561732  0.01216803  0.25366036  1
  Pb  Pb82  1  0.25131874  0.00271565  0.50185413  1
  Pb  Pb83  1  0.24593192  -0.00091180  0.73512689  1
  Pb  Pb84  1  0.24713863  0.24450800  0.00132103  1
  Pb  Pb85  1  0.24988258  0.24429339  0.25003207  1
  Pb  Pb86  1  0.25130746  0.24434405  0.49668222  1
  Pb  Pb87  1  0.24915393  0.25631086  0.74745982  1
  Pb  Pb88  1  0.24557639  0.49609948  0.00226044  1
  Pb  Pb89  1  0.25176403  0.50375890  0.24909567  1
  Pb  Pb90  1  0.25380497  0.50432988  0.49219983  1
  Pb  Pb91  1  0.24942106  0.49154731  0.75657512  1
  Pb  Pb92  1  0.24374829  0.75072199  0.00653090  1
  Pb  Pb93  1  0.25010493  0.74412739  0.25090414  1
  Pb  Pb94  1  0.24787947  0.75548221  0.49944581  1
  Pb  Pb95  1  0.24335955  0.75864544  0.75010202  1
  Pb  Pb96  1  0.49678031  -0.00184315  -0.00257114  1
  Pb  Pb97  1  0.49341390  0.00620410  0.25568501  1
  Pb  Pb98  1  0.49911661  0.00817956  0.51063477  1
  Pb  Pb99  1  0.49766754  -0.00139664  0.73483686  1
  Pb  Pb100  1  0.50432913  0.25477829  -0.00827924  1
  Pb  Pb101  1  0.48883795  0.25045282  0.25648659  1
  Pb  Pb102  1  0.50070681  0.24774612  0.50628085  1
  Pb  Pb103  1  0.50418911  0.24793854  0.74633099  1
  Pb  Pb104  1  0.51006990  0.49439060  -0.00291815  1
  Pb  Pb105  1  0.49573513  0.49784719  0.25026696  1
  Pb  Pb106  1  0.50896548  0.50181627  0.50241006  1
  Pb  Pb107  1  0.50829202  0.50138414  0.75437991  1
  Pb  Pb108  1  0.50708476  0.75441597  0.00326730  1
  Pb  Pb109  1  0.49939085  0.74731190  0.24986962  1
  Pb  Pb110  1  0.50165495  0.75415439  0.50262190  1
  Pb  Pb111  1  0.50603668  0.74868608  0.74326049  1
  Pb  Pb112  1  0.74965913  0.00108801  -0.01022871  1
  Pb  Pb113  1  0.75523461  0.00507647  0.25027554  1
  Pb  Pb114  1  0.74155268  0.00502372  0.51103578  1
  Pb  Pb115  1  0.75266166  0.00256853  0.75009583  1
  Pb  Pb116  1  0.74568558  0.25024790  -0.01736702  1
  Pb  Pb117  1  0.75516775  0.24487662  0.24828723  1
  Pb  Pb118  1  0.73937397  0.25415970  0.51104526  1
  Pb  Pb119  1  0.74234064  0.24959166  0.75591833  1
  Pb  Pb120  1  0.74510391  0.49896589  -0.00660742  1
  Pb  Pb121  1  0.74652539  0.50047066  0.24007230  1
  Pb  Pb122  1  0.74279192  0.50017346  0.50747861  1
  Pb  Pb123  1  0.74120027  0.50193076  0.75926092  1
  Pb  Pb124  1  0.74804680  0.74241459  0.00265328  1
  Pb  Pb125  1  0.74734619  0.74972720  0.24243446  1
  Pb  Pb126  1  0.74528456  0.74858617  0.50327983  1
  Pb  Pb127  1  0.74991561  0.74899207  0.75081347  1
  O  O128  1  0.12619161  -0.00125969  0.16804798  1
  O  O129  1  0.12057094  -0.00845273  0.41444840  1
  O  O130  1  0.12127411  -0.00049881  0.65702873  1
  O  O131  1  0.13116030  0.00511023  0.91113368  1
  O  O132  1  0.12607802  0.25157743  0.16705296  1
  O  O133  1  0.12023305  0.26039338  0.41270676  1
  O  O134  1  0.12170681  0.25721925  0.66242488  1
  O  O135  1  0.13183716  0.23955994  0.91086115  1
  O  O136  1  0.12528988  0.49698771  0.16334182  1
  O  O137  1  0.12010494  0.49442049  0.41095523  1
  O  O138  1  0.12049576  0.50322378  0.66980526  1
  O  O139  1  0.12826695  0.50872866  0.91529577  1
  O  O140  1  0.12583827  0.75325324  0.16685579  1
  O  O141  1  0.12060034  0.75517698  0.41138481  1
  O  O142  1  0.11940956  0.73864587  0.66405534  1
  O  O143  1  0.12802770  0.74484536  0.91835694  1
  O  O144  1  0.37739105  -0.00560336  0.16686252  1
  O  O145  1  0.37595842  -0.00712109  0.41807691  1
  O  O146  1  0.37124725  -0.00262124  0.65327993  1
  O  O147  1  0.37497716  -0.00661709  0.91089584  1
  O  O148  1  0.37825230  0.25344269  0.16131768  1
  O  O149  1  0.37865171  0.25522486  0.42004151  1
  O  O150  1  0.37021759  0.26068815  0.65661659  1
  O  O151  1  0.37333123  0.24085995  0.90455926  1
  O  O152  1  0.37776743  0.50220349  0.16146089  1
  O  O153  1  0.37779901  0.49930754  0.41750856  1
  O  O154  1  0.36756623  0.50521767  0.66663846  1
  O  O155  1  0.37100317  0.51027762  0.90992810  1
  O  O156  1  0.37800675  0.74969358  0.16424325  1
  O  O157  1  0.37602892  0.75422371  0.41417372  1
  O  O158  1  0.36905099  0.73670465  0.66032889  1
  O  O159  1  0.37347277  0.75185443  0.91736499  1
  O  O160  1  0.62499293  0.00739404  0.16722187  1
  O  O161  1  0.62807917  0.00353720  0.42063493  1
  O  O162  1  0.62801095  -0.00482731  0.65998389  1
  O  O163  1  0.61713510  -0.00858289  0.90676777  1
  O  O164  1  0.62546633  0.24189853  0.16435437  1
  O  O165  1  0.62878780  0.25070155  0.41797375  1
  O  O166  1  0.62741105  0.25247106  0.66636093  1
  O  O167  1  0.61917830  0.24668118  0.90272380  1
  O  O168  1  0.62538153  0.49788077  0.16223668  1
  O  O169  1  0.62930381  0.49734228  0.41487191  1
  O  O170  1  0.62777737  0.50324634  0.67082758  1
  O  O171  1  0.62246883  0.50213606  0.90934579  1
  O  O172  1  0.62422504  0.75193352  0.16596444  1
  O  O173  1  0.62857265  0.75028608  0.41634607  1
  O  O174  1  0.62907333  0.74803160  0.66450969  1
  O  O175  1  0.62061480  0.75638911  0.91359784  1
  O  O176  1  0.87223642  0.00021843  0.16310003  1
  O  O177  1  0.87382528  -0.00713827  0.41556447  1
  O  O178  1  0.87780078  -0.00551435  0.65894056  1
  O  O179  1  0.87541512  -0.00180789  0.91538738  1
  O  O180  1  0.87242063  0.24916888  0.16182758  1
  O  O181  1  0.87132743  0.25715566  0.41682104  1
  O  O182  1  0.87873206  0.25242861  0.66605022  1
  O  O183  1  0.87715612  0.24574326  0.90783383  1
  O  O184  1  0.87285339  0.49142748  0.15415963  1
  O  O185  1  0.87278408  0.49978638  0.41701008  1
  O  O186  1  0.87968875  0.50105855  0.66936685  1
  O  O187  1  0.87844843  0.50759499  0.91202195  1
  O  O188  1  0.87261262  0.75841406  0.15632557  1
  O  O189  1  0.87366389  0.75202394  0.41509269  1
  O  O190  1  0.87852384  0.74554742  0.66402204  1
  O  O191  1  0.87704315  0.74589660  0.91568063  1
  O  O192  1  -0.00466816  0.12467845  0.16036314  1
  O  O193  1  -0.00535381  0.12611967  0.41814555  1
  O  O194  1  -0.00472676  0.12436982  0.66639451  1
  O  O195  1  0.00890318  0.12179763  0.90534690  1
  O  O196  1  -0.00906696  0.37094882  0.15882599  1
  O  O197  1  -0.00168402  0.37779522  0.41433645  1
  O  O198  1  -0.00035211  0.37791424  0.67050197  1
  O  O199  1  0.00151072  0.37517392  0.91622895  1
  O  O200  1  -0.00474102  0.62548829  0.16181609  1
  O  O201  1  -0.00473817  0.62471240  0.41383384  1
  O  O202  1  -0.00220197  0.62112165  0.67001047  1
  O  O203  1  0.00518235  0.62682070  0.91373119  1
  O  O204  1  -0.00896626  0.87848005  0.16059126  1
  O  O205  1  -0.00452483  0.87302751  0.41403274  1
  O  O206  1  -0.00512513  0.86900613  0.66515103  1
  O  O207  1  0.00288327  0.87425657  0.91616958  1
  O  O208  1  0.25404679  0.12536267  0.16809487  1
  O  O209  1  0.24785769  0.12505811  0.41487652  1
  O  O210  1  0.24771328  0.12909185  0.65864381  1
  O  O211  1  0.25480064  0.11931628  0.91236214  1
  O  O212  1  0.25966415  0.37647979  0.16193562  1
  O  O213  1  0.24203446  0.37680322  0.40580959  1
  O  O214  1  0.24813335  0.38129439  0.66562042  1
  O  O215  1  0.25272984  0.37615406  0.91823058  1
  O  O216  1  0.25828479  0.62574996  0.16417397  1
  O  O217  1  0.24736061  0.62543023  0.41188791  1
  O  O218  1  0.24231229  0.62117888  0.66142362  1
  O  O219  1  0.25108674  0.62929710  0.91706332  1
  O  O220  1  0.26007266  0.87292671  0.16528213  1
  O  O221  1  0.24630599  0.87361658  0.41021141  1
  O  O222  1  0.24738242  0.86694909  0.66053586  1
  O  O223  1  0.25769067  0.87190159  0.91409201  1
  O  O224  1  0.50502099  0.12366940  0.16389381  1
  O  O225  1  0.51027795  0.12532186  0.42077400  1
  O  O226  1  0.49477176  0.12757312  0.65959378  1
  O  O227  1  0.49215125  0.11754697  0.90627197  1
  O  O228  1  0.49494803  0.37555718  0.16482388  1
  O  O229  1  0.51193563  0.37526658  0.41639651  1
  O  O230  1  0.49075942  0.38294958  0.65911258  1
  O  O231  1  0.49469924  0.37620459  0.91138761  1
  O  O232  1  0.49632073  0.62585050  0.16322095  1
  O  O233  1  0.50672607  0.62504307  0.41522741  1
  O  O234  1  0.49212823  0.62124575  0.65593102  1
  O  O235  1  0.49051554  0.63022325  0.91166800  1
  O  O236  1  0.49356243  0.87487842  0.17108983  1
  O  O237  1  0.50007730  0.87424002  0.41766223  1
  O  O238  1  0.49779209  0.86756161  0.65514086  1
  O  O239  1  0.49508686  0.87182944  0.91382942  1
  O  O240  1  0.74714685  0.12434257  0.16466520  1
  O  O241  1  0.74611307  0.12559105  0.42216023  1
  O  O242  1  0.76083943  0.12356704  0.66643873  1
  O  O243  1  0.74509016  0.11903998  0.90408536  1
  O  O244  1  0.75544902  0.37029417  0.16049164  1
  O  O245  1  0.74681184  0.37585195  0.41790148  1
  O  O246  1  0.75977370  0.37700171  0.66922066  1
  O  O247  1  0.75035073  0.37556946  0.90455404  1
  O  O248  1  0.75134362  0.62581173  0.16435322  1
  O  O249  1  0.75118615  0.62527633  0.41880623  1
  O  O250  1  0.76314604  0.62264541  0.66743567  1
  O  O251  1  0.75349409  0.62818564  0.90933178  1
  O  O252  1  0.75509370  0.87903587  0.16298168  1
  O  O253  1  0.75517743  0.87419383  0.41705907  1
  O  O254  1  0.75915515  0.86921083  0.66262008  1
  O  O255  1  0.74168564  0.87436768  0.90489135  1
  O  O256  1  0.13698780  0.12489939  0.03620739  1
  O  O257  1  0.12030804  0.12384985  0.29059914  1
  O  O258  1  0.11656728  0.12808008  0.53031833  1
  O  O259  1  0.12919465  0.12245014  0.79468118  1
  O  O260  1  0.12757326  0.37328920  0.03121442  1
  O  O261  1  0.11951680  0.37540446  0.29440158  1
  O  O262  1  0.12252563  0.38135134  0.54911057  1
  O  O263  1  0.12489071  0.37653327  0.79129110  1
  O  O264  1  0.12730854  0.62865425  0.03789251  1
  O  O265  1  0.12344063  0.62476667  0.28139235  1
  O  O266  1  0.12128305  0.62088395  0.55015409  1
  O  O267  1  0.12852510  0.62885697  0.80252175  1
  O  O268  1  0.12610489  0.87154307  0.03424216  1
  O  O269  1  0.12262913  0.87515916  0.29977476  1
  O  O270  1  0.12012466  0.86634424  0.53285368  1
  O  O271  1  0.12609705  0.86432704  0.78957502  1
  O  O272  1  0.37270186  0.11832670  0.03544001  1
  O  O273  1  0.38514864  0.12642707  0.29493146  1
  O  O274  1  0.37738985  0.12479376  0.52690592  1
  O  O275  1  0.37088723  0.12103217  0.79464832  1
  O  O276  1  0.37864232  0.37288317  0.04853939  1
  O  O277  1  0.38549923  0.37448550  0.28584698  1
  O  O278  1  0.36965369  0.38367011  0.55026914  1
  O  O279  1  0.36467543  0.37651001  0.78096708  1
  O  O280  1  0.37703934  0.62458774  0.05025624  1
  O  O281  1  0.37716551  0.62301641  0.28485827  1
  O  O282  1  0.37098800  0.61948725  0.54554563  1
  O  O283  1  0.37201421  0.62970147  0.79861428  1
  O  O284  1  0.37942426  0.87740282  0.05040880  1
  O  O285  1  0.38056252  0.87613461  0.30570349  1
  O  O286  1  0.36836949  0.86611809  0.52740878  1
  O  O287  1  0.37279448  0.86936869  0.79770319  1
  O  O288  1  0.62284188  0.12340343  0.04758632  1
  O  O289  1  0.62855700  0.12522967  0.30636288  1
  O  O290  1  0.63160115  0.12653243  0.54211916  1
  O  O291  1  0.62309955  0.12358972  0.77333451  1
  O  O292  1  0.61681674  0.37127838  0.03368295  1
  O  O293  1  0.62811930  0.37267121  0.30181698  1
  O  O294  1  0.63369461  0.38046686  0.54387065  1
  O  O295  1  0.62036448  0.37975966  0.77751226  1
  O  O296  1  0.62887220  0.62972420  0.03096023  1
  O  O297  1  0.62977580  0.62417259  0.30040771  1
  O  O298  1  0.63227091  0.61832175  0.53720984  1
  O  O299  1  0.62243842  0.62694332  0.78623477  1
  O  O300  1  0.61569954  0.87610634  0.03773792  1
  O  O301  1  0.62638941  0.87892010  0.30589905  1
  O  O302  1  0.63111206  0.87026610  0.52972311  1
  O  O303  1  0.61969277  0.86902350  0.79488242  1
  O  O304  1  0.87065580  0.12345456  0.04447758  1
  O  O305  1  0.86568534  0.12507116  0.28842652  1
  O  O306  1  0.87763658  0.13146208  0.55512668  1
  O  O307  1  0.87753381  0.11331845  0.77782378  1
  O  O308  1  0.87390856  0.36898314  0.04206236  1
  O  O309  1  0.87404923  0.37597817  0.29805561  1
  O  O310  1  0.87891545  0.38095645  0.55914354  1
  O  O311  1  0.88744610  0.37637912  0.78156810  1
  O  O312  1  0.86941916  0.62570347  0.02879090  1
  O  O313  1  0.87161218  0.62479634  0.29733300  1
  O  O314  1  0.88130476  0.62444430  0.55246369  1
  O  O315  1  0.87756709  0.62860968  0.80246732  1
  O  O316  1  0.87291084  0.88027125  0.04412230  1
  O  O317  1  0.87475631  0.87648877  0.30032933  1
  O  O318  1  0.87812764  0.87258083  0.54988574  1
  O  O319  1  0.88119046  0.87270896  0.78420061  1
