# generated using pymatgen
data_VFe(PbO3)2
_symmetry_space_group_name_H-M   'P 1'
_cell_length_a   15.41085685
_cell_length_b   15.40849263
_cell_length_c   18.50346696
_cell_angle_alpha   89.96620058
_cell_angle_beta   89.99596529
_cell_angle_gamma   90.00323789
_symmetry_Int_Tables_number   1
_chemical_formula_structural   VFe(PbO3)2
_chemical_formula_sum   'V32 Fe32 Pb64 O192'
_cell_volume   4393.79684813
_cell_formula_units_Z   32
loop_
 _symmetry_equiv_pos_site_id
 _symmetry_equiv_pos_as_xyz
  1  'x, y, z'
loop_
 _atom_site_type_symbol
 _atom_site_label
 _atom_site_symmetry_multiplicity
 _atom_site_fract_x
 _atom_site_fract_y
 _atom_site_fract_z
 _atom_site_occupancy
  V  V0  1  0.87470521  0.87129854  0.14038796  1
  V  V1  1  0.87370396  0.37703347  0.38637104  1
  V  V2  1  0.62780989  0.12401619  0.63814925  1
  V  V3  1  0.63075632  0.12478322  0.38701118  1
  V  V4  1  0.12640939  0.62549032  0.14992574  1
  V  V5  1  0.87924297  0.12448839  0.63911583  1
  V  V6  1  0.62315810  0.37307463  0.89078810  1
  V  V7  1  0.13433973  0.12426743  0.63431327  1
  V  V8  1  0.87537504  0.62531151  0.63236864  1
  V  V9  1  0.87732916  0.37480488  0.89221240  1
  V  V10  1  0.62398248  0.37448517  0.14318413  1
  V  V11  1  0.12609711  0.87316906  0.14484057  1
  V  V12  1  0.62662343  0.87823674  0.38899951  1
  V  V13  1  0.12532727  0.37682588  0.14667047  1
  V  V14  1  0.62905639  0.11497803  0.13577953  1
  V  V15  1  0.37564129  0.62615020  0.15178889  1
  V  V16  1  0.87326233  0.87750537  0.38898903  1
  V  V17  1  0.62590238  0.86566961  0.13943172  1
  V  V18  1  0.12531965  0.12565114  0.89902684  1
  V  V19  1  0.38175437  0.12531665  0.63537287  1
  V  V20  1  0.62055811  0.87583682  0.88914274  1
  V  V21  1  0.12273270  0.87580189  0.89190625  1
  V  V22  1  0.87579452  0.62164039  0.15258437  1
  V  V23  1  0.87422739  0.87523836  0.88963875  1
  V  V24  1  0.62403784  0.62228628  0.14408436  1
  V  V25  1  0.36461855  0.12631597  0.15651320  1
  V  V26  1  0.87179829  0.12520383  0.38757790  1
  V  V27  1  0.37539528  0.12567044  0.89330283  1
  V  V28  1  0.37537098  0.37832426  0.15635563  1
  V  V29  1  0.12602937  0.37305777  0.88863452  1
  V  V30  1  0.13517053  0.12395461  0.37621431  1
  V  V31  1  0.37320468  0.37200558  0.88769637  1
  Fe  Fe32  1  0.37605102  0.88009039  0.37860029  1
  Fe  Fe33  1  0.12288585  0.62534521  0.62249720  1
  Fe  Fe34  1  0.62511501  0.62384468  0.88384760  1
  Fe  Fe35  1  0.87460006  0.38008501  0.13673525  1
  Fe  Fe36  1  0.62523213  0.62594084  0.62434756  1
  Fe  Fe37  1  0.62898513  0.62664182  0.39382916  1
  Fe  Fe38  1  0.87637829  0.62431269  0.88345427  1
  Fe  Fe39  1  0.87355523  0.37530214  0.63312728  1
  Fe  Fe40  1  0.62716955  0.37348657  0.62919550  1
  Fe  Fe41  1  0.38175736  0.12349645  0.37224535  1
  Fe  Fe42  1  0.87409570  0.87434430  0.63528113  1
  Fe  Fe43  1  0.62619010  0.87582880  0.63332191  1
  Fe  Fe44  1  0.12140557  0.36936878  0.39272722  1
  Fe  Fe45  1  0.12114880  0.37266998  0.62628560  1
  Fe  Fe46  1  0.87396488  0.62657441  0.37950633  1
  Fe  Fe47  1  0.37386469  0.62456984  0.61992767  1
  Fe  Fe48  1  0.37594831  0.62675909  0.39452066  1
  Fe  Fe49  1  0.12374292  0.62249584  0.88356138  1
  Fe  Fe50  1  0.37584171  0.37130183  0.62992862  1
  Fe  Fe51  1  0.62878791  0.37229865  0.38847741  1
  Fe  Fe52  1  0.37687760  0.87258875  0.15035389  1
  Fe  Fe53  1  0.12071725  0.62638095  0.39022269  1
  Fe  Fe54  1  0.12252358  0.12563676  0.13838774  1
  Fe  Fe55  1  0.37635888  0.37020422  0.38228805  1
  Fe  Fe56  1  0.37100408  0.87783437  0.88683318  1
  Fe  Fe57  1  0.37458062  0.87758361  0.63488635  1
  Fe  Fe58  1  0.87457094  0.12796836  0.13415836  1
  Fe  Fe59  1  0.12159897  0.87699424  0.62855641  1
  Fe  Fe60  1  0.12261276  0.88138259  0.38956887  1
  Fe  Fe61  1  0.37331396  0.62452099  0.88047894  1
  Fe  Fe62  1  0.62247086  0.12420737  0.89139003  1
  Fe  Fe63  1  0.87381856  0.12487036  0.89366896  1
  Pb  Pb64  1  -0.00027515  0.00728516  0.00766467  1
  Pb  Pb65  1  0.00350851  -0.00246330  0.24929772  1
  Pb  Pb66  1  -0.00340050  -0.00429901  0.50113058  1
  Pb  Pb67  1  -0.00297384  0.00051843  0.74864931  1
  Pb  Pb68  1  -0.00451817  0.24595986  0.00735581  1
  Pb  Pb69  1  -0.00073917  0.25135303  0.24858240  1
  Pb  Pb70  1  -0.00403791  0.25349669  0.50110628  1
  Pb  Pb71  1  -0.00438975  0.24907192  0.74755727  1
  Pb  Pb72  1  -0.00339600  0.49782422  0.00140109  1
  Pb  Pb73  1  0.00915795  0.50062169  0.25961240  1
  Pb  Pb74  1  0.00637383  0.50416826  0.49557876  1
  Pb  Pb75  1  0.00386783  0.50575393  0.74200812  1
  Pb  Pb76  1  0.00044367  0.74582445  -0.00066028  1
  Pb  Pb77  1  0.00221870  0.74535963  0.25855274  1
  Pb  Pb78  1  0.00674004  0.75081349  0.49549931  1
  Pb  Pb79  1  0.00498410  0.74238877  0.74288184  1
  Pb  Pb80  1  0.24714721  0.00095133  0.00784296  1
  Pb  Pb81  1  0.24514737  -0.01591586  0.25870557  1
  Pb  Pb82  1  0.25887308  -0.01464793  0.49947975  1
  Pb  Pb83  1  0.25247435  -0.01030109  0.75069347  1
  Pb  Pb84  1  0.24565576  0.24768561  0.00770608  1
  Pb  Pb85  1  0.24540430  0.26727006  0.26291831  1
  Pb  Pb86  1  0.25760588  0.26182267  0.49821931  1
  Pb  Pb87  1  0.24837886  0.25478165  0.74419173  1
  Pb  Pb88  1  0.25037181  0.50094833  -0.00390061  1
  Pb  Pb89  1  0.25012163  0.50884823  0.26786360  1
  Pb  Pb90  1  0.25068956  0.50266177  0.48913684  1
  Pb  Pb91  1  0.24973904  0.50713242  0.73129547  1
  Pb  Pb92  1  0.25544612  0.75005403  -0.00260873  1
  Pb  Pb93  1  0.24951576  0.74127582  0.26581271  1
  Pb  Pb94  1  0.25029972  0.75024441  0.48986712  1
  Pb  Pb95  1  0.25247144  0.74261301  0.73363760  1
  Pb  Pb96  1  0.48631829  -0.00871508  0.00977788  1
  Pb  Pb97  1  0.49569695  -0.00040660  0.25414388  1
  Pb  Pb98  1  0.49949799  -0.00700047  0.49695407  1
  Pb  Pb99  1  0.49714538  -0.00861007  0.75140169  1
  Pb  Pb100  1  0.49576928  0.24726347  0.00624651  1
  Pb  Pb101  1  0.49976810  0.25326648  0.25649432  1
  Pb  Pb102  1  0.49910570  0.25839299  0.49412543  1
  Pb  Pb103  1  0.50622639  0.24971702  0.74740545  1
  Pb  Pb104  1  0.49760499  0.50182719  -0.00433685  1
  Pb  Pb105  1  0.49863518  0.50282366  0.26512359  1
  Pb  Pb106  1  0.49766721  0.49944739  0.49010845  1
  Pb  Pb107  1  0.49861573  0.50657253  0.73220209  1
  Pb  Pb108  1  0.49172345  0.74960568  -0.00273696  1
  Pb  Pb109  1  0.49752073  0.73460543  0.26731848  1
  Pb  Pb110  1  0.49440600  0.74610499  0.49761282  1
  Pb  Pb111  1  0.49617752  0.74162509  0.73642516  1
  Pb  Pb112  1  0.75162415  0.00302314  0.00009836  1
  Pb  Pb113  1  0.75377219  -0.00187606  0.24831846  1
  Pb  Pb114  1  0.75145629  -0.00916251  0.50649961  1
  Pb  Pb115  1  0.74920067  0.00587470  0.75207874  1
  Pb  Pb116  1  0.75504941  0.24918512  0.00361883  1
  Pb  Pb117  1  0.74862512  0.25902751  0.24867185  1
  Pb  Pb118  1  0.75271869  0.25770059  0.50430943  1
  Pb  Pb119  1  0.74994461  0.24367377  0.75239901  1
  Pb  Pb120  1  0.75424233  0.49675033  0.00033260  1
  Pb  Pb121  1  0.73889226  0.49991488  0.25858376  1
  Pb  Pb122  1  0.74153041  0.50128479  0.49767230  1
  Pb  Pb123  1  0.74538092  0.50519124  0.74137320  1
  Pb  Pb124  1  0.74926178  0.74517396  -0.00385440  1
  Pb  Pb125  1  0.74809196  0.73881576  0.25715494  1
  Pb  Pb126  1  0.74591301  0.75002342  0.50111632  1
  Pb  Pb127  1  0.74449286  0.74276147  0.74333213  1
  O  O128  1  0.12388769  -0.00588075  0.16278541  1
  O  O129  1  0.11990649  0.01642310  0.41123118  1
  O  O130  1  0.12129040  0.01241876  0.66450156  1
  O  O131  1  0.12362112  -0.00238831  0.92297877  1
  O  O132  1  0.12658903  0.25739398  0.16399242  1
  O  O133  1  0.11934045  0.23167919  0.41053666  1
  O  O134  1  0.12100064  0.23761414  0.66458560  1
  O  O135  1  0.12552435  0.25193912  0.92376031  1
  O  O136  1  0.12827859  0.49918431  0.17382450  1
  O  O137  1  0.11855130  0.49583918  0.40775349  1
  O  O138  1  0.12058152  0.49812174  0.65068950  1
  O  O139  1  0.12462024  0.49236935  0.91567033  1
  O  O140  1  0.12701449  0.75287486  0.17133204  1
  O  O141  1  0.11887781  0.75608041  0.40717219  1
  O  O142  1  0.12037818  0.75110021  0.65285442  1
  O  O143  1  0.12293654  0.75839050  0.91347931  1
  O  O144  1  0.38320716  0.00783351  0.16511273  1
  O  O145  1  0.37901635  0.00539307  0.40874642  1
  O  O146  1  0.37352037  0.01286755  0.66621778  1
  O  O147  1  0.37372535  0.00333847  0.92328508  1
  O  O148  1  0.38183463  0.24841701  0.17104110  1
  O  O149  1  0.37763424  0.24100351  0.40790357  1
  O  O150  1  0.37436066  0.23897016  0.66600936  1
  O  O151  1  0.37431821  0.25023399  0.92464832  1
  O  O152  1  0.37582116  0.50471341  0.17723380  1
  O  O153  1  0.37560189  0.49612843  0.40584492  1
  O  O154  1  0.37349999  0.49707224  0.65125252  1
  O  O155  1  0.37384857  0.49303522  0.91376106  1
  O  O156  1  0.37662885  0.74325939  0.17075647  1
  O  O157  1  0.37688742  0.75792263  0.40658071  1
  O  O158  1  0.37362312  0.75112440  0.65309064  1
  O  O159  1  0.37311932  0.75219465  0.91443705  1
  O  O160  1  0.63381054  -0.00098446  0.15288418  1
  O  O161  1  0.63219521  -0.00058762  0.41428823  1
  O  O162  1  0.62473303  0.00977675  0.66466693  1
  O  O163  1  0.62747445  -0.00920291  0.91775528  1
  O  O164  1  0.62904742  0.25841496  0.15706127  1
  O  O165  1  0.63365658  0.24006122  0.40774009  1
  O  O166  1  0.62529966  0.24056783  0.66477547  1
  O  O167  1  0.62458080  0.25820209  0.92069933  1
  O  O168  1  0.62268660  0.50214837  0.17144209  1
  O  O169  1  0.63018700  0.49816926  0.41007992  1
  O  O170  1  0.62778254  0.50027113  0.65402241  1
  O  O171  1  0.62385181  0.49059802  0.91572721  1
  O  O172  1  0.62443426  0.74999251  0.16560533  1
  O  O173  1  0.62989422  0.76254044  0.40975667  1
  O  O174  1  0.62713165  0.74946162  0.65876668  1
  O  O175  1  0.62676136  0.75805627  0.91474879  1
  O  O176  1  0.87109959  -0.00674576  0.16153611  1
  O  O177  1  0.86693103  0.00097121  0.41465970  1
  O  O178  1  0.87202181  0.00967377  0.66712910  1
  O  O179  1  0.87651682  -0.00877217  0.91779313  1
  O  O180  1  0.87274170  0.25472389  0.16036524  1
  O  O181  1  0.86631992  0.24258819  0.40901257  1
  O  O182  1  0.87215511  0.23991253  0.66631035  1
  O  O183  1  0.87381861  0.25721228  0.91748934  1
  O  O184  1  0.87724154  0.50271826  0.17279402  1
  O  O185  1  0.87636755  0.49230132  0.40018174  1
  O  O186  1  0.87536061  0.50557260  0.65617804  1
  O  O187  1  0.87546518  0.49398835  0.91536511  1
  O  O188  1  0.87558518  0.75485725  0.16988718  1
  O  O189  1  0.87525347  0.76210924  0.40718876  1
  O  O190  1  0.87578199  0.74389243  0.65749741  1
  O  O191  1  0.87834441  0.75722736  0.91548993  1
  O  O192  1  -0.00150491  0.12489908  0.16094457  1
  O  O193  1  -0.01709438  0.12191299  0.41022649  1
  O  O194  1  -0.00399060  0.12488193  0.65786806  1
  O  O195  1  0.00230133  0.12581946  0.92117083  1
  O  O196  1  0.00732573  0.38001692  0.16474762  1
  O  O197  1  -0.01100598  0.36191348  0.41023029  1
  O  O198  1  -0.00189291  0.36676598  0.66410722  1
  O  O199  1  -0.00233709  0.37354067  0.91502168  1
  O  O200  1  0.00326300  0.62704882  0.17191005  1
  O  O201  1  -0.00655346  0.62645413  0.41124670  1
  O  O202  1  -0.00559600  0.62438579  0.65687286  1
  O  O203  1  0.00034132  0.62437342  0.92059071  1
  O  O204  1  0.00169057  0.87272376  0.16546458  1
  O  O205  1  -0.00895707  0.88711119  0.40841733  1
  O  O206  1  -0.00156639  0.88286420  0.66624352  1
  O  O207  1  0.00118022  0.87683898  0.91804656  1
  O  O208  1  0.25083147  0.12674837  0.16641800  1
  O  O209  1  0.24809812  0.12337529  0.36984378  1
  O  O210  1  0.24952128  0.12670990  0.65566131  1
  O  O211  1  0.25177922  0.12565518  0.92579467  1
  O  O212  1  0.24719903  0.37736246  0.17389431  1
  O  O213  1  0.24917108  0.36645771  0.40766868  1
  O  O214  1  0.24708461  0.36557262  0.65858531  1
  O  O215  1  0.25014081  0.37160961  0.91864697  1
  O  O216  1  0.25347836  0.62516302  0.17499064  1
  O  O217  1  0.24754625  0.62633805  0.40736729  1
  O  O218  1  0.24833867  0.62456919  0.64834239  1
  O  O219  1  0.24780919  0.62424444  0.91752655  1
  O  O220  1  0.24478353  0.87567653  0.16628138  1
  O  O221  1  0.24991468  0.88351181  0.40698090  1
  O  O222  1  0.24654863  0.88304936  0.66213462  1
  O  O223  1  0.24118319  0.87854603  0.91677494  1
  O  O224  1  0.52237849  0.12816171  0.16866421  1
  O  O225  1  0.51420755  0.12016688  0.40411589  1
  O  O226  1  0.49952395  0.12597431  0.65875565  1
  O  O227  1  0.49604600  0.12689130  0.92315821  1
  O  O228  1  0.50577091  0.37921658  0.17092761  1
  O  O229  1  0.50268431  0.36864992  0.40635931  1
  O  O230  1  0.50129708  0.36786856  0.66134706  1
  O  O231  1  0.50070961  0.37253488  0.91537598  1
  O  O232  1  0.49822365  0.62430257  0.17251068  1
  O  O233  1  0.50351091  0.62908845  0.41107216  1
  O  O234  1  0.49910905  0.62482591  0.64900456  1
  O  O235  1  0.49991325  0.62324072  0.91533265  1
  O  O236  1  0.51348882  0.87807672  0.16480946  1
  O  O237  1  0.50888424  0.88245945  0.40395550  1
  O  O238  1  0.50020532  0.88142796  0.66519238  1
  O  O239  1  0.50421716  0.87619100  0.91379480  1
  O  O240  1  0.74398942  0.12872241  0.16308828  1
  O  O241  1  0.74912598  0.11979290  0.41968721  1
  O  O242  1  0.74799666  0.12490163  0.66084068  1
  O  O243  1  0.74743019  0.12483913  0.92136746  1
  O  O244  1  0.74354053  0.38376629  0.16350864  1
  O  O245  1  0.75856383  0.37036638  0.41375216  1
  O  O246  1  0.75028646  0.36972939  0.66526613  1
  O  O247  1  0.74899410  0.37561082  0.91362541  1
  O  O248  1  0.74712165  0.62658599  0.16809324  1
  O  O249  1  0.75577930  0.62904658  0.41397062  1
  O  O250  1  0.75602284  0.62504277  0.65596200  1
  O  O251  1  0.75060238  0.62474478  0.91691949  1
  O  O252  1  0.74600700  0.87129642  0.16573954  1
  O  O253  1  0.75160188  0.87910062  0.41541182  1
  O  O254  1  0.75062482  0.88003925  0.66749947  1
  O  O255  1  0.75399804  0.87351928  0.91082105  1
  O  O256  1  0.12803200  0.12511871  0.03777911  1
  O  O257  1  0.10534447  0.12409380  0.28640594  1
  O  O258  1  0.13087049  0.12464963  0.54375544  1
  O  O259  1  0.12869383  0.12513502  0.80824518  1
  O  O260  1  0.12997533  0.38149760  0.05574559  1
  O  O261  1  0.11819710  0.36353277  0.29070102  1
  O  O262  1  0.11851850  0.36116698  0.52477844  1
  O  O263  1  0.12690626  0.36769053  0.79801630  1
  O  O264  1  0.12843870  0.62443694  0.05891167  1
  O  O265  1  0.12547987  0.62640180  0.28571428  1
  O  O266  1  0.11551276  0.62578549  0.52104695  1
  O  O267  1  0.11693913  0.62288884  0.78418912  1
  O  O268  1  0.12479069  0.87000883  0.05371670  1
  O  O269  1  0.12249601  0.89074925  0.28776961  1
  O  O270  1  0.12067975  0.88715685  0.52729735  1
  O  O271  1  0.12152291  0.88283299  0.80147241  1
  O  O272  1  0.38097255  0.13057767  0.06468733  1
  O  O273  1  0.39431953  0.12477779  0.26924707  1
  O  O274  1  0.37978629  0.12447841  0.54454367  1
  O  O275  1  0.37369525  0.12650069  0.80256772  1
  O  O276  1  0.37389954  0.37877128  0.06493295  1
  O  O277  1  0.37731604  0.36750972  0.27878735  1
  O  O278  1  0.37500847  0.35787008  0.52955782  1
  O  O279  1  0.37096627  0.36524340  0.79728957  1
  O  O280  1  0.37418598  0.62214121  0.06058675  1
  O  O281  1  0.37797993  0.62818824  0.28919132  1
  O  O282  1  0.37572787  0.62816318  0.51763796  1
  O  O283  1  0.37128376  0.62381812  0.78152752  1
  O  O284  1  0.38109077  0.87385657  0.04866837  1
  O  O285  1  0.37710352  0.88447250  0.27523433  1
  O  O286  1  0.37517343  0.89091732  0.53416401  1
  O  O287  1  0.37099494  0.89034889  0.78759945  1
  O  O288  1  0.62491138  0.12376496  0.04410300  1
  O  O289  1  0.63844849  0.11983316  0.29580536  1
  O  O290  1  0.62511381  0.12486302  0.54747459  1
  O  O291  1  0.62514902  0.12809076  0.79221174  1
  O  O292  1  0.62032465  0.38263999  0.05212650  1
  O  O293  1  0.63832178  0.37359878  0.28714423  1
  O  O294  1  0.63123462  0.36696923  0.52796762  1
  O  O295  1  0.62199055  0.36970522  0.80034051  1
  O  O296  1  0.62146345  0.62205244  0.05313373  1
  O  O297  1  0.62588872  0.63140786  0.28989556  1
  O  O298  1  0.63301734  0.63101722  0.52288672  1
  O  O299  1  0.62958954  0.62389584  0.78463612  1
  O  O300  1  0.62657882  0.86443633  0.04823246  1
  O  O301  1  0.63498042  0.88189528  0.29774280  1
  O  O302  1  0.62702437  0.88064932  0.53305971  1
  O  O303  1  0.62032321  0.87838632  0.79837621  1
  O  O304  1  0.87542035  0.12615505  0.03281704  1
  O  O305  1  0.86760283  0.12142915  0.29570059  1
  O  O306  1  0.87460629  0.12395064  0.54788374  1
  O  O307  1  0.87136744  0.12529673  0.79395267  1
  O  O308  1  0.87472667  0.38475875  0.03665057  1
  O  O309  1  0.87190795  0.36809853  0.29473559  1
  O  O310  1  0.87491920  0.36333305  0.53337902  1
  O  O311  1  0.87779551  0.37309306  0.80167690  1
  O  O312  1  0.87685393  0.62581727  0.06068263  1
  O  O313  1  0.87349965  0.63552625  0.27832862  1
  O  O314  1  0.87600369  0.62633859  0.54132327  1
  O  O315  1  0.87991019  0.62386761  0.78511699  1
  O  O316  1  0.87451191  0.86877369  0.04927705  1
  O  O317  1  0.86785177  0.88231398  0.29734083  1
  O  O318  1  0.87616343  0.88521731  0.53534138  1
  O  O319  1  0.87924789  0.87753183  0.79933148  1
