# generated using pymatgen
data_VFe(PbO3)2
_symmetry_space_group_name_H-M   'P 1'
_cell_length_a   15.38410714
_cell_length_b   15.37789000
_cell_length_c   18.44307500
_cell_angle_alpha   89.97340633
_cell_angle_beta   89.99644017
_cell_angle_gamma   90.01139234
_symmetry_Int_Tables_number   1
_chemical_formula_structural   VFe(PbO3)2
_chemical_formula_sum   'V32 Fe32 Pb64 O192'
_cell_volume   4363.17188324
_cell_formula_units_Z   32
loop_
 _symmetry_equiv_pos_site_id
 _symmetry_equiv_pos_as_xyz
  1  'x, y, z'
loop_
 _atom_site_type_symbol
 _atom_site_label
 _atom_site_symmetry_multiplicity
 _atom_site_fract_x
 _atom_site_fract_y
 _atom_site_fract_z
 _atom_site_occupancy
  V  V0  1  0.87641224  0.62621347  0.38662704  1
  V  V1  1  0.12727308  0.62174336  0.38367007  1
  V  V2  1  0.12583572  0.12348729  0.14015828  1
  V  V3  1  0.87539302  0.37704603  0.39254198  1
  V  V4  1  0.62504410  0.37785804  0.63642361  1
  V  V5  1  0.12410692  0.37370553  0.13896017  1
  V  V6  1  0.37457670  0.87201432  0.63329054  1
  V  V7  1  0.62517208  0.37524312  0.14002475  1
  V  V8  1  0.62622596  0.62713264  0.14265375  1
  V  V9  1  0.62515160  0.61950120  0.38836019  1
  V  V10  1  0.37492680  0.37469071  0.13907986  1
  V  V11  1  0.62373988  0.12237226  0.89440947  1
  V  V12  1  0.62509177  0.87698780  0.14390340  1
  V  V13  1  0.87660223  0.12382767  0.88965529  1
  V  V14  1  0.87523553  0.87457741  0.14055203  1
  V  V15  1  0.12588414  0.12536685  0.88633403  1
  V  V16  1  0.12482295  0.37400890  0.88845241  1
  V  V17  1  0.37592558  0.62518161  0.89268221  1
  V  V18  1  0.12380520  0.12912138  0.39259775  1
  V  V19  1  0.37475576  0.12429310  0.88996034  1
  V  V20  1  0.37621730  0.37492431  0.39314312  1
  V  V21  1  0.37603468  0.87440124  0.89413367  1
  V  V22  1  0.62591154  0.87546909  0.89393192  1
  V  V23  1  0.62363396  0.62612885  0.89083476  1
  V  V24  1  0.36832598  0.62251148  0.15286729  1
  V  V25  1  0.87577850  0.87324656  0.63531587  1
  V  V26  1  0.37514650  0.12279817  0.39081861  1
  V  V27  1  0.62712098  0.13013219  0.38888259  1
  V  V28  1  0.37521155  0.62804828  0.63649817  1
  V  V29  1  0.62419776  0.37243634  0.89177002  1
  V  V30  1  0.87448474  0.62672319  0.63833588  1
  V  V31  1  0.87571543  0.62668210  0.89270287  1
  Fe  Fe32  1  0.87281581  0.62322715  0.13560410  1
  Fe  Fe33  1  0.37625620  0.87618327  0.14649730  1
  Fe  Fe34  1  0.87318155  0.37403360  0.89090328  1
  Fe  Fe35  1  0.12458786  0.62702739  0.63524451  1
  Fe  Fe36  1  0.37571107  0.87185561  0.37688349  1
  Fe  Fe37  1  0.12332932  0.87565955  0.13868798  1
  Fe  Fe38  1  0.87414486  0.12656148  0.14173892  1
  Fe  Fe39  1  0.12642854  0.62529171  0.89590834  1
  Fe  Fe40  1  0.37584319  0.37560664  0.88458009  1
  Fe  Fe41  1  0.87147692  0.87661754  0.88675065  1
  Fe  Fe42  1  0.87549627  0.87517459  0.38356401  1
  Fe  Fe43  1  0.87476577  0.37537472  0.13012621  1
  Fe  Fe44  1  0.62566468  0.37391573  0.38545144  1
  Fe  Fe45  1  0.12547268  0.37441156  0.39755948  1
  Fe  Fe46  1  0.12554573  0.12171205  0.62875639  1
  Fe  Fe47  1  0.37469144  0.12964001  0.13867022  1
  Fe  Fe48  1  0.12257379  0.62273277  0.13057899  1
  Fe  Fe49  1  0.12622448  0.87120442  0.63252330  1
  Fe  Fe50  1  0.12528577  0.37751500  0.62703696  1
  Fe  Fe51  1  0.62462217  0.12624391  0.13395796  1
  Fe  Fe52  1  0.12429115  0.87534044  0.38037534  1
  Fe  Fe53  1  0.37547337  0.37882592  0.63704128  1
  Fe  Fe54  1  0.87404832  0.12435299  0.62777870  1
  Fe  Fe55  1  0.12371005  0.87765746  0.89185718  1
  Fe  Fe56  1  0.62694824  0.62516997  0.63443088  1
  Fe  Fe57  1  0.62463277  0.87109135  0.62914049  1
  Fe  Fe58  1  0.87408156  0.37704786  0.63484734  1
  Fe  Fe59  1  0.62641140  0.87673910  0.38531634  1
  Fe  Fe60  1  0.62490187  0.12306949  0.63129888  1
  Fe  Fe61  1  0.87597689  0.12645454  0.38907698  1
  Fe  Fe62  1  0.37647648  0.12272272  0.63082129  1
  Fe  Fe63  1  0.37495485  0.62289340  0.37516878  1
  Pb  Pb64  1  0.00239045  -0.00438609  0.00112803  1
  Pb  Pb65  1  -0.01255072  0.00099949  0.25576620  1
  Pb  Pb66  1  0.00398004  -0.00286085  0.49436685  1
  Pb  Pb67  1  0.00132327  -0.00510735  0.74280071  1
  Pb  Pb68  1  -0.00979811  0.24857601  0.00197010  1
  Pb  Pb69  1  -0.00505275  0.24975235  0.25367158  1
  Pb  Pb70  1  -0.00808496  0.25097386  0.50609240  1
  Pb  Pb71  1  -0.00047981  0.25035663  0.73643888  1
  Pb  Pb72  1  -0.00738097  0.50091257  0.00241669  1
  Pb  Pb73  1  -0.00157772  0.50021019  0.24577726  1
  Pb  Pb74  1  0.00730860  0.50142570  0.50381912  1
  Pb  Pb75  1  0.00187987  0.49669202  0.74700415  1
  Pb  Pb76  1  0.00625605  0.75295403  0.00197431  1
  Pb  Pb77  1  0.00391897  0.75245076  0.24551104  1
  Pb  Pb78  1  0.01155880  0.75005634  0.49903936  1
  Pb  Pb79  1  0.00983016  0.75142369  0.75661592  1
  Pb  Pb80  1  0.25376075  -0.00650757  0.00671292  1
  Pb  Pb81  1  0.24982473  -0.00589277  0.24936662  1
  Pb  Pb82  1  0.24329938  -0.00267026  0.49753658  1
  Pb  Pb83  1  0.24533877  -0.00307530  0.74326308  1
  Pb  Pb84  1  0.25404510  0.24403646  -0.00236290  1
  Pb  Pb85  1  0.24139043  0.25628119  0.25712714  1
  Pb  Pb86  1  0.25341025  0.24291412  0.50697265  1
  Pb  Pb87  1  0.25058685  0.25177562  0.73618261  1
  Pb  Pb88  1  0.24473879  0.50217224  0.00114812  1
  Pb  Pb89  1  0.24209596  0.49121982  0.25585876  1
  Pb  Pb90  1  0.25212034  0.49242374  0.50450475  1
  Pb  Pb91  1  0.24411897  0.50189001  0.74617586  1
  Pb  Pb92  1  0.24034930  0.75698415  0.00819781  1
  Pb  Pb93  1  0.24273923  0.75913181  0.24943088  1
  Pb  Pb94  1  0.24816603  0.75298353  0.48934546  1
  Pb  Pb95  1  0.23669658  0.74950679  0.75687409  1
  Pb  Pb96  1  0.48987124  -0.00024091  0.00966164  1
  Pb  Pb97  1  0.49646711  0.00050162  0.24945332  1
  Pb  Pb98  1  0.50408468  0.00163650  0.49690066  1
  Pb  Pb99  1  0.50324225  -0.00022796  0.74221982  1
  Pb  Pb100  1  0.49780825  0.24085541  0.00283175  1
  Pb  Pb101  1  0.50482715  0.25231503  0.25065421  1
  Pb  Pb102  1  0.49803884  0.24276551  0.50506140  1
  Pb  Pb103  1  0.49464763  0.25067967  0.74507830  1
  Pb  Pb104  1  0.50120451  0.49942740  0.00218148  1
  Pb  Pb105  1  0.50153074  0.49802143  0.25453385  1
  Pb  Pb106  1  0.49478237  0.49749131  0.50102585  1
  Pb  Pb107  1  0.49562737  0.49669322  0.75054605  1
  Pb  Pb108  1  0.49247515  0.75684876  0.00876451  1
  Pb  Pb109  1  0.49564591  0.74890336  0.25681365  1
  Pb  Pb110  1  0.50463293  0.75271423  0.49084477  1
  Pb  Pb111  1  0.50297232  0.74945719  0.74524504  1
  Pb  Pb112  1  0.74883300  0.00924966  0.00563920  1
  Pb  Pb113  1  0.75021852  -0.00446623  0.25530978  1
  Pb  Pb114  1  0.75025518  -0.00065879  0.49384051  1
  Pb  Pb115  1  0.75107392  -0.00260683  0.74233979  1
  Pb  Pb116  1  0.75204492  0.24219076  0.00644652  1
  Pb  Pb117  1  0.75605298  0.24364173  0.24930938  1
  Pb  Pb118  1  0.75824157  0.25121810  0.50442041  1
  Pb  Pb119  1  0.75509048  0.25010124  0.74494364  1
  Pb  Pb120  1  0.75579939  0.50108495  0.00345138  1
  Pb  Pb121  1  0.74895582  0.49325813  0.25024627  1
  Pb  Pb122  1  0.75155963  0.50058992  0.50159299  1
  Pb  Pb123  1  0.75606959  0.49575037  0.75281463  1
  Pb  Pb124  1  0.75267090  0.74510145  0.00340199  1
  Pb  Pb125  1  0.75005467  0.75975511  0.25663092  1
  Pb  Pb126  1  0.74147935  0.75090793  0.49869922  1
  Pb  Pb127  1  0.75491527  0.75536994  0.74952011  1
  O  O128  1  0.12431853  0.00812625  0.16049332  1
  O  O129  1  0.12953241  0.00659157  0.40831275  1
  O  O130  1  0.12576906  -0.00536729  0.66284359  1
  O  O131  1  0.12479066  0.00758577  0.91744749  1
  O  O132  1  0.12668682  0.25448375  0.16659777  1
  O  O133  1  0.13027475  0.24518810  0.41707337  1
  O  O134  1  0.12603471  0.25021839  0.65369826  1
  O  O135  1  0.12475424  0.25025893  0.91417086  1
  O  O136  1  0.12797787  0.49274077  0.16253841  1
  O  O137  1  0.12089074  0.50758583  0.41215577  1
  O  O138  1  0.12421683  0.50358298  0.66471686  1
  O  O139  1  0.12683523  0.49240093  0.91383360  1
  O  O140  1  0.12286668  0.74740948  0.15956058  1
  O  O141  1  0.12020155  0.74049448  0.40620916  1
  O  O142  1  0.12425997  0.74968047  0.66919827  1
  O  O143  1  0.12624621  0.75119060  0.92082022  1
  O  O144  1  0.37516164  0.00471488  0.16752688  1
  O  O145  1  0.37628201  0.00629942  0.40594470  1
  O  O146  1  0.37678248  -0.01060521  0.65675647  1
  O  O147  1  0.37749584  -0.00002765  0.92021935  1
  O  O148  1  0.37486632  0.25756409  0.16766694  1
  O  O149  1  0.37566376  0.25281719  0.41531928  1
  O  O150  1  0.37810401  0.25078799  0.65956197  1
  O  O151  1  0.37695018  0.24759567  0.91320091  1
  O  O152  1  0.37631120  0.49646604  0.17088246  1
  O  O153  1  0.37618754  0.49796690  0.41164509  1
  O  O154  1  0.37735464  0.51058656  0.66389194  1
  O  O155  1  0.37760246  0.50538993  0.91526033  1
  O  O156  1  0.38071260  0.74071037  0.16407936  1
  O  O157  1  0.37667546  0.74496433  0.40424843  1
  O  O158  1  0.37672335  0.74889434  0.66324211  1
  O  O159  1  0.37767699  0.74736052  0.92026660  1
  O  O160  1  0.62575626  -0.00577790  0.16071610  1
  O  O161  1  0.62138817  0.00947426  0.40891000  1
  O  O162  1  0.62398335  -0.00566866  0.66206342  1
  O  O163  1  0.62422686  -0.00208420  0.91915574  1
  O  O164  1  0.62194187  0.25815373  0.16066864  1
  O  O165  1  0.62047696  0.24674889  0.41322904  1
  O  O166  1  0.62402794  0.25897488  0.66009762  1
  O  O167  1  0.62288296  0.25369182  0.91355954  1
  O  O168  1  0.62507774  0.49904471  0.16455565  1
  O  O169  1  0.62869839  0.50262755  0.41456184  1
  O  O170  1  0.62587918  0.49702907  0.66445275  1
  O  O171  1  0.62221851  0.50115579  0.91723142  1
  O  O172  1  0.62825115  0.74743830  0.16568504  1
  O  O173  1  0.62984408  0.74002716  0.40757560  1
  O  O174  1  0.62588165  0.74964532  0.66729608  1
  O  O175  1  0.62308670  0.74969610  0.91985084  1
  O  O176  1  0.87310192  -0.00419310  0.16460019  1
  O  O177  1  0.87534189  0.00174474  0.41187857  1
  O  O178  1  0.87382851  -0.00808631  0.65574051  1
  O  O179  1  0.87136991  0.00773606  0.91588169  1
  O  O180  1  0.87671071  0.25460296  0.16727721  1
  O  O181  1  0.87481538  0.25693308  0.41313678  1
  O  O182  1  0.87231167  0.25028310  0.66191459  1
  O  O183  1  0.87335288  0.24367997  0.91399055  1
  O  O184  1  0.87244808  0.49643195  0.16490732  1
  O  O185  1  0.87475681  0.50023245  0.41540534  1
  O  O186  1  0.87266033  0.50687416  0.66282778  1
  O  O187  1  0.87106422  0.50490036  0.91530560  1
  O  O188  1  0.87101626  0.75565257  0.16124249  1
  O  O189  1  0.87336228  0.74058012  0.40713083  1
  O  O190  1  0.87338893  0.74962334  0.66296184  1
  O  O191  1  0.87008135  0.74491860  0.91466854  1
  O  O192  1  0.00856891  0.13017254  0.16715054  1
  O  O193  1  0.00724910  0.12800874  0.41055583  1
  O  O194  1  -0.00149077  0.12151815  0.65919316  1
  O  O195  1  -0.00349719  0.12582747  0.91106188  1
  O  O196  1  0.00708134  0.37495956  0.15825198  1
  O  O197  1  -0.00640552  0.37625577  0.41446535  1
  O  O198  1  0.00026902  0.37847780  0.65990232  1
  O  O199  1  0.00646401  0.37358773  0.91320259  1
  O  O200  1  -0.00123540  0.62080728  0.16175302  1
  O  O201  1  -0.00497613  0.62161729  0.41003788  1
  O  O202  1  -0.00954781  0.62749927  0.66539961  1
  O  O203  1  -0.00754164  0.62415288  0.91252492  1
  O  O204  1  -0.00741413  0.87689243  0.15991546  1
  O  O205  1  0.00097994  0.87494602  0.40997632  1
  O  O206  1  -0.00678147  0.87086508  0.65943682  1
  O  O207  1  -0.00448411  0.87725273  0.91816187  1
  O  O208  1  0.24193304  0.13058820  0.16723387  1
  O  O209  1  0.25522429  0.12826482  0.41290420  1
  O  O210  1  0.25236264  0.12076849  0.66257314  1
  O  O211  1  0.25011311  0.12557411  0.91443239  1
  O  O212  1  0.24843138  0.37543722  0.16677451  1
  O  O213  1  0.25813233  0.37692721  0.41725077  1
  O  O214  1  0.24949293  0.37991052  0.66048302  1
  O  O215  1  0.24549949  0.37286758  0.91257773  1
  O  O216  1  0.25200454  0.62105326  0.16219878  1
  O  O217  1  0.24383296  0.62366900  0.39819952  1
  O  O218  1  0.25793391  0.62823936  0.66131119  1
  O  O219  1  0.26024319  0.62554421  0.91799884  1
  O  O220  1  0.24921983  0.87442263  0.16272793  1
  O  O221  1  0.25034142  0.87283830  0.40617609  1
  O  O222  1  0.25857799  0.87028413  0.66004937  1
  O  O223  1  0.25559188  0.87694316  0.91924836  1
  O  O224  1  0.50186060  0.12768932  0.16671297  1
  O  O225  1  0.49659568  0.12895179  0.41206144  1
  O  O226  1  0.50056321  0.12262471  0.66600107  1
  O  O227  1  0.49980167  0.12471676  0.91796107  1
  O  O228  1  0.50146238  0.37847265  0.16455205  1
  O  O229  1  0.49594067  0.37703064  0.41523006  1
  O  O230  1  0.50665776  0.37973677  0.66357862  1
  O  O231  1  0.50540702  0.37675447  0.91805899  1
  O  O232  1  0.51128685  0.62256828  0.17029639  1
  O  O233  1  0.50750636  0.62114611  0.40494389  1
  O  O234  1  0.49505428  0.62806534  0.66328373  1
  O  O235  1  0.49723754  0.62601984  0.91974633  1
  O  O236  1  0.50859586  0.87082940  0.16575668  1
  O  O237  1  0.50031883  0.87378201  0.40683636  1
  O  O238  1  0.49317592  0.86970552  0.66000931  1
  O  O239  1  0.50150986  0.87433237  0.92316345  1
  O  O240  1  0.74678928  0.12684506  0.16728797  1
  O  O241  1  0.74349745  0.12842928  0.40578930  1
  O  O242  1  0.74964913  0.12333555  0.66168124  1
  O  O243  1  0.75083350  0.12634577  0.91631157  1
  O  O244  1  0.74316505  0.37546284  0.15803281  1
  O  O245  1  0.75448556  0.37662163  0.41440454  1
  O  O246  1  0.74335863  0.37814043  0.66366504  1
  O  O247  1  0.74044677  0.37634977  0.91612427  1
  O  O248  1  0.74276565  0.62251414  0.16712957  1
  O  O249  1  0.75429883  0.61990196  0.41169651  1
  O  O250  1  0.75729520  0.62695147  0.66606299  1
  O  O251  1  0.74785709  0.62466103  0.91731106  1
  O  O252  1  0.74898404  0.87469936  0.16540999  1
  O  O253  1  0.75082981  0.87476988  0.41420741  1
  O  O254  1  0.75584331  0.87124714  0.65961407  1
  O  O255  1  0.74436946  0.87495320  0.91971400  1
  O  O256  1  0.12622562  0.12893272  0.04861714  1
  O  O257  1  0.12838250  0.13193168  0.30067977  1
  O  O258  1  0.13294465  0.11633361  0.52804455  1
  O  O259  1  0.12637651  0.12296100  0.79537119  1
  O  O260  1  0.12882469  0.37212596  0.04783229  1
  O  O261  1  0.13289399  0.37513364  0.29573449  1
  O  O262  1  0.12663708  0.38672497  0.52429723  1
  O  O263  1  0.12452141  0.37489425  0.79727826  1
  O  O264  1  0.12794162  0.61919466  0.02881727  1
  O  O265  1  0.11829319  0.61949888  0.29180473  1
  O  O266  1  0.11872449  0.62867609  0.53473474  1
  O  O267  1  0.12888554  0.63224333  0.79454481  1
  O  O268  1  0.12418297  0.87843156  0.03625917  1
  O  O269  1  0.12437049  0.86991958  0.27826676  1
  O  O270  1  0.12762295  0.86795000  0.53132728  1
  O  O271  1  0.12634930  0.86967383  0.79089074  1
  O  O272  1  0.37536700  0.12955719  0.03780990  1
  O  O273  1  0.37527355  0.12981273  0.29947937  1
  O  O274  1  0.37911482  0.12729418  0.53013025  1
  O  O275  1  0.37675749  0.12002975  0.79894461  1
  O  O276  1  0.37406653  0.37637499  0.04744456  1
  O  O277  1  0.37439550  0.37339421  0.30130175  1
  O  O278  1  0.37692714  0.38871007  0.53641181  1
  O  O279  1  0.38399771  0.37934690  0.78521274  1
  O  O280  1  0.38210409  0.61546736  0.06179910  1
  O  O281  1  0.38336466  0.62126379  0.27369222  1
  O  O282  1  0.37665123  0.62774798  0.54498296  1
  O  O283  1  0.37670432  0.62803417  0.80182503  1
  O  O284  1  0.38214868  0.87923057  0.04386007  1
  O  O285  1  0.37644354  0.87332463  0.27437697  1
  O  O286  1  0.37487016  0.86778366  0.54188797  1
  O  O287  1  0.37739715  0.87435334  0.80321197  1
  O  O288  1  0.62979008  0.12962932  0.03253983  1
  O  O289  1  0.62088119  0.13127576  0.29691904  1
  O  O290  1  0.61670440  0.12365804  0.53114204  1
  O  O291  1  0.62398366  0.12238053  0.80326179  1
  O  O292  1  0.62014229  0.37828331  0.04862167  1
  O  O293  1  0.62369405  0.37640614  0.28579993  1
  O  O294  1  0.62467398  0.38033400  0.54472809  1
  O  O295  1  0.62348885  0.37550223  0.80058857  1
  O  O296  1  0.62435393  0.62641343  0.05099881  1
  O  O297  1  0.63076380  0.61704138  0.29680025  1
  O  O298  1  0.63033359  0.62799750  0.53474537  1
  O  O299  1  0.62387224  0.62624922  0.79983259  1
  O  O300  1  0.62631754  0.87146738  0.05256622  1
  O  O301  1  0.63668635  0.87534655  0.28371052  1
  O  O302  1  0.62397605  0.86771273  0.52832111  1
  O  O303  1  0.62418393  0.87487419  0.80273209  1
  O  O304  1  0.87218610  0.13105513  0.04069867  1
  O  O305  1  0.88225973  0.13027163  0.28638686  1
  O  O306  1  0.87375698  0.13504990  0.52619524  1
  O  O307  1  0.87344369  0.12275486  0.79864984  1
  O  O308  1  0.87817188  0.37508942  0.02846009  1
  O  O309  1  0.87444063  0.37873357  0.30050152  1
  O  O310  1  0.86982185  0.37005611  0.53448859  1
  O  O311  1  0.86692208  0.37838656  0.79086287  1
  O  O312  1  0.86860936  0.62126072  0.03518713  1
  O  O313  1  0.87577769  0.62077301  0.29516042  1
  O  O314  1  0.87445003  0.62743670  0.54686101  1
  O  O315  1  0.87171511  0.62510124  0.80134820  1
  O  O316  1  0.87079500  0.87732374  0.04894643  1
  O  O317  1  0.87098197  0.87843450  0.28209182  1
  O  O318  1  0.87519390  0.87024119  0.54402376  1
  O  O319  1  0.86865024  0.87637319  0.78743263  1
