# generated using pymatgen
data_VFe(PbO3)2
_symmetry_space_group_name_H-M   'P 1'
_cell_length_a   15.38709414
_cell_length_b   15.37976825
_cell_length_c   18.46416069
_cell_angle_alpha   89.96402810
_cell_angle_beta   89.99219634
_cell_angle_gamma   89.99379914
_symmetry_Int_Tables_number   1
_chemical_formula_structural   VFe(PbO3)2
_chemical_formula_sum   'V32 Fe32 Pb64 O192'
_cell_volume   4369.54162939
_cell_formula_units_Z   32
loop_
 _symmetry_equiv_pos_site_id
 _symmetry_equiv_pos_as_xyz
  1  'x, y, z'
loop_
 _atom_site_type_symbol
 _atom_site_label
 _atom_site_symmetry_multiplicity
 _atom_site_fract_x
 _atom_site_fract_y
 _atom_site_fract_z
 _atom_site_occupancy
  V  V0  1  0.87324574  0.62512946  0.88688299  1
  V  V1  1  0.12552202  0.87616081  0.64225901  1
  V  V2  1  0.37575268  0.36819134  0.39280369  1
  V  V3  1  0.87412656  0.37500236  0.14449703  1
  V  V4  1  0.62462994  0.37626005  0.63780979  1
  V  V5  1  0.12176711  0.12356372  0.13776178  1
  V  V6  1  0.12500764  0.12270314  0.39567588  1
  V  V7  1  0.87646037  0.37860430  0.63813763  1
  V  V8  1  0.37482359  0.62493953  0.13994892  1
  V  V9  1  0.87588174  0.12377362  0.13858114  1
  V  V10  1  0.37527385  0.37763189  0.88545248  1
  V  V11  1  0.62652964  0.12288767  0.13743131  1
  V  V12  1  0.87393820  0.37567785  0.88509494  1
  V  V13  1  0.37567406  0.12952526  0.64144878  1
  V  V14  1  0.62650749  0.87527688  0.13993516  1
  V  V15  1  0.12339475  0.87570838  0.13681640  1
  V  V16  1  0.87463557  0.12557404  0.39731891  1
  V  V17  1  0.37657180  0.87298721  0.88598891  1
  V  V18  1  0.62343722  0.87738572  0.39185968  1
  V  V19  1  0.13117687  0.37556548  0.63805293  1
  V  V20  1  0.62492655  0.12463524  0.39562675  1
  V  V21  1  0.62719665  0.87357312  0.88423608  1
  V  V22  1  0.87618341  0.87722192  0.39784714  1
  V  V23  1  0.62296418  0.87605254  0.63750158  1
  V  V24  1  0.87578475  0.87526704  0.13976759  1
  V  V25  1  0.12425073  0.62545012  0.14236714  1
  V  V26  1  0.37569998  0.87481401  0.64026575  1
  V  V27  1  0.12522405  0.37350885  0.14427816  1
  V  V28  1  0.37605828  0.62769917  0.38968052  1
  V  V29  1  0.87477125  0.62392391  0.63518399  1
  V  V30  1  0.62717470  0.37372031  0.38863788  1
  V  V31  1  0.12541080  0.87625001  0.39419695  1
  Fe  Fe32  1  0.87484520  0.12859864  0.64566049  1
  Fe  Fe33  1  0.12479833  0.87212047  0.87767200  1
  Fe  Fe34  1  0.62585789  0.62507089  0.13505558  1
  Fe  Fe35  1  0.37411008  0.37513858  0.13465538  1
  Fe  Fe36  1  0.62515587  0.37246067  0.13306380  1
  Fe  Fe37  1  0.37725567  0.37536384  0.63241189  1
  Fe  Fe38  1  0.62615953  0.37626816  0.88781227  1
  Fe  Fe39  1  0.62433547  0.62593907  0.39317039  1
  Fe  Fe40  1  0.87595729  0.62720908  0.14428770  1
  Fe  Fe41  1  0.87314887  0.87121734  0.87094796  1
  Fe  Fe42  1  0.37526857  0.62448922  0.64099079  1
  Fe  Fe43  1  0.12652340  0.12585152  0.64537509  1
  Fe  Fe44  1  0.37576456  0.12590748  0.88724078  1
  Fe  Fe45  1  0.37425206  0.87720942  0.38719903  1
  Fe  Fe46  1  0.62658640  0.62575837  0.62923036  1
  Fe  Fe47  1  0.37297576  0.87303123  0.13866317  1
  Fe  Fe48  1  0.12397550  0.37813251  0.88160355  1
  Fe  Fe49  1  0.87616085  0.37146451  0.38602401  1
  Fe  Fe50  1  0.87514658  0.62446229  0.38228964  1
  Fe  Fe51  1  0.12531459  0.37233963  0.38393770  1
  Fe  Fe52  1  0.37482123  0.12131419  0.38747151  1
  Fe  Fe53  1  0.62363455  0.62694139  0.88987770  1
  Fe  Fe54  1  0.37192947  0.12295643  0.13208938  1
  Fe  Fe55  1  0.87311605  0.12613297  0.87344735  1
  Fe  Fe56  1  0.87378531  0.87242772  0.64340697  1
  Fe  Fe57  1  0.62320065  0.12485018  0.63967212  1
  Fe  Fe58  1  0.12703456  0.62391977  0.88278063  1
  Fe  Fe59  1  0.62245024  0.12496795  0.88040190  1
  Fe  Fe60  1  0.12632732  0.12640718  0.87690522  1
  Fe  Fe61  1  0.12609825  0.62555040  0.39002633  1
  Fe  Fe62  1  0.12349723  0.62440223  0.63248466  1
  Fe  Fe63  1  0.37674234  0.62396572  0.88016456  1
  Pb  Pb64  1  -0.00112153  -0.00220317  -0.02047625  1
  Pb  Pb65  1  0.00172843  -0.00225390  0.25086688  1
  Pb  Pb66  1  -0.00853288  0.00127265  0.51595186  1
  Pb  Pb67  1  -0.00520073  0.00165077  0.74753291  1
  Pb  Pb68  1  0.00313763  0.24618988  -0.01057941  1
  Pb  Pb69  1  -0.00075872  0.25594313  0.25736542  1
  Pb  Pb70  1  0.00024307  0.24241312  0.50663077  1
  Pb  Pb71  1  0.00417161  0.24919453  0.75018598  1
  Pb  Pb72  1  -0.00328915  0.50485696  -0.00157933  1
  Pb  Pb73  1  0.00036272  0.49477039  0.25632908  1
  Pb  Pb74  1  0.00503218  0.49879384  0.48945840  1
  Pb  Pb75  1  0.00885370  0.49875747  0.75010193  1
  Pb  Pb76  1  -0.00211547  0.75133865  -0.00779206  1
  Pb  Pb77  1  0.00149210  0.74052245  0.25537434  1
  Pb  Pb78  1  0.00246757  0.74527163  0.50159321  1
  Pb  Pb79  1  0.00858661  0.75050562  0.75081421  1
  Pb  Pb80  1  0.25281960  0.00224994  -0.00600898  1
  Pb  Pb81  1  0.26097769  -0.00139367  0.25267750  1
  Pb  Pb82  1  0.24647350  0.00235731  0.50595085  1
  Pb  Pb83  1  0.25239223  0.00509274  0.75517500  1
  Pb  Pb84  1  0.25482397  0.24923515  -0.00516710  1
  Pb  Pb85  1  0.25076586  0.24724497  0.24785689  1
  Pb  Pb86  1  0.24380986  0.24480918  0.50531174  1
  Pb  Pb87  1  0.25162691  0.24400766  0.75523062  1
  Pb  Pb88  1  0.25270637  0.49729383  -0.00529406  1
  Pb  Pb89  1  0.24156702  0.50001043  0.25456642  1
  Pb  Pb90  1  0.25470752  0.49938161  0.49988631  1
  Pb  Pb91  1  0.25256589  0.50825936  0.74583488  1
  Pb  Pb92  1  0.25051002  0.75069364  -0.00707682  1
  Pb  Pb93  1  0.24474637  0.74750202  0.25254035  1
  Pb  Pb94  1  0.25361943  0.73611449  0.50849168  1
  Pb  Pb95  1  0.24410521  0.74681056  0.74963763  1
  Pb  Pb96  1  0.49155410  0.00142506  -0.00013447  1
  Pb  Pb97  1  0.48876264  0.00057568  0.25292442  1
  Pb  Pb98  1  0.50126045  0.00290965  0.50167304  1
  Pb  Pb99  1  0.49740498  0.00808761  0.75327095  1
  Pb  Pb100  1  0.49956348  0.25491789  -0.00343711  1
  Pb  Pb101  1  0.49470415  0.24701779  0.24391716  1
  Pb  Pb102  1  0.50364652  0.24874138  0.50356007  1
  Pb  Pb103  1  0.51018814  0.25264351  0.75494484  1
  Pb  Pb104  1  0.50559455  0.49934754  -0.00266271  1
  Pb  Pb105  1  0.50729637  0.49889448  0.24630009  1
  Pb  Pb106  1  0.49002142  0.49788307  0.50355482  1
  Pb  Pb107  1  0.49903356  0.50598730  0.74721762  1
  Pb  Pb108  1  0.49884544  0.75122993  -0.00123957  1
  Pb  Pb109  1  0.50417245  0.74613099  0.25187467  1
  Pb  Pb110  1  0.49698181  0.73788187  0.50621783  1
  Pb  Pb111  1  0.50331597  0.73785900  0.75004539  1
  Pb  Pb112  1  0.75374039  0.00076028  -0.01478383  1
  Pb  Pb113  1  0.74959306  -0.00155960  0.25134988  1
  Pb  Pb114  1  0.75768884  -0.00149976  0.51316661  1
  Pb  Pb115  1  0.75614132  0.00411535  0.74606892  1
  Pb  Pb116  1  0.74398319  0.25031281  -0.00595713  1
  Pb  Pb117  1  0.75549590  0.25243955  0.25195034  1
  Pb  Pb118  1  0.75143248  0.23541658  0.51160811  1
  Pb  Pb119  1  0.74427018  0.24901031  0.75059062  1
  Pb  Pb120  1  0.74446161  0.50402681  0.00327949  1
  Pb  Pb121  1  0.74762752  0.50725885  0.25097567  1
  Pb  Pb122  1  0.75053454  0.50496142  0.49342112  1
  Pb  Pb123  1  0.73799109  0.49823506  0.75092852  1
  Pb  Pb124  1  0.75410945  0.73735939  0.00579634  1
  Pb  Pb125  1  0.74926979  0.73874498  0.25668585  1
  Pb  Pb126  1  0.75078138  0.75129897  0.49966009  1
  Pb  Pb127  1  0.74520044  0.74421556  0.74749870  1
  O  O128  1  0.11902309  0.00358773  0.16233753  1
  O  O129  1  0.12231902  0.00224641  0.42254662  1
  O  O130  1  0.12934326  -0.00629802  0.66421802  1
  O  O131  1  0.12518628  -0.00175955  0.90385137  1
  O  O132  1  0.12212310  0.24362195  0.16562494  1
  O  O133  1  0.12655091  0.24221981  0.41613313  1
  O  O134  1  0.12411500  0.26010463  0.66381910  1
  O  O135  1  0.12361594  0.25355438  0.91154618  1
  O  O136  1  0.12422861  0.49964967  0.16891391  1
  O  O137  1  0.12927637  0.49812994  0.41024255  1
  O  O138  1  0.12026140  0.49425863  0.65841834  1
  O  O139  1  0.12125443  0.50065256  0.91710709  1
  O  O140  1  0.12364155  0.75131211  0.16697493  1
  O  O141  1  0.12371320  0.76000687  0.41421159  1
  O  O142  1  0.12824803  0.75393400  0.66072661  1
  O  O143  1  0.12465844  0.74838460  0.91517462  1
  O  O144  1  0.37468141  -0.00018811  0.16579059  1
  O  O145  1  0.37498099  -0.00055246  0.42175584  1
  O  O146  1  0.37565483  -0.00126014  0.66514905  1
  O  O147  1  0.37611271  -0.00812998  0.91155587  1
  O  O148  1  0.37262752  0.24649170  0.16437615  1
  O  O149  1  0.37678596  0.25150050  0.41184524  1
  O  O150  1  0.37448186  0.24656376  0.66009574  1
  O  O151  1  0.37360429  0.25750571  0.90918225  1
  O  O152  1  0.37345946  0.50821900  0.16600066  1
  O  O153  1  0.37641715  0.50262747  0.41302701  1
  O  O154  1  0.37753581  0.49691932  0.66437167  1
  O  O155  1  0.37615280  0.49533423  0.91087519  1
  O  O156  1  0.37390549  0.74364276  0.16675381  1
  O  O157  1  0.37557038  0.74749715  0.41270452  1
  O  O158  1  0.37495747  0.75878601  0.66233207  1
  O  O159  1  0.37819942  0.75540936  0.91052265  1
  O  O160  1  0.63006583  0.00242096  0.16632229  1
  O  O161  1  0.62723488  -0.00175084  0.41965782  1
  O  O162  1  0.61876279  -0.00679508  0.66136214  1
  O  O163  1  0.62332404  -0.00888723  0.90953497  1
  O  O164  1  0.62945343  0.23971156  0.16262559  1
  O  O165  1  0.62069653  0.25388001  0.41717823  1
  O  O166  1  0.62537377  0.25693731  0.66344924  1
  O  O167  1  0.62611466  0.25029810  0.91351229  1
  O  O168  1  0.62633919  0.49854496  0.16304835  1
  O  O169  1  0.62086573  0.49122582  0.41066295  1
  O  O170  1  0.62656462  0.49622892  0.65835829  1
  O  O171  1  0.62743389  0.50081826  0.91509459  1
  O  O172  1  0.62775945  0.75829340  0.16318455  1
  O  O173  1  0.62709805  0.76069573  0.41393485  1
  O  O174  1  0.62255734  0.75587399  0.66079509  1
  O  O175  1  0.62347764  0.75901939  0.91479098  1
  O  O176  1  0.87653784  0.00020160  0.16985531  1
  O  O177  1  0.87583220  0.00248359  0.42698176  1
  O  O178  1  0.87548345  -0.00108401  0.66311514  1
  O  O179  1  0.87370436  -0.00238043  0.90004990  1
  O  O180  1  0.87652628  0.24730390  0.16795410  1
  O  O181  1  0.87434339  0.24484752  0.41962335  1
  O  O182  1  0.87220871  0.26379421  0.66345943  1
  O  O183  1  0.87397820  0.25748481  0.90429980  1
  O  O184  1  0.87663117  0.49151831  0.16440964  1
  O  O185  1  0.87344287  0.49763693  0.41009666  1
  O  O186  1  0.87175540  0.49898383  0.66474931  1
  O  O187  1  0.87399773  0.50236886  0.91380491  1
  O  O188  1  0.87528785  0.75880484  0.16779896  1
  O  O189  1  0.87535801  0.75650396  0.41462409  1
  O  O190  1  0.87252391  0.73982232  0.65635104  1
  O  O191  1  0.87247451  0.74400279  0.90757675  1
  O  O192  1  0.00073610  0.12438008  0.16802762  1
  O  O193  1  0.00295599  0.12387343  0.42066174  1
  O  O194  1  0.00174607  0.12820094  0.66345034  1
  O  O195  1  -0.00172732  0.12769093  0.90448257  1
  O  O196  1  -0.00197091  0.37146313  0.16969499  1
  O  O197  1  0.00159078  0.36986924  0.41508200  1
  O  O198  1  -0.00508127  0.37823288  0.65871676  1
  O  O199  1  -0.00985007  0.37925565  0.91370905  1
  O  O200  1  0.00371884  0.62487522  0.16853538  1
  O  O201  1  -0.00055958  0.62863263  0.41184460  1
  O  O202  1  -0.00751044  0.62180972  0.65747460  1
  O  O203  1  -0.00818768  0.62453315  0.91237696  1
  O  O204  1  0.00096811  0.87719578  0.16901780  1
  O  O205  1  0.00373610  0.88044411  0.42327348  1
  O  O206  1  0.00764660  0.87293013  0.65795230  1
  O  O207  1  -0.00323726  0.86973168  0.90520470  1
  O  O208  1  0.23883376  0.12279050  0.15940344  1
  O  O209  1  0.24479929  0.12259870  0.41663775  1
  O  O210  1  0.25816562  0.12445474  0.66630222  1
  O  O211  1  0.24949378  0.12518894  0.91245237  1
  O  O212  1  0.24668549  0.37376306  0.16754213  1
  O  O213  1  0.25760960  0.37420016  0.41221314  1
  O  O214  1  0.24615844  0.37714260  0.65694174  1
  O  O215  1  0.25475891  0.37790051  0.90845400  1
  O  O216  1  0.25134967  0.62605388  0.16777198  1
  O  O217  1  0.25752830  0.62689069  0.41414995  1
  O  O218  1  0.24775325  0.62368693  0.66047479  1
  O  O219  1  0.25348652  0.62515601  0.91199272  1
  O  O220  1  0.24196753  0.87591834  0.16335106  1
  O  O221  1  0.24178650  0.88088882  0.41383641  1
  O  O222  1  0.25523109  0.87632593  0.66446678  1
  O  O223  1  0.25728500  0.87255906  0.90677604  1
  O  O224  1  0.50916598  0.12149911  0.15606534  1
  O  O225  1  0.50308164  0.12436154  0.41788685  1
  O  O226  1  0.49295548  0.12460123  0.66409671  1
  O  O227  1  0.50048662  0.12298019  0.91412674  1
  O  O228  1  0.50013251  0.37188084  0.16585621  1
  O  O229  1  0.49835778  0.37451952  0.41583176  1
  O  O230  1  0.50709920  0.37470959  0.65984038  1
  O  O231  1  0.49421284  0.37523906  0.91041009  1
  O  O232  1  0.49545573  0.62797668  0.16246797  1
  O  O233  1  0.49435388  0.62655539  0.41491434  1
  O  O234  1  0.50347970  0.62627817  0.66063361  1
  O  O235  1  0.49825642  0.62703916  0.91568900  1
  O  O236  1  0.51011605  0.87778653  0.16341929  1
  O  O237  1  0.50696486  0.87911095  0.41204621  1
  O  O238  1  0.49733819  0.87552406  0.66307752  1
  O  O239  1  0.49965372  0.87473282  0.91187238  1
  O  O240  1  0.75189273  0.12218165  0.16760809  1
  O  O241  1  0.74939105  0.12488800  0.42168948  1
  O  O242  1  0.74681428  0.12605569  0.66196768  1
  O  O243  1  0.74927618  0.12393267  0.90804301  1
  O  O244  1  0.75546101  0.36948316  0.16468504  1
  O  O245  1  0.74156690  0.37156907  0.41039275  1
  O  O246  1  0.74837236  0.37792103  0.66244659  1
  O  O247  1  0.75934304  0.37865589  0.91353704  1
  O  O248  1  0.74926696  0.62639064  0.16917123  1
  O  O249  1  0.75044640  0.62699236  0.41308965  1
  O  O250  1  0.75398194  0.62232057  0.66069193  1
  O  O251  1  0.75581423  0.62522922  0.91481054  1
  O  O252  1  0.74859509  0.88020992  0.16713675  1
  O  O253  1  0.74878719  0.88018027  0.41923489  1
  O  O254  1  0.73933886  0.87466766  0.66013502  1
  O  O255  1  0.74475328  0.87390012  0.90295583  1
  O  O256  1  0.11698966  0.12586595  0.04704669  1
  O  O257  1  0.12309753  0.11902137  0.30468296  1
  O  O258  1  0.13361459  0.13071075  0.54376635  1
  O  O259  1  0.13346834  0.13216931  0.77479519  1
  O  O260  1  0.12187326  0.37433500  0.05326207  1
  O  O261  1  0.12231772  0.37088685  0.28310412  1
  O  O262  1  0.12760954  0.37186795  0.54592719  1
  O  O263  1  0.11685802  0.37953420  0.78182530  1
  O  O264  1  0.12494890  0.62516289  0.05133805  1
  O  O265  1  0.13122237  0.63248071  0.28849769  1
  O  O266  1  0.12726266  0.63172561  0.53107839  1
  O  O267  1  0.12050667  0.62617811  0.78152890  1
  O  O268  1  0.12115797  0.87488420  0.04582056  1
  O  O269  1  0.11978401  0.88152732  0.30296258  1
  O  O270  1  0.13210099  0.87637719  0.55061626  1
  O  O271  1  0.12608847  0.86185552  0.77749584  1
  O  O272  1  0.36999722  0.11832259  0.03149858  1
  O  O273  1  0.37365844  0.11601179  0.28708607  1
  O  O274  1  0.37392838  0.12489758  0.54949238  1
  O  O275  1  0.37167015  0.12264777  0.78582717  1
  O  O276  1  0.37219885  0.37587129  0.03555404  1
  O  O277  1  0.37838966  0.37271651  0.30153898  1
  O  O278  1  0.37759001  0.38035619  0.53206438  1
  O  O279  1  0.37645412  0.37821829  0.79394620  1
  O  O280  1  0.37256696  0.62577235  0.04905776  1
  O  O281  1  0.37692338  0.62699315  0.29843544  1
  O  O282  1  0.37546509  0.62981392  0.53813153  1
  O  O283  1  0.37988012  0.62247571  0.77884748  1
  O  O284  1  0.37786445  0.87456994  0.03930579  1
  O  O285  1  0.37517060  0.88409905  0.28653806  1
  O  O286  1  0.37524271  0.87653425  0.54886511  1
  O  O287  1  0.37959963  0.87457175  0.79483555  1
  O  O288  1  0.63392540  0.12055276  0.04662034  1
  O  O289  1  0.62671627  0.12456024  0.30440351  1
  O  O290  1  0.62143541  0.13210791  0.53821087  1
  O  O291  1  0.61662362  0.12969639  0.77877899  1
  O  O292  1  0.62643333  0.37054182  0.03288483  1
  O  O293  1  0.62365899  0.36989932  0.29712159  1
  O  O294  1  0.62612622  0.37353155  0.54644890  1
  O  O295  1  0.62898556  0.37295144  0.78648649  1
  O  O296  1  0.63380959  0.62897577  0.03433357  1
  O  O297  1  0.62241536  0.63152521  0.29134375  1
  O  O298  1  0.62462835  0.63061988  0.52814165  1
  O  O299  1  0.62843984  0.63206304  0.78811033  1
  O  O300  1  0.62906023  0.87759816  0.04924806  1
  O  O301  1  0.62845327  0.88034710  0.30037203  1
  O  O302  1  0.62132338  0.87521774  0.54608751  1
  O  O303  1  0.62189806  0.87069682  0.79304690  1
  O  O304  1  0.87540162  0.12304138  0.04768663  1
  O  O305  1  0.87490636  0.12150706  0.30599634  1
  O  O306  1  0.87450594  0.12991420  0.54183578  1
  O  O307  1  0.87288426  0.12747747  0.77242730  1
  O  O308  1  0.87745856  0.37081124  0.05379780  1
  O  O309  1  0.87754374  0.36516083  0.28532450  1
  O  O310  1  0.87298427  0.37888359  0.54702380  1
  O  O311  1  0.87409468  0.38145559  0.79391918  1
  O  O312  1  0.87015172  0.62935830  0.04373599  1
  O  O313  1  0.87293505  0.62902034  0.28048595  1
  O  O314  1  0.87246888  0.61918580  0.54362748  1
  O  O315  1  0.87238733  0.62263103  0.79577851  1
  O  O316  1  0.87565712  0.87694492  0.04870854  1
  O  O317  1  0.87869318  0.88477652  0.30678710  1
  O  O318  1  0.87220331  0.88054608  0.54095773  1
  O  O319  1  0.87414428  0.86929844  0.76992276  1
