# generated using pymatgen
data_VFe(PbO3)2
_symmetry_space_group_name_H-M   'P 1'
_cell_length_a   15.38460804
_cell_length_b   15.37876757
_cell_length_c   18.52554883
_cell_angle_alpha   90.03089843
_cell_angle_beta   89.97537812
_cell_angle_gamma   90.00168251
_symmetry_Int_Tables_number   1
_chemical_formula_structural   VFe(PbO3)2
_chemical_formula_sum   'V32 Fe32 Pb64 O192'
_cell_volume   4383.07547073
_cell_formula_units_Z   32
loop_
 _symmetry_equiv_pos_site_id
 _symmetry_equiv_pos_as_xyz
  1  'x, y, z'
loop_
 _atom_site_type_symbol
 _atom_site_label
 _atom_site_symmetry_multiplicity
 _atom_site_fract_x
 _atom_site_fract_y
 _atom_site_fract_z
 _atom_site_occupancy
  V  V0  1  0.87681464  0.12647650  0.38079036  1
  V  V1  1  0.62849378  0.88405751  0.63896988  1
  V  V2  1  0.37515474  0.62815957  0.13648096  1
  V  V3  1  0.62041854  0.62530154  0.39080061  1
  V  V4  1  0.12652949  0.87467081  0.13954692  1
  V  V5  1  0.87297481  0.62383988  0.64844897  1
  V  V6  1  0.62718759  0.62676341  0.64225533  1
  V  V7  1  0.12510721  0.12319832  0.89251512  1
  V  V8  1  0.37431686  0.87256006  0.14313387  1
  V  V9  1  0.37297067  0.13143958  0.14447915  1
  V  V10  1  0.62463867  0.87681944  0.88806927  1
  V  V11  1  0.87290928  0.62906049  0.13501801  1
  V  V12  1  0.62510620  0.87113195  0.14255498  1
  V  V13  1  0.37391949  0.12390677  0.63741490  1
  V  V14  1  0.36919200  0.62318928  0.39098784  1
  V  V15  1  0.87594550  0.87663590  0.89089608  1
  V  V16  1  0.87129093  0.37216796  0.89903080  1
  V  V17  1  0.62561077  0.62401494  0.89188963  1
  V  V18  1  0.87597769  0.87519386  0.38815587  1
  V  V19  1  0.87443882  0.37440698  0.64312932  1
  V  V20  1  0.87334106  0.62320728  0.38698448  1
  V  V21  1  0.12068025  0.87610371  0.64229060  1
  V  V22  1  0.62625645  0.37546496  0.64241214  1
  V  V23  1  0.62614776  0.12962109  0.63695997  1
  V  V24  1  0.62363457  0.12370563  0.89655396  1
  V  V25  1  0.87197463  0.12594138  0.64435318  1
  V  V26  1  0.12392727  0.37499738  0.88798972  1
  V  V27  1  0.12362843  0.62060097  0.64427325  1
  V  V28  1  0.87535299  0.37533215  0.38451253  1
  V  V29  1  0.37675057  0.87852488  0.88631058  1
  V  V30  1  0.12652748  0.12426758  0.38946506  1
  V  V31  1  0.12885083  0.62663309  0.13745405  1
  Fe  Fe32  1  0.62339749  0.37982326  0.12584307  1
  Fe  Fe33  1  0.12077034  0.37034383  0.63772548  1
  Fe  Fe34  1  0.12649620  0.87806770  0.88158547  1
  Fe  Fe35  1  0.12442483  0.62792867  0.87957532  1
  Fe  Fe36  1  0.37462725  0.37322844  0.64219291  1
  Fe  Fe37  1  0.37554552  0.37684775  0.38249936  1
  Fe  Fe38  1  0.87896111  0.37751784  0.12736254  1
  Fe  Fe39  1  0.37598903  0.87544133  0.63235101  1
  Fe  Fe40  1  0.12760183  0.37564891  0.13041918  1
  Fe  Fe41  1  0.87552385  0.62389537  0.88371645  1
  Fe  Fe42  1  0.62225545  0.12269940  0.14301410  1
  Fe  Fe43  1  0.62546206  0.37293689  0.89741232  1
  Fe  Fe44  1  0.87710007  0.86986991  0.13265346  1
  Fe  Fe45  1  0.87815946  0.12151939  0.12882378  1
  Fe  Fe46  1  0.62776109  0.12590425  0.37387335  1
  Fe  Fe47  1  0.37279642  0.38137461  0.13577640  1
  Fe  Fe48  1  0.37554635  0.62583293  0.87693044  1
  Fe  Fe49  1  0.12072532  0.62586734  0.38812738  1
  Fe  Fe50  1  0.12359859  0.37704475  0.38818197  1
  Fe  Fe51  1  0.37600470  0.12597558  0.37741728  1
  Fe  Fe52  1  0.37521352  0.87317072  0.39108524  1
  Fe  Fe53  1  0.62615931  0.87153998  0.38346396  1
  Fe  Fe54  1  0.87131219  0.87569219  0.63895819  1
  Fe  Fe55  1  0.37634110  0.12302466  0.88599938  1
  Fe  Fe56  1  0.12321371  0.87188705  0.38692256  1
  Fe  Fe57  1  0.62023538  0.62860359  0.12873791  1
  Fe  Fe58  1  0.87464434  0.12503988  0.90059957  1
  Fe  Fe59  1  0.12302510  0.12456561  0.63401570  1
  Fe  Fe60  1  0.37462286  0.37147852  0.88125509  1
  Fe  Fe61  1  0.13024851  0.12288076  0.13333612  1
  Fe  Fe62  1  0.62508148  0.37992854  0.38246298  1
  Fe  Fe63  1  0.37657524  0.62616041  0.64491196  1
  Pb  Pb64  1  0.00052979  0.00626287  0.00463269  1
  Pb  Pb65  1  -0.00047759  0.00037875  0.24222150  1
  Pb  Pb66  1  0.00192750  0.00539942  0.50126222  1
  Pb  Pb67  1  -0.00095426  -0.00049293  0.75423072  1
  Pb  Pb68  1  0.00372986  0.25676856  0.00652242  1
  Pb  Pb69  1  0.00396930  0.25384857  0.23598066  1
  Pb  Pb70  1  0.00922003  0.24884011  0.50344172  1
  Pb  Pb71  1  -0.00335628  0.24546886  0.75389374  1
  Pb  Pb72  1  0.00239832  0.49676684  -0.00144408  1
  Pb  Pb73  1  0.00892263  0.50149551  0.24541159  1
  Pb  Pb74  1  0.00476914  0.49575983  0.50054395  1
  Pb  Pb75  1  -0.00327203  0.50630879  0.75578965  1
  Pb  Pb76  1  -0.00126820  0.75147462  -0.00663375  1
  Pb  Pb77  1  0.01102600  0.74726170  0.25298883  1
  Pb  Pb78  1  -0.00246454  0.75119853  0.50117238  1
  Pb  Pb79  1  0.00205917  0.74643601  0.75499197  1
  Pb  Pb80  1  0.24822093  0.00527788  0.00216952  1
  Pb  Pb81  1  0.25904292  -0.00330965  0.25647365  1
  Pb  Pb82  1  0.25506623  -0.00471765  0.49564980  1
  Pb  Pb83  1  0.24553819  -0.00396378  0.74826418  1
  Pb  Pb84  1  0.24877374  0.25271386  -0.00057025  1
  Pb  Pb85  1  0.24633927  0.26299294  0.25044628  1
  Pb  Pb86  1  0.25353989  0.25791588  0.49665021  1
  Pb  Pb87  1  0.25123610  0.25155416  0.74758968  1
  Pb  Pb88  1  0.25462553  0.49497698  -0.00814403  1
  Pb  Pb89  1  0.24740486  0.49266574  0.25312471  1
  Pb  Pb90  1  0.25043963  0.49041284  0.50471986  1
  Pb  Pb91  1  0.25673064  0.49792797  0.74888322  1
  Pb  Pb92  1  0.24901227  0.74656951  -0.01058439  1
  Pb  Pb93  1  0.24564279  0.75392744  0.25729229  1
  Pb  Pb94  1  0.25395952  0.75035534  0.50307620  1
  Pb  Pb95  1  0.24582312  0.75035402  0.74923410  1
  Pb  Pb96  1  0.50512997  0.00479396  0.00737852  1
  Pb  Pb97  1  0.49673385  0.00406680  0.25727514  1
  Pb  Pb98  1  0.50313513  0.00161507  0.48591112  1
  Pb  Pb99  1  0.49473668  0.00873953  0.75007846  1
  Pb  Pb100  1  0.49328533  0.25758440  0.00134547  1
  Pb  Pb101  1  0.50959720  0.25851999  0.24549181  1
  Pb  Pb102  1  0.49882246  0.25296003  0.48613398  1
  Pb  Pb103  1  0.49433691  0.25147422  0.75522672  1
  Pb  Pb104  1  0.49148260  0.49140918  -0.00377841  1
  Pb  Pb105  1  0.50287443  0.49187741  0.24637809  1
  Pb  Pb106  1  0.48509191  0.49502033  0.51007686  1
  Pb  Pb107  1  0.49454473  0.49385753  0.75383728  1
  Pb  Pb108  1  0.50387539  0.74595961  -0.00249910  1
  Pb  Pb109  1  0.49665403  0.75852285  0.25624699  1
  Pb  Pb110  1  0.49274084  0.74972276  0.50537086  1
  Pb  Pb111  1  0.49534752  0.74889779  0.74893036  1
  Pb  Pb112  1  0.75333808  -0.00030392  0.00829716  1
  Pb  Pb113  1  0.74886136  0.00356029  0.24424952  1
  Pb  Pb114  1  0.75159051  -0.00210834  0.49316815  1
  Pb  Pb115  1  0.75965783  0.01165373  0.76150338  1
  Pb  Pb116  1  0.74083475  0.23875711  0.01226903  1
  Pb  Pb117  1  0.74887444  0.25094058  0.23408486  1
  Pb  Pb118  1  0.74773293  0.24982271  0.48907645  1
  Pb  Pb119  1  0.74359880  0.25470625  0.76039040  1
  Pb  Pb120  1  0.74748859  0.49817160  0.00269008  1
  Pb  Pb121  1  0.74339966  0.49412070  0.23954969  1
  Pb  Pb122  1  0.75043331  0.50199465  0.49880996  1
  Pb  Pb123  1  0.74262770  0.49216093  0.75983588  1
  Pb  Pb124  1  0.75022765  0.75174136  0.00007275  1
  Pb  Pb125  1  0.74357507  0.75098961  0.25016442  1
  Pb  Pb126  1  0.75618871  0.75532821  0.50264105  1
  Pb  Pb127  1  0.75269315  0.74655858  0.75445116  1
  O  O128  1  0.13151260  -0.00995543  0.16236119  1
  O  O129  1  0.11837222  0.00442369  0.41393629  1
  O  O130  1  0.12210918  -0.00127537  0.66575111  1
  O  O131  1  0.12571270  0.00274582  0.91483336  1
  O  O132  1  0.12950514  0.24880264  0.15916983  1
  O  O133  1  0.11936861  0.24382218  0.41293012  1
  O  O134  1  0.12011398  0.24509451  0.66931142  1
  O  O135  1  0.12496937  0.24707984  0.91328681  1
  O  O136  1  0.12774451  0.50991924  0.15791076  1
  O  O137  1  0.12033810  0.50229724  0.41949367  1
  O  O138  1  0.11993633  0.50399578  0.66310965  1
  O  O139  1  0.12405964  0.49309532  0.90395475  1
  O  O140  1  0.12778235  0.75146677  0.16474860  1
  O  O141  1  0.11945168  0.74848797  0.42318158  1
  O  O142  1  0.12141159  0.75441366  0.66275312  1
  O  O143  1  0.12570255  0.75495293  0.91105678  1
  O  O144  1  0.37416601  -0.01243930  0.16567605  1
  O  O145  1  0.37337973  0.00223319  0.41265342  1
  O  O146  1  0.38106940  0.00345114  0.66118610  1
  O  O147  1  0.37923008  -0.00518248  0.91696524  1
  O  O148  1  0.37380303  0.24696636  0.15563289  1
  O  O149  1  0.37270709  0.24964655  0.40874572  1
  O  O150  1  0.37974692  0.24072446  0.66303824  1
  O  O151  1  0.37448973  0.24671132  0.91456639  1
  O  O152  1  0.36891716  0.51414862  0.15941658  1
  O  O153  1  0.37740394  0.50774991  0.41775928  1
  O  O154  1  0.37605684  0.49952108  0.66775781  1
  O  O155  1  0.37376203  0.49995848  0.90432551  1
  O  O156  1  0.37043983  0.74876281  0.16824446  1
  O  O157  1  0.37876802  0.73987855  0.41746928  1
  O  O158  1  0.37747287  0.75452571  0.66645017  1
  O  O159  1  0.37892390  0.75933948  0.90729599  1
  O  O160  1  0.61938990  -0.01271511  0.16408437  1
  O  O161  1  0.63095610  -0.00049972  0.40711673  1
  O  O162  1  0.62728491  -0.00015376  0.65781200  1
  O  O163  1  0.62459626  -0.00064219  0.92044403  1
  O  O164  1  0.62255656  0.25295357  0.15623534  1
  O  O165  1  0.63006595  0.25243646  0.40778879  1
  O  O166  1  0.62881340  0.24914871  0.66836866  1
  O  O167  1  0.62564203  0.24086047  0.91784099  1
  O  O168  1  0.62386939  0.50638930  0.15791198  1
  O  O169  1  0.63197529  0.50887214  0.41638627  1
  O  O170  1  0.62927640  0.50015693  0.66933691  1
  O  O171  1  0.62748299  0.50811025  0.91029451  1
  O  O172  1  0.62217923  0.75139370  0.16731052  1
  O  O173  1  0.63128203  0.74106012  0.41805022  1
  O  O174  1  0.62909065  0.74441581  0.66285023  1
  O  O175  1  0.62499018  0.75292890  0.91337999  1
  O  O176  1  0.87640078  -0.00641448  0.16199470  1
  O  O177  1  0.87395913  -0.00261770  0.40752224  1
  O  O178  1  0.86925779  0.00547400  0.66880569  1
  O  O179  1  0.87216480  -0.00801852  0.91753616  1
  O  O180  1  0.87795348  0.25023547  0.15244490  1
  O  O181  1  0.87347101  0.25441892  0.40556090  1
  O  O182  1  0.87082436  0.24616412  0.67006988  1
  O  O183  1  0.87675851  0.25502807  0.92052377  1
  O  O184  1  0.88125799  0.51399049  0.15943837  1
  O  O185  1  0.87455316  0.49671630  0.41382944  1
  O  O186  1  0.87391322  0.49829964  0.67148919  1
  O  O187  1  0.87733058  0.49518296  0.91354635  1
  O  O188  1  0.87978881  0.74408331  0.16602880  1
  O  O189  1  0.87389751  0.75225378  0.41224146  1
  O  O190  1  0.87119249  0.74763590  0.66830153  1
  O  O191  1  0.87203720  0.75651998  0.91039647  1
  O  O192  1  0.00414316  0.11871513  0.15984005  1
  O  O193  1  -0.00481416  0.12454942  0.41443204  1
  O  O194  1  -0.01044414  0.12331757  0.66575688  1
  O  O195  1  0.00702421  0.12327710  0.91643681  1
  O  O196  1  0.00283552  0.38094025  0.16045158  1
  O  O197  1  -0.00907159  0.37540823  0.41186437  1
  O  O198  1  -0.00707167  0.37209409  0.67124657  1
  O  O199  1  0.00418321  0.37180735  0.91371577  1
  O  O200  1  0.00769784  0.62997413  0.15887715  1
  O  O201  1  -0.00983927  0.62553207  0.41885717  1
  O  O202  1  0.00080026  0.62710354  0.66821728  1
  O  O203  1  -0.00001629  0.62699323  0.91260075  1
  O  O204  1  0.00912310  0.87117110  0.15884184  1
  O  O205  1  -0.00810966  0.87473889  0.41469190  1
  O  O206  1  0.00071645  0.87810549  0.66589577  1
  O  O207  1  -0.00587549  0.87633749  0.90748241  1
  O  O208  1  0.25722007  0.11649827  0.16634767  1
  O  O209  1  0.24180511  0.12409888  0.40840499  1
  O  O210  1  0.25657059  0.12222235  0.65653597  1
  O  O211  1  0.24600173  0.12218122  0.91334202  1
  O  O212  1  0.24953021  0.37952463  0.16532865  1
  O  O213  1  0.24969551  0.37798013  0.41648519  1
  O  O214  1  0.24633499  0.37197966  0.66633127  1
  O  O215  1  0.24317931  0.37122109  0.90761377  1
  O  O216  1  0.24714617  0.63233235  0.16326369  1
  O  O217  1  0.25414588  0.62558290  0.41080974  1
  O  O218  1  0.24129100  0.62803488  0.66183380  1
  O  O219  1  0.25069652  0.62834913  0.90753100  1
  O  O220  1  0.25116167  0.86908746  0.16596075  1
  O  O221  1  0.24750294  0.87193210  0.41783693  1
  O  O222  1  0.24392803  0.87787390  0.66089786  1
  O  O223  1  0.25916440  0.87826821  0.90706128  1
  O  O224  1  0.49034501  0.11727389  0.16466703  1
  O  O225  1  0.50296492  0.12534246  0.40504525  1
  O  O226  1  0.50392423  0.12447901  0.66370630  1
  O  O227  1  0.50514592  0.12124869  0.91967446  1
  O  O228  1  0.49781394  0.38068102  0.15890239  1
  O  O229  1  0.50117104  0.37989271  0.41270695  1
  O  O230  1  0.50686782  0.37355535  0.66469098  1
  O  O231  1  0.49929457  0.37394974  0.91222566  1
  O  O232  1  0.49021273  0.63191011  0.15696632  1
  O  O233  1  0.50551863  0.62491574  0.41140147  1
  O  O234  1  0.51161347  0.62289751  0.66682695  1
  O  O235  1  0.50483486  0.62982650  0.90928788  1
  O  O236  1  0.49566400  0.86680035  0.16420616  1
  O  O237  1  0.50295475  0.87058726  0.41474958  1
  O  O238  1  0.51233329  0.87244147  0.66065503  1
  O  O239  1  0.50068876  0.87694658  0.91521037  1
  O  O240  1  0.75196161  0.12057004  0.15982169  1
  O  O241  1  0.75774077  0.12611387  0.40805408  1
  O  O242  1  0.74932829  0.12541744  0.67068326  1
  O  O243  1  0.74275660  0.12137401  0.92042948  1
  O  O244  1  0.75245626  0.38173976  0.15220452  1
  O  O245  1  0.75731250  0.37825864  0.41254772  1
  O  O246  1  0.75126160  0.37352673  0.67444092  1
  O  O247  1  0.75539817  0.37451341  0.91890925  1
  O  O248  1  0.75624796  0.63021328  0.15427201  1
  O  O249  1  0.75407708  0.62454080  0.41872343  1
  O  O250  1  0.74556153  0.62229606  0.67187052  1
  O  O251  1  0.74669451  0.62862980  0.91336213  1
  O  O252  1  0.74382324  0.86896758  0.16022519  1
  O  O253  1  0.75650544  0.87261886  0.41425033  1
  O  O254  1  0.74186823  0.87331698  0.67024942  1
  O  O255  1  0.74775336  0.87580705  0.91501249  1
  O  O256  1  0.13264243  0.11712330  0.03368264  1
  O  O257  1  0.12242053  0.12338983  0.29870848  1
  O  O258  1  0.11215157  0.12554186  0.53483618  1
  O  O259  1  0.12371712  0.12229665  0.80097021  1
  O  O260  1  0.12666476  0.37519560  0.02984216  1
  O  O261  1  0.12966494  0.37805716  0.28783728  1
  O  O262  1  0.11717043  0.37033011  0.53697321  1
  O  O263  1  0.12049236  0.36726887  0.79721538  1
  O  O264  1  0.13141948  0.63008388  0.04636120  1
  O  O265  1  0.11817264  0.62967718  0.28804422  1
  O  O266  1  0.11825788  0.62454992  0.55333490  1
  O  O267  1  0.11984638  0.63117994  0.77917439  1
  O  O268  1  0.13060709  0.87333064  0.04837756  1
  O  O269  1  0.12451272  0.86395759  0.28729824  1
  O  O270  1  0.11790992  0.87822405  0.55122896  1
  O  O271  1  0.12831549  0.88199894  0.78205565  1
  O  O272  1  0.37199430  0.11790003  0.05298455  1
  O  O273  1  0.37389009  0.11507927  0.27738592  1
  O  O274  1  0.37849776  0.12497707  0.54694489  1
  O  O275  1  0.38536720  0.12100536  0.78641508  1
  O  O276  1  0.37196506  0.38383394  0.03413296  1
  O  O277  1  0.37027956  0.38441218  0.28197267  1
  O  O278  1  0.37404850  0.37962097  0.54075652  1
  O  O279  1  0.37790149  0.36718588  0.77927077  1
  O  O280  1  0.37113469  0.63193052  0.04518275  1
  O  O281  1  0.37510596  0.62245689  0.30034255  1
  O  O282  1  0.38295820  0.62388479  0.54378008  1
  O  O283  1  0.37801643  0.62818127  0.77632178  1
  O  O284  1  0.37379141  0.87142865  0.05254970  1
  O  O285  1  0.37311421  0.86831278  0.28984549  1
  O  O286  1  0.37376799  0.86862980  0.53260124  1
  O  O287  1  0.38160599  0.88301000  0.79488771  1
  O  O288  1  0.62408453  0.11715970  0.04188097  1
  O  O289  1  0.62556920  0.12403916  0.27258080  1
  O  O290  1  0.63045846  0.13215094  0.54650120  1
  O  O291  1  0.62380518  0.12094147  0.80500256  1
  O  O292  1  0.62358424  0.37979133  0.02384540  1
  O  O293  1  0.62326524  0.38562282  0.28236203  1
  O  O294  1  0.63233190  0.37689701  0.55165770  1
  O  O295  1  0.63533667  0.37258630  0.79583586  1
  O  O296  1  0.62285597  0.63434941  0.02956606  1
  O  O297  1  0.62582938  0.62678429  0.29952400  1
  O  O298  1  0.62989023  0.62231832  0.55153010  1
  O  O299  1  0.62770708  0.62825103  0.80048948  1
  O  O300  1  0.62068625  0.86916907  0.05116048  1
  O  O301  1  0.62539933  0.86218604  0.28399184  1
  O  O302  1  0.63495342  0.87720399  0.54781028  1
  O  O303  1  0.62464858  0.87986027  0.79735617  1
  O  O304  1  0.87480066  0.11517368  0.02652768  1
  O  O305  1  0.87947064  0.12380524  0.28997021  1
  O  O306  1  0.86995253  0.12727379  0.55372792  1
  O  O307  1  0.87034292  0.11843091  0.79965192  1
  O  O308  1  0.88736128  0.38383294  0.02741555  1
  O  O309  1  0.87462363  0.37975854  0.29392112  1
  O  O310  1  0.87269681  0.37272172  0.55243606  1
  O  O311  1  0.87317062  0.37007083  0.80707421  1
  O  O312  1  0.87727397  0.63181767  0.04353940  1
  O  O313  1  0.87334530  0.62198471  0.29612349  1
  O  O314  1  0.87242594  0.62085001  0.55733580  1
  O  O315  1  0.87779641  0.62670476  0.78368053  1
  O  O316  1  0.87284066  0.86722719  0.03370085  1
  O  O317  1  0.87529233  0.87238543  0.29746708  1
  O  O318  1  0.86642967  0.87625357  0.54010728  1
  O  O319  1  0.86982053  0.88034763  0.79892841  1
