# generated using pymatgen
data_VFe(PbO3)2
_symmetry_space_group_name_H-M   'P 1'
_cell_length_a   15.40561230
_cell_length_b   15.40599701
_cell_length_c   18.45883397
_cell_angle_alpha   89.98664855
_cell_angle_beta   89.98265273
_cell_angle_gamma   89.99444793
_symmetry_Int_Tables_number   1
_chemical_formula_structural   VFe(PbO3)2
_chemical_formula_sum   'V32 Fe32 Pb64 O192'
_cell_volume   4380.99747821
_cell_formula_units_Z   32
loop_
 _symmetry_equiv_pos_site_id
 _symmetry_equiv_pos_as_xyz
  1  'x, y, z'
loop_
 _atom_site_type_symbol
 _atom_site_label
 _atom_site_symmetry_multiplicity
 _atom_site_fract_x
 _atom_site_fract_y
 _atom_site_fract_z
 _atom_site_occupancy
  V  V0  1  0.37455921  0.37560636  0.65398506  1
  V  V1  1  0.12473270  0.62400484  0.64152025  1
  V  V2  1  0.62629502  0.62392993  0.64329112  1
  V  V3  1  0.12531279  0.37704258  0.65398901  1
  V  V4  1  0.37483702  0.37597145  0.38838676  1
  V  V5  1  0.62577241  0.62864273  0.89450280  1
  V  V6  1  0.12473830  0.37536552  0.38407054  1
  V  V7  1  0.37636363  0.12250690  0.13266322  1
  V  V8  1  0.62608627  0.11907563  0.88641462  1
  V  V9  1  0.12808143  0.62943616  0.90055501  1
  V  V10  1  0.87261538  0.38564510  0.90087312  1
  V  V11  1  0.12305404  0.12706011  0.65177426  1
  V  V12  1  0.87301237  0.12700048  0.89561761  1
  V  V13  1  0.62408228  0.12812002  0.64425592  1
  V  V14  1  0.62320385  0.12215596  0.13754241  1
  V  V15  1  0.62352901  0.87466126  0.64425374  1
  V  V16  1  0.12730022  0.87667762  0.13747677  1
  V  V17  1  0.37387246  0.62521212  0.64633366  1
  V  V18  1  0.87318174  0.87697754  0.89304950  1
  V  V19  1  0.87773929  0.37637675  0.64676875  1
  V  V20  1  0.87446170  0.12840806  0.38817593  1
  V  V21  1  0.87642721  0.87481057  0.63786510  1
  V  V22  1  0.62205010  0.37304708  0.13139560  1
  V  V23  1  0.37481730  0.87432217  0.88579653  1
  V  V24  1  0.12625099  0.87485667  0.64436380  1
  V  V25  1  0.87517166  0.12521615  0.64386717  1
  V  V26  1  0.62324363  0.87155059  0.13868454  1
  V  V27  1  0.87579325  0.37347052  0.38666543  1
  V  V28  1  0.36909853  0.12455835  0.65750668  1
  V  V29  1  0.62388179  0.62196005  0.38631695  1
  V  V30  1  0.37312487  0.87583687  0.64263592  1
  V  V31  1  0.87527376  0.63168301  0.89495619  1
  Fe  Fe32  1  0.12580132  0.62205110  0.37383360  1
  Fe  Fe33  1  0.37774614  0.36939153  0.12086076  1
  Fe  Fe34  1  0.62433166  0.62460548  0.12814023  1
  Fe  Fe35  1  0.62365701  0.37628508  0.65261654  1
  Fe  Fe36  1  0.12663470  0.12307704  0.12237057  1
  Fe  Fe37  1  0.12380648  0.87782705  0.37832726  1
  Fe  Fe38  1  0.12840836  0.37108341  0.11995637  1
  Fe  Fe39  1  0.62508386  0.37601734  0.38393814  1
  Fe  Fe40  1  0.37634128  0.87501718  0.37675440  1
  Fe  Fe41  1  0.37907094  0.62484898  0.12607267  1
  Fe  Fe42  1  0.12574911  0.62578312  0.13282096  1
  Fe  Fe43  1  0.87726472  0.62491244  0.63779481  1
  Fe  Fe44  1  0.87359938  0.36988792  0.12354042  1
  Fe  Fe45  1  0.37601902  0.87733690  0.14345330  1
  Fe  Fe46  1  0.12128171  0.37690294  0.89682180  1
  Fe  Fe47  1  0.37713005  0.12031549  0.87751289  1
  Fe  Fe48  1  0.37418439  0.12984019  0.38384371  1
  Fe  Fe49  1  0.87261694  0.12486797  0.12851316  1
  Fe  Fe50  1  0.62820436  0.87352578  0.88510335  1
  Fe  Fe51  1  0.62603319  0.87735367  0.38171109  1
  Fe  Fe52  1  0.87362042  0.62112685  0.37729712  1
  Fe  Fe53  1  0.12111013  0.87026461  0.88710645  1
  Fe  Fe54  1  0.12597044  0.12954903  0.38353056  1
  Fe  Fe55  1  0.62418089  0.13112452  0.38619920  1
  Fe  Fe56  1  0.87415951  0.87983830  0.14442850  1
  Fe  Fe57  1  0.87363086  0.87591123  0.37630956  1
  Fe  Fe58  1  0.87094520  0.62480296  0.13882398  1
  Fe  Fe59  1  0.37637196  0.62773906  0.89549760  1
  Fe  Fe60  1  0.12176602  0.11873325  0.89384564  1
  Fe  Fe61  1  0.37716192  0.37476691  0.89398397  1
  Fe  Fe62  1  0.37679245  0.62067673  0.38168765  1
  Fe  Fe63  1  0.63099423  0.37666615  0.88099944  1
  Pb  Pb64  1  -0.00753359  -0.00377864  0.00606053  1
  Pb  Pb65  1  0.00313539  0.00167306  0.24331533  1
  Pb  Pb66  1  0.00240773  -0.00095810  0.49278218  1
  Pb  Pb67  1  0.00391492  0.00144345  0.75789899  1
  Pb  Pb68  1  0.00216420  0.25299743  0.00159303  1
  Pb  Pb69  1  0.00380963  0.24675004  0.22799864  1
  Pb  Pb70  1  0.00000708  0.25416009  0.49946690  1
  Pb  Pb71  1  0.00662343  0.24988255  0.76548197  1
  Pb  Pb72  1  0.00626301  0.50810161  0.01312167  1
  Pb  Pb73  1  0.00216569  0.49995057  0.23304295  1
  Pb  Pb74  1  -0.00416574  0.50990033  0.49554666  1
  Pb  Pb75  1  0.00676579  0.49848953  0.76071679  1
  Pb  Pb76  1  -0.00287399  0.74431192  0.01277821  1
  Pb  Pb77  1  0.00066175  0.74492390  0.24430519  1
  Pb  Pb78  1  -0.00158271  0.74767710  0.48373217  1
  Pb  Pb79  1  0.00386685  0.75465266  0.75048728  1
  Pb  Pb80  1  0.24385052  0.00066498  -0.00499525  1
  Pb  Pb81  1  0.24077238  0.00197626  0.25134623  1
  Pb  Pb82  1  0.25185757  -0.00048346  0.49022127  1
  Pb  Pb83  1  0.23614289  0.00252413  0.76206457  1
  Pb  Pb84  1  0.24454665  0.24430438  -0.01295196  1
  Pb  Pb85  1  0.25090905  0.24263447  0.23772855  1
  Pb  Pb86  1  0.24898633  0.24952256  0.50093169  1
  Pb  Pb87  1  0.24475546  0.26006316  0.76959942  1
  Pb  Pb88  1  0.25418071  0.49069463  -0.00027644  1
  Pb  Pb89  1  0.25125543  0.49970449  0.22903494  1
  Pb  Pb90  1  0.24772603  0.50229327  0.49467682  1
  Pb  Pb91  1  0.25393421  0.49849467  0.76655169  1
  Pb  Pb92  1  0.26158621  0.75204160  0.00788866  1
  Pb  Pb93  1  0.25233187  0.74134908  0.24308719  1
  Pb  Pb94  1  0.24774121  0.75009516  0.48441730  1
  Pb  Pb95  1  0.25006470  0.74773194  0.75466461  1
  Pb  Pb96  1  0.49492483  -0.01042544  -0.00019047  1
  Pb  Pb97  1  0.49956699  -0.00319207  0.25437583  1
  Pb  Pb98  1  0.49731045  0.00208934  0.49112624  1
  Pb  Pb99  1  0.49891135  0.00010346  0.75201356  1
  Pb  Pb100  1  0.49824837  0.25129712  -0.01092673  1
  Pb  Pb101  1  0.50159914  0.24412497  0.24942046  1
  Pb  Pb102  1  0.50286045  0.25219511  0.50279095  1
  Pb  Pb103  1  0.48888635  0.25561543  0.76468340  1
  Pb  Pb104  1  0.49733111  0.49801549  -0.00482347  1
  Pb  Pb105  1  0.49420557  0.50075034  0.23776618  1
  Pb  Pb106  1  0.50891231  0.49228528  0.50412841  1
  Pb  Pb107  1  0.48849258  0.50173386  0.76539147  1
  Pb  Pb108  1  0.49337135  0.75394452  0.00555985  1
  Pb  Pb109  1  0.49009982  0.74613382  0.24753850  1
  Pb  Pb110  1  0.49700606  0.75151838  0.49188693  1
  Pb  Pb111  1  0.49618850  0.74464495  0.75597122  1
  Pb  Pb112  1  0.75683431  -0.00399022  0.00783350  1
  Pb  Pb113  1  0.74780995  -0.00213837  0.25066280  1
  Pb  Pb114  1  0.74799649  -0.00015868  0.49418527  1
  Pb  Pb115  1  0.74797228  -0.00435870  0.75187896  1
  Pb  Pb116  1  0.75358831  0.24807322  0.00149534  1
  Pb  Pb117  1  0.73899081  0.25209689  0.24614405  1
  Pb  Pb118  1  0.74011085  0.26061687  0.50530897  1
  Pb  Pb119  1  0.75028883  0.25293944  0.75633514  1
  Pb  Pb120  1  0.74908103  0.51079702  0.00770551  1
  Pb  Pb121  1  0.75366128  0.49990035  0.24026041  1
  Pb  Pb122  1  0.75430265  0.50317534  0.50135874  1
  Pb  Pb123  1  0.74739029  0.49871307  0.75563808  1
  Pb  Pb124  1  0.75314221  0.74617886  0.00951718  1
  Pb  Pb125  1  0.75692666  0.74865237  0.24738546  1
  Pb  Pb126  1  0.75671456  0.74836311  0.49127040  1
  Pb  Pb127  1  0.74636884  0.75460598  0.75165276  1
  O  O128  1  0.12924261  -0.00145129  0.15825687  1
  O  O129  1  0.12322767  0.00488482  0.41592363  1
  O  O130  1  0.12417877  -0.00052008  0.67100808  1
  O  O131  1  0.12186158  -0.00905325  0.91619404  1
  O  O132  1  0.12896991  0.24637341  0.14971170  1
  O  O133  1  0.12414155  0.25679166  0.41921281  1
  O  O134  1  0.12371297  0.25197073  0.67962102  1
  O  O135  1  0.12050046  0.24649145  0.90597078  1
  O  O136  1  0.12611595  0.49661549  0.14927199  1
  O  O137  1  0.12461600  0.49333901  0.41220871  1
  O  O138  1  0.12531945  0.50195195  0.67580134  1
  O  O139  1  0.11672309  0.51106691  0.91769931  1
  O  O140  1  0.12471555  0.75752890  0.15828740  1
  O  O141  1  0.12318138  0.74876765  0.40587517  1
  O  O142  1  0.12604619  0.74813500  0.66858843  1
  O  O143  1  0.11752460  0.74695612  0.92151794  1
  O  O144  1  0.38146643  0.00827872  0.16079717  1
  O  O145  1  0.37584106  0.00147717  0.41086530  1
  O  O146  1  0.37611889  -0.00392798  0.66926839  1
  O  O147  1  0.37880966  -0.00790954  0.90840662  1
  O  O148  1  0.37985255  0.24153482  0.15357274  1
  O  O149  1  0.37224035  0.26134306  0.41977929  1
  O  O150  1  0.37221969  0.25584977  0.67665216  1
  O  O151  1  0.37994276  0.24403886  0.90264059  1
  O  O152  1  0.38005481  0.49642993  0.14848203  1
  O  O153  1  0.37500082  0.49223798  0.41724598  1
  O  O154  1  0.37327212  0.49950514  0.67522975  1
  O  O155  1  0.37822875  0.50308922  0.91330890  1
  O  O156  1  0.37939679  0.75015738  0.16077949  1
  O  O157  1  0.37733051  0.74705029  0.41071211  1
  O  O158  1  0.37460779  0.75017254  0.67129808  1
  O  O159  1  0.37792640  0.75756493  0.91462097  1
  O  O160  1  0.62184583  0.00611602  0.16192235  1
  O  O161  1  0.62709002  0.00531159  0.41584139  1
  O  O162  1  0.62831436  0.00256575  0.66603766  1
  O  O163  1  0.62884487  0.00148239  0.91326538  1
  O  O164  1  0.62160678  0.24785138  0.15922967  1
  O  O165  1  0.62613717  0.25489890  0.42330697  1
  O  O166  1  0.62867825  0.24327948  0.66965291  1
  O  O167  1  0.63023229  0.23874101  0.90642443  1
  O  O168  1  0.62329583  0.49048063  0.15051157  1
  O  O169  1  0.62446738  0.50186490  0.41694605  1
  O  O170  1  0.62444937  0.50907358  0.67031797  1
  O  O171  1  0.63319841  0.50692245  0.91083342  1
  O  O172  1  0.62484635  0.75638098  0.15276643  1
  O  O173  1  0.62722696  0.74033834  0.41022532  1
  O  O174  1  0.62455590  0.74521344  0.66799140  1
  O  O175  1  0.63298892  0.74664739  0.91540851  1
  O  O176  1  0.86952463  0.00597734  0.16608992  1
  O  O177  1  0.87426575  0.01092909  0.40888476  1
  O  O178  1  0.87515847  0.00005750  0.66691122  1
  O  O179  1  0.87135400  -0.00510539  0.91380438  1
  O  O180  1  0.87094100  0.24802706  0.15812133  1
  O  O181  1  0.87754744  0.25524063  0.41794811  1
  O  O182  1  0.87684672  0.25278528  0.67243063  1
  O  O183  1  0.87018085  0.24250154  0.91038062  1
  O  O184  1  0.86991589  0.49369028  0.15426336  1
  O  O185  1  0.87560024  0.49175726  0.41149899  1
  O  O186  1  0.87741572  0.49442328  0.66986358  1
  O  O187  1  0.87257533  0.50271802  0.91555843  1
  O  O188  1  0.87069464  0.75295017  0.16231221  1
  O  O189  1  0.87179197  0.74759763  0.40509232  1
  O  O190  1  0.87547818  0.75413484  0.66357970  1
  O  O191  1  0.87255722  0.74926122  0.91526156  1
  O  O192  1  0.00094538  0.12278870  0.14855093  1
  O  O193  1  -0.00679544  0.13168394  0.41588213  1
  O  O194  1  -0.00277484  0.12590060  0.67465361  1
  O  O195  1  -0.01123721  0.11813847  0.91363558  1
  O  O196  1  0.00056981  0.37079141  0.14830096  1
  O  O197  1  -0.00251056  0.37430909  0.41387281  1
  O  O198  1  -0.00331070  0.37459757  0.67619195  1
  O  O199  1  -0.01074216  0.37210565  0.91474227  1
  O  O200  1  -0.00123436  0.62566134  0.15753711  1
  O  O201  1  -0.00041368  0.61987428  0.40737184  1
  O  O202  1  0.00452658  0.62449172  0.66766069  1
  O  O203  1  -0.00923721  0.62717758  0.91965149  1
  O  O204  1  0.00718748  0.88007237  0.15978440  1
  O  O205  1  -0.00349814  0.87846864  0.41182700  1
  O  O206  1  -0.00014853  0.87526179  0.66695019  1
  O  O207  1  -0.01088676  0.87161866  0.91657005  1
  O  O208  1  0.25883349  0.12357037  0.15077456  1
  O  O209  1  0.24983387  0.13094482  0.42097448  1
  O  O210  1  0.24609170  0.12595924  0.67733646  1
  O  O211  1  0.25354235  0.11780065  0.90288021  1
  O  O212  1  0.25430152  0.37103131  0.14870939  1
  O  O213  1  0.25063634  0.37645594  0.41505621  1
  O  O214  1  0.25072728  0.37653899  0.67892789  1
  O  O215  1  0.24890162  0.37859674  0.90798945  1
  O  O216  1  0.25264539  0.62737831  0.15137376  1
  O  O217  1  0.25005871  0.61997677  0.41123467  1
  O  O218  1  0.24946175  0.62481174  0.67193926  1
  O  O219  1  0.24445932  0.62971652  0.91312021  1
  O  O220  1  0.24541398  0.87654724  0.15982686  1
  O  O221  1  0.25051232  0.87589907  0.40930101  1
  O  O222  1  0.24992128  0.87376738  0.67004708  1
  O  O223  1  0.25655648  0.87141465  0.90882103  1
  O  O224  1  0.50196778  0.12665982  0.16253135  1
  O  O225  1  0.49833598  0.13227479  0.41950582  1
  O  O226  1  0.50928957  0.12406123  0.66722000  1
  O  O227  1  0.50867217  0.11859737  0.90611551  1
  O  O228  1  0.50485324  0.36857291  0.15589927  1
  O  O229  1  0.49341570  0.37568556  0.41377100  1
  O  O230  1  0.49286295  0.37633986  0.67201448  1
  O  O231  1  0.50903056  0.37459175  0.90676015  1
  O  O232  1  0.50326692  0.62406141  0.15835753  1
  O  O233  1  0.50688688  0.62067220  0.41529263  1
  O  O234  1  0.50163359  0.62610335  0.67096064  1
  O  O235  1  0.50979319  0.62790231  0.90908455  1
  O  O236  1  0.50852089  0.88147182  0.16426360  1
  O  O237  1  0.50207325  0.87400511  0.41435150  1
  O  O238  1  0.50037240  0.87346443  0.66765778  1
  O  O239  1  0.49825519  0.87343932  0.90986559  1
  O  O240  1  0.73950472  0.12742247  0.15802592  1
  O  O241  1  0.75912018  0.13352726  0.41640163  1
  O  O242  1  0.75036378  0.12496651  0.66963949  1
  O  O243  1  0.74931564  0.11858674  0.91515122  1
  O  O244  1  0.73996354  0.36840161  0.15385980  1
  O  O245  1  0.75845620  0.37423913  0.41312338  1
  O  O246  1  0.75953187  0.37501763  0.66920834  1
  O  O247  1  0.75346869  0.37107421  0.91637814  1
  O  O248  1  0.74356871  0.62356850  0.16469955  1
  O  O249  1  0.74396110  0.61834445  0.41215464  1
  O  O250  1  0.74514510  0.62562480  0.66476592  1
  O  O251  1  0.75613212  0.62611633  0.91709698  1
  O  O252  1  0.73889826  0.88258857  0.16262637  1
  O  O253  1  0.75113378  0.87712947  0.41536412  1
  O  O254  1  0.75097410  0.87454457  0.66640043  1
  O  O255  1  0.75623798  0.87256689  0.91795315  1
  O  O256  1  0.13213417  0.12033092  0.02035401  1
  O  O257  1  0.13346437  0.12693981  0.28407195  1
  O  O258  1  0.12186915  0.13071867  0.56085845  1
  O  O259  1  0.11571423  0.11244494  0.78968979  1
  O  O260  1  0.12280278  0.37260536  0.01741235  1
  O  O261  1  0.12603945  0.37196578  0.29332198  1
  O  O262  1  0.12547684  0.37628984  0.56311002  1
  O  O263  1  0.11854902  0.38141729  0.79232522  1
  O  O264  1  0.11350444  0.62906704  0.03016130  1
  O  O265  1  0.12715071  0.62267512  0.27361919  1
  O  O266  1  0.12676098  0.62077887  0.55051884  1
  O  O267  1  0.11885471  0.63100014  0.80855718  1
  O  O268  1  0.12639143  0.87742028  0.04546247  1
  O  O269  1  0.12451183  0.88916368  0.27919991  1
  O  O270  1  0.12572154  0.87552083  0.55357381  1
  O  O271  1  0.12029015  0.87103373  0.78633149  1
  O  O272  1  0.38332626  0.11860664  0.04090769  1
  O  O273  1  0.37284808  0.13703475  0.28478296  1
  O  O274  1  0.37293343  0.13148083  0.56633433  1
  O  O275  1  0.38795906  0.12102495  0.77524793  1
  O  O276  1  0.38262980  0.37224485  0.01881416  1
  O  O277  1  0.37294173  0.37419541  0.29760307  1
  O  O278  1  0.37029868  0.37738470  0.56311894  1
  O  O279  1  0.37650825  0.38098190  0.78917713  1
  O  O280  1  0.37978159  0.63617541  0.02264315  1
  O  O281  1  0.38245606  0.62027269  0.28216021  1
  O  O282  1  0.37654474  0.62135181  0.55569337  1
  O  O283  1  0.37878196  0.62847901  0.79257329  1
  O  O284  1  0.38317968  0.87266476  0.04081430  1
  O  O285  1  0.38329045  0.87638927  0.27562180  1
  O  O286  1  0.37352439  0.87241472  0.55193054  1
  O  O287  1  0.37591325  0.87168632  0.79413070  1
  O  O288  1  0.61992004  0.12179399  0.04617041  1
  O  O289  1  0.62314184  0.13858572  0.28634766  1
  O  O290  1  0.62783161  0.12999310  0.55289708  1
  O  O291  1  0.63111988  0.11667781  0.79476464  1
  O  O292  1  0.62213130  0.36743725  0.03977025  1
  O  O293  1  0.62491281  0.36836549  0.28525643  1
  O  O294  1  0.62412684  0.37698642  0.55151817  1
  O  O295  1  0.63640664  0.37742194  0.77855432  1
  O  O296  1  0.63560578  0.62602026  0.02760822  1
  O  O297  1  0.62258855  0.61863718  0.29554407  1
  O  O298  1  0.62240190  0.62258173  0.55226890  1
  O  O299  1  0.63319951  0.63032392  0.80236381  1
  O  O300  1  0.62205312  0.88123478  0.04634074  1
  O  O301  1  0.62479611  0.88237489  0.28261844  1
  O  O302  1  0.62663510  0.87256022  0.55336076  1
  O  O303  1  0.63540970  0.87266254  0.78482583  1
  O  O304  1  0.86647334  0.11835987  0.02665535  1
  O  O305  1  0.87455056  0.13280569  0.29765358  1
  O  O306  1  0.87699191  0.12805994  0.55322163  1
  O  O307  1  0.87047631  0.12103890  0.80349494  1
  O  O308  1  0.87135696  0.36365814  0.02129047  1
  O  O309  1  0.87706861  0.37028252  0.29620740  1
  O  O310  1  0.88142900  0.37489860  0.55563121  1
  O  O311  1  0.87073426  0.37887531  0.80809165  1
  O  O312  1  0.86720584  0.62928825  0.03589675  1
  O  O313  1  0.86868692  0.61944762  0.27732196  1
  O  O314  1  0.87355795  0.61516904  0.53834613  1
  O  O315  1  0.87569833  0.62862237  0.80355191  1
  O  O316  1  0.87212886  0.88534618  0.04175175  1
  O  O317  1  0.86920215  0.88069171  0.27594517  1
  O  O318  1  0.87569933  0.87687932  0.54692974  1
  O  O319  1  0.87195088  0.87392120  0.80127951  1
