# generated using pymatgen
data_VFe(PbO3)2
_symmetry_space_group_name_H-M   'P 1'
_cell_length_a   15.36930721
_cell_length_b   15.41191994
_cell_length_c   18.51140988
_cell_angle_alpha   90.00550321
_cell_angle_beta   89.95936133
_cell_angle_gamma   89.97940179
_symmetry_Int_Tables_number   1
_chemical_formula_structural   VFe(PbO3)2
_chemical_formula_sum   'V32 Fe32 Pb64 O192'
_cell_volume   4384.80610335
_cell_formula_units_Z   32
loop_
 _symmetry_equiv_pos_site_id
 _symmetry_equiv_pos_as_xyz
  1  'x, y, z'
loop_
 _atom_site_type_symbol
 _atom_site_label
 _atom_site_symmetry_multiplicity
 _atom_site_fract_x
 _atom_site_fract_y
 _atom_site_fract_z
 _atom_site_occupancy
  V  V0  1  0.87267198  0.62751614  0.63892326  1
  V  V1  1  0.37633594  0.37222408  0.63948202  1
  V  V2  1  0.87493697  0.62559219  0.88870040  1
  V  V3  1  0.12361673  0.13589945  0.13436491  1
  V  V4  1  0.12408146  0.62522749  0.64631777  1
  V  V5  1  0.37297377  0.62547708  0.64290129  1
  V  V6  1  0.12272852  0.87611904  0.13695789  1
  V  V7  1  0.37789224  0.87607236  0.89335937  1
  V  V8  1  0.87017075  0.37326283  0.88615228  1
  V  V9  1  0.37363783  0.62224489  0.38843832  1
  V  V10  1  0.12702714  0.62603443  0.13765219  1
  V  V11  1  0.37820387  0.12693247  0.88899411  1
  V  V12  1  0.37583442  0.37441290  0.14089708  1
  V  V13  1  0.87054065  0.87258174  0.64227999  1
  V  V14  1  0.62488241  0.62511215  0.89213778  1
  V  V15  1  0.87570870  0.62481091  0.14480936  1
  V  V16  1  0.12215528  0.87297612  0.64535265  1
  V  V17  1  0.62156998  0.87122039  0.63271310  1
  V  V18  1  0.62506886  0.87783914  0.89309614  1
  V  V19  1  0.87457531  0.87434011  0.13866466  1
  V  V20  1  0.12387107  0.87655735  0.38872156  1
  V  V21  1  0.12447879  0.62407152  0.38954213  1
  V  V22  1  0.37487959  0.62339879  0.13762886  1
  V  V23  1  0.12234677  0.12434600  0.39104746  1
  V  V24  1  0.62491056  0.87604781  0.14704479  1
  V  V25  1  0.62908343  0.37662007  0.14199231  1
  V  V26  1  0.62259305  0.62903261  0.63637618  1
  V  V27  1  0.87753953  0.12925002  0.39713719  1
  V  V28  1  0.62495023  0.37507246  0.38945288  1
  V  V29  1  0.37307392  0.87300786  0.63697310  1
  V  V30  1  0.87674115  0.87823003  0.39017689  1
  V  V31  1  0.62369550  0.62351220  0.15151074  1
  Fe  Fe32  1  0.62691728  0.12776347  0.14386395  1
  Fe  Fe33  1  0.87781495  0.37618648  0.39465812  1
  Fe  Fe34  1  0.62383542  0.12250994  0.62905237  1
  Fe  Fe35  1  0.37514442  0.12185290  0.63069551  1
  Fe  Fe36  1  0.12618478  0.37616929  0.87820722  1
  Fe  Fe37  1  0.87019805  0.87292108  0.88245516  1
  Fe  Fe38  1  0.87640351  0.37509047  0.13414939  1
  Fe  Fe39  1  0.12563504  0.12253529  0.88028292  1
  Fe  Fe40  1  0.12458736  0.38031351  0.13350063  1
  Fe  Fe41  1  0.87865553  0.62517078  0.38466119  1
  Fe  Fe42  1  0.62520581  0.37408188  0.88256567  1
  Fe  Fe43  1  0.37188673  0.12500194  0.14229888  1
  Fe  Fe44  1  0.12671543  0.37355294  0.38739970  1
  Fe  Fe45  1  0.37136693  0.37454326  0.38715441  1
  Fe  Fe46  1  0.87455594  0.12317429  0.63220070  1
  Fe  Fe47  1  0.87235654  0.12217503  0.88189690  1
  Fe  Fe48  1  0.12425213  0.87635118  0.88281206  1
  Fe  Fe49  1  0.37376689  0.87285448  0.14411101  1
  Fe  Fe50  1  0.37190267  0.12574196  0.38245190  1
  Fe  Fe51  1  0.62741197  0.12478089  0.38396964  1
  Fe  Fe52  1  0.37946293  0.62728899  0.88313643  1
  Fe  Fe53  1  0.12492782  0.37651395  0.64567098  1
  Fe  Fe54  1  0.87716284  0.12517812  0.13454807  1
  Fe  Fe55  1  0.62500215  0.37739914  0.63543373  1
  Fe  Fe56  1  0.62555979  0.62308170  0.37819908  1
  Fe  Fe57  1  0.62399255  0.87505209  0.37979885  1
  Fe  Fe58  1  0.12659002  0.62677186  0.88155742  1
  Fe  Fe59  1  0.38006612  0.37563016  0.88113000  1
  Fe  Fe60  1  0.87560731  0.37650318  0.63119218  1
  Fe  Fe61  1  0.12853472  0.12218452  0.64034424  1
  Fe  Fe62  1  0.36941917  0.87446127  0.37944977  1
  Fe  Fe63  1  0.62317657  0.12384515  0.88655450  1
  Pb  Pb64  1  -0.00350855  0.00247264  -0.01217098  1
  Pb  Pb65  1  0.00052759  0.00091443  0.24739723  1
  Pb  Pb66  1  0.00180199  0.00983910  0.50986349  1
  Pb  Pb67  1  -0.00472817  0.00856520  0.75336401  1
  Pb  Pb68  1  -0.00055181  0.24962648  -0.01036412  1
  Pb  Pb69  1  -0.00727916  0.26548809  0.25111442  1
  Pb  Pb70  1  0.00599597  0.26045787  0.50974675  1
  Pb  Pb71  1  -0.00168323  0.24407130  0.74068461  1
  Pb  Pb72  1  0.00452325  0.48782881  -0.00016356  1
  Pb  Pb73  1  -0.00481573  0.49431104  0.25530214  1
  Pb  Pb74  1  -0.00057608  0.49008914  0.50399768  1
  Pb  Pb75  1  0.00578411  0.49797463  0.75179145  1
  Pb  Pb76  1  0.00188135  0.75388892  -0.00588628  1
  Pb  Pb77  1  -0.00323364  0.74311560  0.25201623  1
  Pb  Pb78  1  -0.00064497  0.75211608  0.50101189  1
  Pb  Pb79  1  0.00555164  0.75417528  0.75757837  1
  Pb  Pb80  1  0.25749416  0.00224737  0.00281333  1
  Pb  Pb81  1  0.25838453  0.00339146  0.25286111  1
  Pb  Pb82  1  0.25075876  0.00852327  0.50105316  1
  Pb  Pb83  1  0.24480411  -0.00024764  0.75243494  1
  Pb  Pb84  1  0.24507041  0.25628763  -0.00842255  1
  Pb  Pb85  1  0.25011750  0.26164527  0.25493177  1
  Pb  Pb86  1  0.24917264  0.24305328  0.50217565  1
  Pb  Pb87  1  0.24319435  0.24505455  0.74764083  1
  Pb  Pb88  1  0.24798576  0.49811492  -0.01200797  1
  Pb  Pb89  1  0.24773773  0.49002493  0.25372757  1
  Pb  Pb90  1  0.24306808  0.48957036  0.50539559  1
  Pb  Pb91  1  0.25467841  0.49334903  0.75718272  1
  Pb  Pb92  1  0.25025718  0.74858857  -0.00480207  1
  Pb  Pb93  1  0.25322711  0.75133777  0.24981704  1
  Pb  Pb94  1  0.24771832  0.75061447  0.49934251  1
  Pb  Pb95  1  0.24595358  0.74639007  0.75664199  1
  Pb  Pb96  1  0.49047783  0.00468292  0.01464826  1
  Pb  Pb97  1  0.49546803  0.00806699  0.25347689  1
  Pb  Pb98  1  0.49791953  0.00393384  0.48496849  1
  Pb  Pb99  1  0.50604045  0.00804347  0.74578759  1
  Pb  Pb100  1  0.50703537  0.24413650  -0.00058745  1
  Pb  Pb101  1  0.49592581  0.24226174  0.25306111  1
  Pb  Pb102  1  0.49645726  0.24127963  0.49440473  1
  Pb  Pb103  1  0.51139300  0.24914285  0.74426843  1
  Pb  Pb104  1  0.49728260  0.49672363  -0.00371820  1
  Pb  Pb105  1  0.49815756  0.49855460  0.25279194  1
  Pb  Pb106  1  0.50599283  0.49065250  0.50154837  1
  Pb  Pb107  1  0.49502142  0.49383563  0.75503199  1
  Pb  Pb108  1  0.49651237  0.75747546  0.00795542  1
  Pb  Pb109  1  0.50281669  0.75393068  0.25478225  1
  Pb  Pb110  1  0.49943482  0.75302669  0.48946332  1
  Pb  Pb111  1  0.49466145  0.74753107  0.75065265  1
  Pb  Pb112  1  0.75368411  0.01211286  0.00204585  1
  Pb  Pb113  1  0.74442245  0.00442719  0.25320128  1
  Pb  Pb114  1  0.74666214  0.00829823  0.50156603  1
  Pb  Pb115  1  0.74841677  0.01369609  0.75239103  1
  Pb  Pb116  1  0.74657274  0.23842393  0.00151193  1
  Pb  Pb117  1  0.75297155  0.24593207  0.25020994  1
  Pb  Pb118  1  0.73975564  0.25132892  0.50542925  1
  Pb  Pb119  1  0.75015159  0.24583686  0.73889380  1
  Pb  Pb120  1  0.75546557  0.49443611  0.00353956  1
  Pb  Pb121  1  0.76052308  0.50255745  0.25752457  1
  Pb  Pb122  1  0.75318574  0.49689635  0.49642448  1
  Pb  Pb123  1  0.74438308  0.49117038  0.74859629  1
  Pb  Pb124  1  0.74569908  0.75007053  0.00374033  1
  Pb  Pb125  1  0.74469265  0.75072799  0.25619378  1
  Pb  Pb126  1  0.74619004  0.74608764  0.48995352  1
  Pb  Pb127  1  0.75529681  0.75487510  0.75218810  1
  O  O128  1  0.12043100  -0.01034144  0.15603313  1
  O  O129  1  0.12173397  0.00076442  0.41543029  1
  O  O130  1  0.12952194  -0.01134473  0.66387911  1
  O  O131  1  0.12787092  -0.00086213  0.91317357  1
  O  O132  1  0.12553183  0.24860923  0.15335028  1
  O  O133  1  0.12214355  0.24081231  0.41279275  1
  O  O134  1  0.12783241  0.24968766  0.66251590  1
  O  O135  1  0.12589859  0.24991810  0.90773088  1
  O  O136  1  0.12408710  0.51076744  0.16089878  1
  O  O137  1  0.12540218  0.50831442  0.41112790  1
  O  O138  1  0.12650222  0.50951610  0.66542149  1
  O  O139  1  0.12401564  0.50182481  0.90786129  1
  O  O140  1  0.12148655  0.74486643  0.16604413  1
  O  O141  1  0.12551300  0.74946361  0.41601400  1
  O  O142  1  0.12658216  0.75146011  0.66894771  1
  O  O143  1  0.12616669  0.75127555  0.91613790  1
  O  O144  1  0.37154556  -0.00216103  0.16861567  1
  O  O145  1  0.37111732  -0.00081738  0.40628354  1
  O  O146  1  0.37552597  -0.01259053  0.65808813  1
  O  O147  1  0.38048069  -0.00359852  0.91833776  1
  O  O148  1  0.37140699  0.25716833  0.16185293  1
  O  O149  1  0.37020995  0.25017046  0.41317055  1
  O  O150  1  0.37824600  0.25673266  0.65396954  1
  O  O151  1  0.37897499  0.24292264  0.90751860  1
  O  O152  1  0.37384914  0.49955244  0.16577199  1
  O  O153  1  0.37002996  0.50799685  0.41637895  1
  O  O154  1  0.37674885  0.50593268  0.66520212  1
  O  O155  1  0.38026412  0.50263910  0.91208683  1
  O  O156  1  0.37446728  0.74271433  0.16633453  1
  O  O157  1  0.36774829  0.74155777  0.41269579  1
  O  O158  1  0.37472676  0.75162925  0.66844723  1
  O  O159  1  0.38251523  0.75698602  0.91572474  1
  O  O160  1  0.62816660  -0.00650323  0.16329657  1
  O  O161  1  0.62764450  -0.00187909  0.40766398  1
  O  O162  1  0.62406763  -0.01192848  0.65707669  1
  O  O163  1  0.62425610  -0.00845660  0.91475736  1
  O  O164  1  0.62404773  0.26156657  0.16760441  1
  O  O165  1  0.62759792  0.25595012  0.41209246  1
  O  O166  1  0.62363721  0.25015026  0.65683125  1
  O  O167  1  0.62335964  0.24954933  0.91253982  1
  O  O168  1  0.62189975  0.49322231  0.17109011  1
  O  O169  1  0.62319728  0.49691295  0.41138902  1
  O  O170  1  0.62736899  0.51510641  0.66001175  1
  O  O171  1  0.62603789  0.50873299  0.91364791  1
  O  O172  1  0.62793670  0.74992477  0.16874281  1
  O  O173  1  0.62449528  0.74852944  0.40930405  1
  O  O174  1  0.62630256  0.74863070  0.66671690  1
  O  O175  1  0.62378504  0.74999412  0.92189967  1
  O  O176  1  0.87911744  -0.00550089  0.16513442  1
  O  O177  1  0.87942607  -0.00603827  0.41763824  1
  O  O178  1  0.87607103  -0.01306039  0.65967188  1
  O  O179  1  0.86971309  -0.00359481  0.91159827  1
  O  O180  1  0.87790314  0.25003847  0.16482136  1
  O  O181  1  0.87838904  0.24344625  0.41385704  1
  O  O182  1  0.87414536  0.24997973  0.65593252  1
  O  O183  1  0.87287511  0.25820203  0.90064386  1
  O  O184  1  0.87661078  0.50605006  0.16571905  1
  O  O185  1  0.87840377  0.50282339  0.41617438  1
  O  O186  1  0.87662728  0.51433662  0.66189287  1
  O  O187  1  0.86924609  0.50800083  0.91413971  1
  O  O188  1  0.87508873  0.74803334  0.16867851  1
  O  O189  1  0.88138031  0.75676763  0.41330286  1
  O  O190  1  0.87869522  0.74773647  0.66988459  1
  O  O191  1  0.86704303  0.74254507  0.91603429  1
  O  O192  1  0.00996895  0.12092666  0.16381724  1
  O  O193  1  0.00027803  0.12004200  0.42055083  1
  O  O194  1  0.00011970  0.11719893  0.66136752  1
  O  O195  1  -0.00158063  0.12527615  0.90772448  1
  O  O196  1  0.00139614  0.37937272  0.16541575  1
  O  O197  1  0.00507878  0.37322430  0.41968998  1
  O  O198  1  -0.00318000  0.38123791  0.66665488  1
  O  O199  1  -0.00959469  0.38163470  0.90642972  1
  O  O200  1  -0.00049387  0.62756748  0.16394376  1
  O  O201  1  0.00869876  0.62988291  0.41476771  1
  O  O202  1  0.00192485  0.63066989  0.66564346  1
  O  O203  1  -0.00938901  0.62830481  0.90715125  1
  O  O204  1  0.00205117  0.86796597  0.16568158  1
  O  O205  1  0.00123504  0.87493192  0.42062833  1
  O  O206  1  0.00289134  0.86924236  0.66285506  1
  O  O207  1  -0.00346890  0.87069736  0.91036278  1
  O  O208  1  0.23563281  0.11924984  0.16358144  1
  O  O209  1  0.24044691  0.12182687  0.41003685  1
  O  O210  1  0.25606283  0.12091204  0.66771298  1
  O  O211  1  0.26087120  0.12040932  0.91109586  1
  O  O212  1  0.25371121  0.37887451  0.16236905  1
  O  O213  1  0.24790458  0.37691137  0.42180053  1
  O  O214  1  0.25966348  0.38234238  0.66308467  1
  O  O215  1  0.25360963  0.37453545  0.90874367  1
  O  O216  1  0.24619389  0.62741738  0.15996898  1
  O  O217  1  0.24496291  0.62646650  0.41725951  1
  O  O218  1  0.24687001  0.63052430  0.66533172  1
  O  O219  1  0.25362411  0.63005748  0.91085281  1
  O  O220  1  0.23854048  0.86709519  0.16127440  1
  O  O221  1  0.24318145  0.87309494  0.41485474  1
  O  O222  1  0.25388577  0.86870159  0.66416668  1
  O  O223  1  0.26077555  0.87531944  0.91179845  1
  O  O224  1  0.49987651  0.12649991  0.16710118  1
  O  O225  1  0.50030408  0.12726469  0.40508529  1
  O  O226  1  0.49865543  0.12056768  0.66106481  1
  O  O227  1  0.49520025  0.11964571  0.91850785  1
  O  O228  1  0.49615183  0.37721707  0.16556418  1
  O  O229  1  0.50260789  0.37658829  0.41269786  1
  O  O230  1  0.49532153  0.38347290  0.66216726  1
  O  O231  1  0.50275194  0.37632740  0.91693102  1
  O  O232  1  0.49711601  0.62256276  0.16902437  1
  O  O233  1  0.49152181  0.62527182  0.40573727  1
  O  O234  1  0.50519805  0.63208986  0.66002468  1
  O  O235  1  0.50837486  0.62936680  0.91744920  1
  O  O236  1  0.50708415  0.87108919  0.16515014  1
  O  O237  1  0.49570510  0.87034733  0.40632434  1
  O  O238  1  0.49641109  0.86662454  0.65803693  1
  O  O239  1  0.50356615  0.87393560  0.92257827  1
  O  O240  1  0.75351492  0.12516727  0.16962086  1
  O  O241  1  0.75873222  0.12154504  0.41215317  1
  O  O242  1  0.74818996  0.11833784  0.65986129  1
  O  O243  1  0.74816352  0.12465164  0.91465602  1
  O  O244  1  0.74564486  0.37946372  0.16297760  1
  O  O245  1  0.74477622  0.37645938  0.41253317  1
  O  O246  1  0.75126001  0.38256451  0.66174093  1
  O  O247  1  0.75380395  0.38241066  0.91308595  1
  O  O248  1  0.75527348  0.62363014  0.16824410  1
  O  O249  1  0.75100866  0.62605310  0.40869882  1
  O  O250  1  0.75341604  0.63354169  0.65857113  1
  O  O251  1  0.74547733  0.62761244  0.91974798  1
  O  O252  1  0.75171617  0.87180332  0.16752725  1
  O  O253  1  0.75969893  0.87321846  0.40874612  1
  O  O254  1  0.75209113  0.86532885  0.65706204  1
  O  O255  1  0.74124582  0.86900276  0.91688280  1
  O  O256  1  0.12376062  0.12897761  0.04288015  1
  O  O257  1  0.11656930  0.12209201  0.30036364  1
  O  O258  1  0.13141266  0.11679635  0.53894927  1
  O  O259  1  0.13042311  0.11832462  0.77915006  1
  O  O260  1  0.12132403  0.37902992  0.03341312  1
  O  O261  1  0.13416068  0.37423763  0.28608305  1
  O  O262  1  0.12194774  0.38031940  0.54347474  1
  O  O263  1  0.12963037  0.38207118  0.77671276  1
  O  O264  1  0.12422371  0.62879541  0.04679418  1
  O  O265  1  0.12526911  0.62733712  0.29832134  1
  O  O266  1  0.12399546  0.62870989  0.55515160  1
  O  O267  1  0.12412587  0.63351083  0.78154887  1
  O  O268  1  0.12087461  0.86986821  0.04591710  1
  O  O269  1  0.12194720  0.87635122  0.29754811  1
  O  O270  1  0.12547003  0.86941886  0.55419955  1
  O  O271  1  0.12864311  0.87111568  0.78246520  1
  O  O272  1  0.37272999  0.11536373  0.04178141  1
  O  O273  1  0.36917203  0.12433014  0.27981397  1
  O  O274  1  0.36763180  0.12302340  0.53032050  1
  O  O275  1  0.38337523  0.11955609  0.79808618  1
  O  O276  1  0.37830050  0.37691383  0.05012016  1
  O  O277  1  0.36249220  0.37687104  0.28683542  1
  O  O278  1  0.37690897  0.38306747  0.54792790  1
  O  O279  1  0.38026214  0.38262963  0.78101086  1
  O  O280  1  0.37717293  0.62404857  0.04668822  1
  O  O281  1  0.36663479  0.62133653  0.29741544  1
  O  O282  1  0.37381573  0.62775822  0.55188745  1
  O  O283  1  0.38440801  0.63134651  0.78308534  1
  O  O284  1  0.38059222  0.87824163  0.04321803  1
  O  O285  1  0.36606823  0.86803132  0.27864252  1
  O  O286  1  0.37015229  0.86764921  0.54612405  1
  O  O287  1  0.38371373  0.87784543  0.80263955  1
  O  O288  1  0.63065337  0.13293809  0.04242325  1
  O  O289  1  0.63126702  0.12827209  0.28227735  1
  O  O290  1  0.63041396  0.12556936  0.52802335  1
  O  O291  1  0.62115560  0.11605169  0.78567591  1
  O  O292  1  0.62620301  0.37791763  0.05091953  1
  O  O293  1  0.62390184  0.37569698  0.29852880  1
  O  O294  1  0.62325987  0.38131042  0.53508114  1
  O  O295  1  0.62324130  0.38204219  0.78187593  1
  O  O296  1  0.62565328  0.62041670  0.06034055  1
  O  O297  1  0.62588358  0.62263122  0.27769916  1
  O  O298  1  0.62450579  0.63107753  0.54520380  1
  O  O299  1  0.62616358  0.62884310  0.80126691  1
  O  O300  1  0.62765687  0.87016509  0.05565053  1
  O  O301  1  0.62887819  0.87001582  0.27950655  1
  O  O302  1  0.62267326  0.86688882  0.54158683  1
  O  O303  1  0.62273745  0.87345181  0.80222461  1
  O  O304  1  0.86966768  0.12590724  0.03462293  1
  O  O305  1  0.88385753  0.12105833  0.30605233  1
  O  O306  1  0.87371896  0.11365936  0.53120973  1
  O  O307  1  0.87072136  0.11606348  0.78039592  1
  O  O308  1  0.87610715  0.38355271  0.03427441  1
  O  O309  1  0.88410410  0.37806180  0.29232231  1
  O  O310  1  0.87966020  0.37993889  0.52978528  1
  O  O311  1  0.86675491  0.38483545  0.79538005  1
  O  O312  1  0.87492051  0.62680815  0.05405768  1
  O  O313  1  0.88278614  0.62090703  0.28455291  1
  O  O314  1  0.87774842  0.63184008  0.54795540  1
  O  O315  1  0.86772212  0.62624484  0.79778125  1
  O  O316  1  0.87349996  0.87176659  0.04846409  1
  O  O317  1  0.88306078  0.88056309  0.29905685  1
  O  O318  1  0.87686413  0.86591141  0.55156395  1
  O  O319  1  0.86809148  0.86745261  0.78265809  1
