# generated using pymatgen
data_VFe(PbO3)2
_symmetry_space_group_name_H-M   'P 1'
_cell_length_a   15.39102216
_cell_length_b   15.39739395
_cell_length_c   18.47130837
_cell_angle_alpha   90.04726121
_cell_angle_beta   89.97245515
_cell_angle_gamma   90.00284464
_symmetry_Int_Tables_number   1
_chemical_formula_structural   VFe(PbO3)2
_chemical_formula_sum   'V32 Fe32 Pb64 O192'
_cell_volume   4377.35879424
_cell_formula_units_Z   32
loop_
 _symmetry_equiv_pos_site_id
 _symmetry_equiv_pos_as_xyz
  1  'x, y, z'
loop_
 _atom_site_type_symbol
 _atom_site_label
 _atom_site_symmetry_multiplicity
 _atom_site_fract_x
 _atom_site_fract_y
 _atom_site_fract_z
 _atom_site_occupancy
  V  V0  1  0.87391219  0.87443746  0.14611819  1
  V  V1  1  0.87664400  0.62362696  0.63535407  1
  V  V2  1  0.87110682  0.12388574  0.14160024  1
  V  V3  1  0.37611999  0.37312034  0.39458204  1
  V  V4  1  0.37079026  0.87297303  0.89111720  1
  V  V5  1  0.62378318  0.87240531  0.88543261  1
  V  V6  1  0.37358553  0.12499411  0.63687477  1
  V  V7  1  0.87461430  0.62305245  0.38652310  1
  V  V8  1  0.11958526  0.87404988  0.88937903  1
  V  V9  1  0.12543714  0.12884365  0.63979114  1
  V  V10  1  0.12747737  0.87597192  0.14749206  1
  V  V11  1  0.37541318  0.12462892  0.14413915  1
  V  V12  1  0.87290028  0.12962504  0.39015601  1
  V  V13  1  0.87291095  0.37477743  0.13797121  1
  V  V14  1  0.37790635  0.37703599  0.13802162  1
  V  V15  1  0.87266836  0.37527563  0.39539285  1
  V  V16  1  0.37672986  0.62563590  0.14443657  1
  V  V17  1  0.12302591  0.63565304  0.63780275  1
  V  V18  1  0.62372661  0.37474301  0.13775122  1
  V  V19  1  0.12569036  0.37581460  0.38825575  1
  V  V20  1  0.87833186  0.12575783  0.63859536  1
  V  V21  1  0.62455619  0.87799380  0.14783133  1
  V  V22  1  0.12624428  0.37398116  0.13765501  1
  V  V23  1  0.87696779  0.37443150  0.88581507  1
  V  V24  1  0.12201498  0.38519937  0.64564159  1
  V  V25  1  0.62494779  0.12549785  0.14012393  1
  V  V26  1  0.62425239  0.37465593  0.39795224  1
  V  V27  1  0.62459100  0.62508415  0.14431605  1
  V  V28  1  0.62339702  0.62840239  0.88434835  1
  V  V29  1  0.62444394  0.12648460  0.39872670  1
  V  V30  1  0.12403375  0.88356840  0.63461570  1
  V  V31  1  0.37434610  0.62295801  0.39246651  1
  Fe  Fe32  1  0.87457361  0.12074118  0.88240707  1
  Fe  Fe33  1  0.37014478  0.37349318  0.64352335  1
  Fe  Fe34  1  0.87117813  0.62500300  0.13783305  1
  Fe  Fe35  1  0.12464777  0.87424869  0.37914741  1
  Fe  Fe36  1  0.12481902  0.62038347  0.38180454  1
  Fe  Fe37  1  0.37874548  0.87222164  0.15006503  1
  Fe  Fe38  1  0.36919731  0.87699992  0.62678804  1
  Fe  Fe39  1  0.87453665  0.87582305  0.38772355  1
  Fe  Fe40  1  0.37564326  0.62931753  0.88057544  1
  Fe  Fe41  1  0.62447808  0.87486624  0.62479004  1
  Fe  Fe42  1  0.12419438  0.12995649  0.37735118  1
  Fe  Fe43  1  0.62643761  0.87455921  0.39602816  1
  Fe  Fe44  1  0.87332819  0.87346357  0.88208071  1
  Fe  Fe45  1  0.88252485  0.37461151  0.63635698  1
  Fe  Fe46  1  0.37479345  0.87798134  0.38183725  1
  Fe  Fe47  1  0.37590339  0.13126194  0.38468220  1
  Fe  Fe48  1  0.12628138  0.12116635  0.88736826  1
  Fe  Fe49  1  0.62316892  0.12107307  0.87580271  1
  Fe  Fe50  1  0.62620814  0.12306459  0.63599648  1
  Fe  Fe51  1  0.37487539  0.37661656  0.87602035  1
  Fe  Fe52  1  0.12561115  0.62844134  0.88610312  1
  Fe  Fe53  1  0.62382710  0.62036170  0.40166915  1
  Fe  Fe54  1  0.12426750  0.37486521  0.88177838  1
  Fe  Fe55  1  0.62783760  0.37735790  0.87441301  1
  Fe  Fe56  1  0.12476743  0.62441117  0.14291723  1
  Fe  Fe57  1  0.37654617  0.12139619  0.88152042  1
  Fe  Fe58  1  0.62774402  0.37556379  0.64247160  1
  Fe  Fe59  1  0.12218891  0.12385340  0.14679159  1
  Fe  Fe60  1  0.87431570  0.62812827  0.88780344  1
  Fe  Fe61  1  0.88187426  0.87575391  0.63134582  1
  Fe  Fe62  1  0.62429434  0.62621264  0.62371540  1
  Fe  Fe63  1  0.37036505  0.62583765  0.63356517  1
  Pb  Pb64  1  0.00227833  0.00535436  0.00259693  1
  Pb  Pb65  1  -0.00313325  -0.00697571  0.25566568  1
  Pb  Pb66  1  0.00070147  -0.00293701  0.49248868  1
  Pb  Pb67  1  -0.00357375  0.00582828  0.75397294  1
  Pb  Pb68  1  0.00844251  0.24092057  -0.00184922  1
  Pb  Pb69  1  0.00227179  0.24812982  0.25016112  1
  Pb  Pb70  1  -0.00351243  0.25464669  0.50201366  1
  Pb  Pb71  1  0.00607145  0.24663916  0.75563352  1
  Pb  Pb72  1  0.00403522  0.50820082  -0.00237343  1
  Pb  Pb73  1  -0.00058762  0.50401176  0.24713335  1
  Pb  Pb74  1  -0.00428301  0.49595837  0.50118472  1
  Pb  Pb75  1  0.00307713  0.51448337  0.75875608  1
  Pb  Pb76  1  -0.00314491  0.74112751  0.00485229  1
  Pb  Pb77  1  0.00286055  0.74943985  0.25159606  1
  Pb  Pb78  1  0.00004994  0.75456881  0.49074894  1
  Pb  Pb79  1  -0.00713948  0.74834981  0.75474610  1
  Pb  Pb80  1  0.24989798  0.00292134  0.00487779  1
  Pb  Pb81  1  0.25110632  -0.00665161  0.25772013  1
  Pb  Pb82  1  0.24988149  0.00169801  0.48432303  1
  Pb  Pb83  1  0.25120927  0.01006314  0.75242348  1
  Pb  Pb84  1  0.25242078  0.24970321  -0.01026260  1
  Pb  Pb85  1  0.25214396  0.24327869  0.25155325  1
  Pb  Pb86  1  0.25293435  0.25233113  0.50011853  1
  Pb  Pb87  1  0.24928905  0.25719980  0.75763189  1
  Pb  Pb88  1  0.24827715  0.50291821  -0.01036039  1
  Pb  Pb89  1  0.24901233  0.50113940  0.25135404  1
  Pb  Pb90  1  0.25652623  0.49935290  0.50792042  1
  Pb  Pb91  1  0.25845906  0.50346372  0.75502416  1
  Pb  Pb92  1  0.24584245  0.74397838  0.00534199  1
  Pb  Pb93  1  0.24541799  0.75274953  0.25697341  1
  Pb  Pb94  1  0.25333364  0.75308700  0.49250657  1
  Pb  Pb95  1  0.25249445  0.74520230  0.74768466  1
  Pb  Pb96  1  0.49539199  -0.00490998  0.00109344  1
  Pb  Pb97  1  0.49355010  -0.00007727  0.26011472  1
  Pb  Pb98  1  0.49391761  -0.00811921  0.49850483  1
  Pb  Pb99  1  0.50056497  0.00182900  0.74070265  1
  Pb  Pb100  1  0.50165761  0.24998692  -0.01731002  1
  Pb  Pb101  1  0.49585091  0.24786589  0.25270707  1
  Pb  Pb102  1  0.50996283  0.25314219  0.51328934  1
  Pb  Pb103  1  0.50657363  0.25019626  0.74681686  1
  Pb  Pb104  1  0.49822118  0.49810946  -0.01297111  1
  Pb  Pb105  1  0.50569142  0.50505114  0.25785049  1
  Pb  Pb106  1  0.48644445  0.49727096  0.51441216  1
  Pb  Pb107  1  0.49774827  0.49885853  0.73809812  1
  Pb  Pb108  1  0.49384239  0.75741519  0.00500966  1
  Pb  Pb109  1  0.51477239  0.74990766  0.26491745  1
  Pb  Pb110  1  0.49800750  0.75557080  0.49827058  1
  Pb  Pb111  1  0.49673562  0.74921947  0.73008604  1
  Pb  Pb112  1  0.75095694  0.00030238  -0.00753112  1
  Pb  Pb113  1  0.74750973  -0.00924005  0.26163199  1
  Pb  Pb114  1  0.75137630  -0.00710069  0.50434506  1
  Pb  Pb115  1  0.75270646  -0.00258440  0.74089766  1
  Pb  Pb116  1  0.74643227  0.24861821  -0.01298266  1
  Pb  Pb117  1  0.74715445  0.25137043  0.25000434  1
  Pb  Pb118  1  0.74275224  0.25162921  0.51355736  1
  Pb  Pb119  1  0.74578395  0.24853117  0.74684626  1
  Pb  Pb120  1  0.75464831  0.50480174  -0.00409783  1
  Pb  Pb121  1  0.74323151  0.50565211  0.25454748  1
  Pb  Pb122  1  0.74222185  0.49513287  0.50944281  1
  Pb  Pb123  1  0.74845946  0.49820279  0.74274014  1
  Pb  Pb124  1  0.75426696  0.74723386  0.00044312  1
  Pb  Pb125  1  0.74707368  0.75682617  0.26153601  1
  Pb  Pb126  1  0.74359616  0.75254469  0.49922600  1
  Pb  Pb127  1  0.75590371  0.75775400  0.73886135  1
  O  O128  1  0.12462629  -0.00542180  0.16822947  1
  O  O129  1  0.12332762  0.00459796  0.40161906  1
  O  O130  1  0.12247314  -0.00044024  0.65898519  1
  O  O131  1  0.12909985  -0.01099907  0.92069329  1
  O  O132  1  0.12511215  0.25828277  0.16436847  1
  O  O133  1  0.12235727  0.25884590  0.41374137  1
  O  O134  1  0.12299593  0.24216104  0.66238299  1
  O  O135  1  0.12361689  0.24858931  0.91435366  1
  O  O136  1  0.12714970  0.49083286  0.16395934  1
  O  O137  1  0.12434530  0.49201281  0.41433529  1
  O  O138  1  0.12071940  0.50031996  0.65938786  1
  O  O139  1  0.12258862  0.50062887  0.91149195  1
  O  O140  1  0.12525867  0.75420468  0.16760660  1
  O  O141  1  0.12344972  0.74541567  0.40785147  1
  O  O142  1  0.12370911  0.75087579  0.65492797  1
  O  O143  1  0.12828794  0.76038228  0.91953933  1
  O  O144  1  0.37915631  0.00806558  0.16722923  1
  O  O145  1  0.37665485  0.00576141  0.40686966  1
  O  O146  1  0.36796418  0.00527291  0.65840720  1
  O  O147  1  0.37807655  -0.01055677  0.91826951  1
  O  O148  1  0.37968105  0.25063947  0.16490142  1
  O  O149  1  0.37690471  0.25578312  0.42050712  1
  O  O150  1  0.36614459  0.24007092  0.66186074  1
  O  O151  1  0.37642220  0.24956854  0.90660406  1
  O  O152  1  0.37823541  0.50083071  0.16875695  1
  O  O153  1  0.37372774  0.49427491  0.42006757  1
  O  O154  1  0.36594549  0.50135054  0.66355468  1
  O  O155  1  0.37675416  0.50408015  0.90870849  1
  O  O156  1  0.37901955  0.74001945  0.16981813  1
  O  O157  1  0.37384893  0.74200594  0.40455884  1
  O  O158  1  0.36490655  0.75241030  0.65731126  1
  O  O159  1  0.37861715  0.75602800  0.91780649  1
  O  O160  1  0.62567994  -0.00145458  0.16821167  1
  O  O161  1  0.62890796  0.01034501  0.41357638  1
  O  O162  1  0.62673789  -0.00178272  0.65637090  1
  O  O163  1  0.62174616  -0.01137234  0.90885720  1
  O  O164  1  0.62427226  0.25022695  0.16596281  1
  O  O165  1  0.62755614  0.25348470  0.42285053  1
  O  O166  1  0.62706617  0.24729920  0.66483636  1
  O  O167  1  0.62651729  0.25045787  0.90344281  1
  O  O168  1  0.62342848  0.49817858  0.16893688  1
  O  O169  1  0.62758972  0.48971255  0.41915029  1
  O  O170  1  0.62968754  0.50477298  0.65895107  1
  O  O171  1  0.62732915  0.50959575  0.90560280  1
  O  O172  1  0.62470927  0.75124080  0.17152221  1
  O  O173  1  0.62676575  0.74645758  0.41378960  1
  O  O174  1  0.62735704  0.74946325  0.65279141  1
  O  O175  1  0.62285443  0.75110803  0.91567356  1
  O  O176  1  0.87109082  0.00034589  0.17045172  1
  O  O177  1  0.87288334  0.01258683  0.41046111  1
  O  O178  1  0.88206277  0.00513253  0.65987186  1
  O  O179  1  0.87256774  -0.00491708  0.91673260  1
  O  O180  1  0.87146186  0.25185432  0.16744023  1
  O  O181  1  0.87472257  0.25098184  0.41973033  1
  O  O182  1  0.88383095  0.24231182  0.66233557  1
  O  O183  1  0.87349802  0.25497050  0.90935216  1
  O  O184  1  0.87197819  0.49302869  0.16564353  1
  O  O185  1  0.87562305  0.49701331  0.41754314  1
  O  O186  1  0.88559104  0.50718660  0.66194214  1
  O  O187  1  0.87328887  0.49619452  0.91306659  1
  O  O188  1  0.87145911  0.75420845  0.16767693  1
  O  O189  1  0.87721641  0.74099094  0.40369286  1
  O  O190  1  0.88495980  0.74286113  0.65831928  1
  O  O191  1  0.87270717  0.75355042  0.92043500  1
  O  O192  1  -0.00905529  0.12648822  0.16892698  1
  O  O193  1  -0.00757951  0.13221511  0.40815619  1
  O  O194  1  0.00470170  0.12166479  0.66512207  1
  O  O195  1  -0.00035464  0.11966450  0.91753144  1
  O  O196  1  0.00243618  0.37425968  0.16117971  1
  O  O197  1  0.00297686  0.37497390  0.41353738  1
  O  O198  1  0.00676976  0.36970572  0.67046139  1
  O  O199  1  -0.00789603  0.37532063  0.91271144  1
  O  O200  1  -0.00284876  0.62278069  0.16548342  1
  O  O201  1  -0.00644858  0.61757971  0.41021000  1
  O  O202  1  0.00540953  0.62513861  0.66532709  1
  O  O203  1  0.00029801  0.62986928  0.91830238  1
  O  O204  1  -0.00014067  0.87596820  0.16815847  1
  O  O205  1  -0.00010459  0.87690564  0.40886002  1
  O  O206  1  0.00987779  0.87390592  0.66277448  1
  O  O207  1  0.00535033  0.87474289  0.90789280  1
  O  O208  1  0.25777095  0.12903501  0.16162805  1
  O  O209  1  0.24861488  0.13400440  0.40859860  1
  O  O210  1  0.24370953  0.12049237  0.66185961  1
  O  O211  1  0.25233947  0.11804869  0.91775329  1
  O  O212  1  0.25040542  0.37420649  0.16231089  1
  O  O213  1  0.24578314  0.37374172  0.41267874  1
  O  O214  1  0.23773658  0.36969060  0.66606341  1
  O  O215  1  0.25049535  0.37541218  0.91126270  1
  O  O216  1  0.25884125  0.62143462  0.16547278  1
  O  O217  1  0.25470711  0.61780653  0.41199136  1
  O  O218  1  0.23728417  0.62376319  0.66166562  1
  O  O219  1  0.25155400  0.63141676  0.91565615  1
  O  O220  1  0.24727754  0.87500118  0.16519684  1
  O  O221  1  0.24967690  0.87407508  0.40594304  1
  O  O222  1  0.23837554  0.87608831  0.66050158  1
  O  O223  1  0.25498719  0.87367412  0.91481376  1
  O  O224  1  0.50224459  0.12621396  0.16995282  1
  O  O225  1  0.50777026  0.13254024  0.41559276  1
  O  O226  1  0.49116278  0.12399513  0.65415694  1
  O  O227  1  0.50117041  0.11992743  0.91282107  1
  O  O228  1  0.50042872  0.37540173  0.16726154  1
  O  O229  1  0.50424190  0.37387430  0.41837975  1
  O  O230  1  0.49778567  0.37378097  0.65981442  1
  O  O231  1  0.50295832  0.37906293  0.90477169  1
  O  O232  1  0.49989644  0.62250882  0.17462904  1
  O  O233  1  0.49019848  0.61725559  0.41761323  1
  O  O234  1  0.49858748  0.62514962  0.65015052  1
  O  O235  1  0.50685075  0.62907639  0.90951952  1
  O  O236  1  0.50927076  0.87511717  0.17313578  1
  O  O237  1  0.49852282  0.87507270  0.40962992  1
  O  O238  1  0.49594748  0.87577514  0.65277926  1
  O  O239  1  0.50147603  0.87147445  0.91590924  1
  O  O240  1  0.74683800  0.12687699  0.17072659  1
  O  O241  1  0.75258530  0.13257625  0.41939476  1
  O  O242  1  0.76071979  0.12399501  0.65541319  1
  O  O243  1  0.74756841  0.12092798  0.91168023  1
  O  O244  1  0.74647119  0.37401550  0.16629685  1
  O  O245  1  0.74818052  0.37238930  0.41921385  1
  O  O246  1  0.75947582  0.37548493  0.66240992  1
  O  O247  1  0.75514004  0.37708841  0.91034041  1
  O  O248  1  0.74452203  0.62272902  0.16976334  1
  O  O249  1  0.76144898  0.61819049  0.41455183  1
  O  O250  1  0.76108286  0.62575441  0.65228016  1
  O  O251  1  0.74230796  0.62990722  0.91383166  1
  O  O252  1  0.74482360  0.87530022  0.17145080  1
  O  O253  1  0.75341885  0.87794400  0.41729410  1
  O  O254  1  0.75514368  0.87385165  0.65381788  1
  O  O255  1  0.74019440  0.87142670  0.91001578  1
  O  O256  1  0.11635616  0.11992243  0.04611014  1
  O  O257  1  0.12462473  0.13740654  0.27519427  1
  O  O258  1  0.12400880  0.12709616  0.54853726  1
  O  O259  1  0.12373952  0.11599682  0.78686160  1
  O  O260  1  0.12583534  0.37343207  0.04686293  1
  O  O261  1  0.12567391  0.37568799  0.29689682  1
  O  O262  1  0.12037931  0.37495360  0.55388397  1
  O  O263  1  0.12468909  0.36712318  0.78173625  1
  O  O264  1  0.12624882  0.62942554  0.04251274  1
  O  O265  1  0.12846932  0.61739433  0.28082012  1
  O  O266  1  0.12143984  0.62807146  0.54672219  1
  O  O267  1  0.11901401  0.63190405  0.78570741  1
  O  O268  1  0.12375672  0.87441781  0.05601821  1
  O  O269  1  0.12715962  0.87146962  0.27792896  1
  O  O270  1  0.12200583  0.88178050  0.54266446  1
  O  O271  1  0.12672583  0.87509264  0.79833418  1
  O  O272  1  0.38143801  0.12390543  0.05307168  1
  O  O273  1  0.38025521  0.13509157  0.28400972  1
  O  O274  1  0.36796705  0.12703724  0.54527779  1
  O  O275  1  0.37190643  0.11195040  0.78192382  1
  O  O276  1  0.38004405  0.37885890  0.04740914  1
  O  O277  1  0.37723827  0.37366223  0.30292357  1
  O  O278  1  0.36627866  0.37957484  0.54062108  1
  O  O279  1  0.36546751  0.37578453  0.77451957  1
  O  O280  1  0.38229185  0.62544681  0.05343283  1
  O  O281  1  0.37597081  0.61261506  0.30097912  1
  O  O282  1  0.36570408  0.61666341  0.53207464  1
  O  O283  1  0.36590296  0.63109152  0.78038230  1
  O  O284  1  0.38773409  0.87364224  0.04950950  1
  O  O285  1  0.37378221  0.88196447  0.27770359  1
  O  O286  1  0.37086061  0.87592410  0.52588324  1
  O  O287  1  0.37279840  0.87391522  0.80014383  1
  O  O288  1  0.62493224  0.12375656  0.04950720  1
  O  O289  1  0.62894667  0.13339450  0.30727453  1
  O  O290  1  0.62693006  0.13613425  0.53454372  1
  O  O291  1  0.62227173  0.11950315  0.77516613  1
  O  O292  1  0.62459531  0.37680908  0.04694013  1
  O  O293  1  0.62567927  0.37127501  0.30646726  1
  O  O294  1  0.62912303  0.36880975  0.53956776  1
  O  O295  1  0.63107807  0.37713832  0.77395427  1
  O  O296  1  0.62102962  0.62517740  0.05353396  1
  O  O297  1  0.62102544  0.61574488  0.29800635  1
  O  O298  1  0.63324677  0.62023569  0.52204626  1
  O  O299  1  0.62658858  0.63293973  0.79390848  1
  O  O300  1  0.62550424  0.87504276  0.05676158  1
  O  O301  1  0.63371029  0.87251479  0.29270212  1
  O  O302  1  0.62462892  0.87655604  0.52215524  1
  O  O303  1  0.62213101  0.86909763  0.79454673  1
  O  O304  1  0.86963094  0.12271254  0.05049983  1
  O  O305  1  0.86722828  0.13449020  0.29899112  1
  O  O306  1  0.88476791  0.12618095  0.54705122  1
  O  O307  1  0.88072593  0.11721652  0.78285183  1
  O  O308  1  0.87112609  0.37398544  0.04735480  1
  O  O309  1  0.87262621  0.37446922  0.30414383  1
  O  O310  1  0.88896276  0.37498016  0.53550638  1
  O  O311  1  0.87791061  0.37614828  0.79476951  1
  O  O312  1  0.86711095  0.62551737  0.03741190  1
  O  O313  1  0.87277835  0.61507407  0.29477890  1
  O  O314  1  0.88359606  0.62186718  0.54415509  1
  O  O315  1  0.88458961  0.62814838  0.78762742  1
  O  O316  1  0.87173086  0.87766496  0.05495585  1
  O  O317  1  0.86838200  0.88101523  0.28605170  1
  O  O318  1  0.88563252  0.87957556  0.53029375  1
  O  O319  1  0.87316188  0.86806000  0.78148784  1
