# generated using pymatgen
data_VFe(PbO3)2
_symmetry_space_group_name_H-M   'P 1'
_cell_length_a   15.37879675
_cell_length_b   15.37632409
_cell_length_c   18.56106285
_cell_angle_alpha   89.97977277
_cell_angle_beta   89.97543919
_cell_angle_gamma   89.98599841
_symmetry_Int_Tables_number   1
_chemical_formula_structural   VFe(PbO3)2
_chemical_formula_sum   'V32 Fe32 Pb64 O192'
_cell_volume   4389.12190107
_cell_formula_units_Z   32
loop_
 _symmetry_equiv_pos_site_id
 _symmetry_equiv_pos_as_xyz
  1  'x, y, z'
loop_
 _atom_site_type_symbol
 _atom_site_label
 _atom_site_symmetry_multiplicity
 _atom_site_fract_x
 _atom_site_fract_y
 _atom_site_fract_z
 _atom_site_occupancy
  V  V0  1  0.12364272  0.62412117  0.89039924  1
  V  V1  1  0.87494110  0.12668942  0.14620271  1
  V  V2  1  0.12193096  0.37312101  0.63885354  1
  V  V3  1  0.87372565  0.38004938  0.14582098  1
  V  V4  1  0.87561753  0.37016899  0.63518620  1
  V  V5  1  0.87203792  0.62879534  0.14341617  1
  V  V6  1  0.87389496  0.12604025  0.63922864  1
  V  V7  1  0.87423433  0.87495787  0.88948282  1
  V  V8  1  0.37530221  0.62276653  0.88596036  1
  V  V9  1  0.62490518  0.62333583  0.39390421  1
  V  V10  1  0.12437183  0.37612531  0.89624733  1
  V  V11  1  0.37450700  0.37421628  0.38802867  1
  V  V12  1  0.87869894  0.87918937  0.63460422  1
  V  V13  1  0.37601696  0.87249274  0.13988567  1
  V  V14  1  0.12532098  0.87419030  0.88811745  1
  V  V15  1  0.62746657  0.12703020  0.89051099  1
  V  V16  1  0.62025599  0.37222046  0.63572054  1
  V  V17  1  0.87078827  0.87512283  0.14010069  1
  V  V18  1  0.12666831  0.62373882  0.38948698  1
  V  V19  1  0.37253338  0.87748491  0.63883975  1
  V  V20  1  0.62690718  0.87121505  0.14263243  1
  V  V21  1  0.37801188  0.37534372  0.89713371  1
  V  V22  1  0.87399523  0.37636592  0.89286725  1
  V  V23  1  0.37276752  0.12234113  0.38458483  1
  V  V24  1  0.12673852  0.12608990  0.38239543  1
  V  V25  1  0.37449718  0.62579528  0.39150849  1
  V  V26  1  0.62237504  0.62736667  0.14376046  1
  V  V27  1  0.12543743  0.12541809  0.64259084  1
  V  V28  1  0.87503529  0.87527705  0.38855718  1
  V  V29  1  0.62690648  0.62128385  0.88556434  1
  V  V30  1  0.36998264  0.62826919  0.13953637  1
  V  V31  1  0.11870238  0.87062467  0.14158843  1
  Fe  Fe32  1  0.87577852  0.62869145  0.39579742  1
  Fe  Fe33  1  0.37412212  0.87464929  0.38557571  1
  Fe  Fe34  1  0.87500302  0.62124933  0.88505463  1
  Fe  Fe35  1  0.12385284  0.37829342  0.13746140  1
  Fe  Fe36  1  0.62260428  0.12538500  0.37787149  1
  Fe  Fe37  1  0.12908935  0.87593448  0.38864807  1
  Fe  Fe38  1  0.37508553  0.12460654  0.89666627  1
  Fe  Fe39  1  0.12073310  0.12506412  0.89761305  1
  Fe  Fe40  1  0.62473141  0.62373512  0.63006459  1
  Fe  Fe41  1  0.36972610  0.37091462  0.63451299  1
  Fe  Fe42  1  0.37604742  0.12821167  0.63650551  1
  Fe  Fe43  1  0.62082556  0.87505869  0.38856352  1
  Fe  Fe44  1  0.37652721  0.87257510  0.88334692  1
  Fe  Fe45  1  0.12150782  0.62902044  0.13604212  1
  Fe  Fe46  1  0.12342212  0.88011430  0.63470215  1
  Fe  Fe47  1  0.12883413  0.37472774  0.38010750  1
  Fe  Fe48  1  0.62647396  0.87768537  0.63519569  1
  Fe  Fe49  1  0.37496019  0.62123277  0.63473956  1
  Fe  Fe50  1  0.62275017  0.37612261  0.37963644  1
  Fe  Fe51  1  0.37674315  0.37763495  0.13007760  1
  Fe  Fe52  1  0.37533715  0.12337482  0.12748569  1
  Fe  Fe53  1  0.87810369  0.37490661  0.37951276  1
  Fe  Fe54  1  0.62595825  0.12684309  0.63287875  1
  Fe  Fe55  1  0.87727086  0.12202101  0.37738019  1
  Fe  Fe56  1  0.87620492  0.62487175  0.62546457  1
  Fe  Fe57  1  0.12533950  0.62663989  0.63197274  1
  Fe  Fe58  1  0.62647292  0.37778778  0.14398776  1
  Fe  Fe59  1  0.87383430  0.12879068  0.88858683  1
  Fe  Fe60  1  0.62492795  0.12261751  0.14405035  1
  Fe  Fe61  1  0.62645930  0.37473948  0.88618478  1
  Fe  Fe62  1  0.62744158  0.87390781  0.88005040  1
  Fe  Fe63  1  0.12495383  0.12272397  0.13029767  1
  Pb  Pb64  1  -0.00132870  0.00373659  0.00214050  1
  Pb  Pb65  1  -0.00261018  0.00130326  0.25123901  1
  Pb  Pb66  1  0.00485647  -0.00495231  0.49694060  1
  Pb  Pb67  1  -0.00012879  0.01251570  0.75670461  1
  Pb  Pb68  1  0.00296596  0.25092539  0.00597786  1
  Pb  Pb69  1  -0.00010874  0.25255550  0.24856595  1
  Pb  Pb70  1  -0.00115261  0.25270137  0.48860077  1
  Pb  Pb71  1  0.00036812  0.24139392  0.75807918  1
  Pb  Pb72  1  0.00760194  0.50034149  0.00677231  1
  Pb  Pb73  1  -0.00107261  0.49613074  0.25412956  1
  Pb  Pb74  1  0.00069944  0.50352635  0.49527573  1
  Pb  Pb75  1  -0.00554940  0.50516457  0.74601402  1
  Pb  Pb76  1  0.00104570  0.74514810  -0.00001580  1
  Pb  Pb77  1  -0.00664299  0.74400233  0.25759978  1
  Pb  Pb78  1  0.00707944  0.74864170  0.50201443  1
  Pb  Pb79  1  -0.00233215  0.74539420  0.74147486  1
  Pb  Pb80  1  0.25270875  0.00541868  -0.00144617  1
  Pb  Pb81  1  0.24921812  -0.00712035  0.24650507  1
  Pb  Pb82  1  0.25012044  -0.00380775  0.49980942  1
  Pb  Pb83  1  0.26196903  0.00270874  0.75720849  1
  Pb  Pb84  1  0.24949340  0.24512834  0.00536629  1
  Pb  Pb85  1  0.24844671  0.25021382  0.23376120  1
  Pb  Pb86  1  0.26058438  0.24890967  0.50121276  1
  Pb  Pb87  1  0.25077190  0.23999214  0.75772795  1
  Pb  Pb88  1  0.24867447  0.49308215  0.00675399  1
  Pb  Pb89  1  0.24124926  0.49470120  0.24654871  1
  Pb  Pb90  1  0.25659145  0.49953470  0.50290716  1
  Pb  Pb91  1  0.25057868  0.50064294  0.74521929  1
  Pb  Pb92  1  0.24531711  0.74203225  -0.00114330  1
  Pb  Pb93  1  0.24936420  0.76059096  0.25784497  1
  Pb  Pb94  1  0.24602968  0.74597326  0.50298896  1
  Pb  Pb95  1  0.25047954  0.75321049  0.74336739  1
  Pb  Pb96  1  0.49917937  -0.00004720  -0.00328579  1
  Pb  Pb97  1  0.50606005  -0.00069745  0.25097790  1
  Pb  Pb98  1  0.50741751  0.00372815  0.49893688  1
  Pb  Pb99  1  0.49978605  -0.00037928  0.74743054  1
  Pb  Pb100  1  0.50358854  0.24246754  0.00849123  1
  Pb  Pb101  1  0.49912970  0.24661994  0.23915502  1
  Pb  Pb102  1  0.49773617  0.24404507  0.49641433  1
  Pb  Pb103  1  0.49203251  0.24161081  0.75217760  1
  Pb  Pb104  1  0.50059179  0.49252098  0.00399370  1
  Pb  Pb105  1  0.50319009  0.49493288  0.25043231  1
  Pb  Pb106  1  0.49594103  0.50462149  0.50298426  1
  Pb  Pb107  1  0.50193601  0.49732497  0.74389393  1
  Pb  Pb108  1  0.50006590  0.75017664  -0.00775843  1
  Pb  Pb109  1  0.50064282  0.76002618  0.25866305  1
  Pb  Pb110  1  0.50367751  0.75188619  0.50359634  1
  Pb  Pb111  1  0.50384941  0.75556777  0.74313704  1
  Pb  Pb112  1  0.74231677  0.00674835  0.00231326  1
  Pb  Pb113  1  0.74428199  0.00124348  0.25590741  1
  Pb  Pb114  1  0.74015315  0.00675671  0.49443328  1
  Pb  Pb115  1  0.74626404  -0.00084699  0.74639844  1
  Pb  Pb116  1  0.73696674  0.25042794  0.01073019  1
  Pb  Pb117  1  0.74241187  0.24860768  0.25439256  1
  Pb  Pb118  1  0.74654013  0.24654956  0.48288273  1
  Pb  Pb119  1  0.74576629  0.25604775  0.75103605  1
  Pb  Pb120  1  0.74559348  0.49340568  0.00402692  1
  Pb  Pb121  1  0.75428939  0.49567462  0.25930724  1
  Pb  Pb122  1  0.75547199  0.49849501  0.49320600  1
  Pb  Pb123  1  0.75491553  0.50536412  0.74364316  1
  Pb  Pb124  1  0.75096103  0.74909413  -0.00488698  1
  Pb  Pb125  1  0.75420432  0.74557893  0.25973648  1
  Pb  Pb126  1  0.74016394  0.75394637  0.50352389  1
  Pb  Pb127  1  0.74887058  0.74959271  0.74046666  1
  O  O128  1  0.12716100  -0.01149922  0.16190217  1
  O  O129  1  0.13179254  0.00937446  0.41259131  1
  O  O130  1  0.12169765  0.00889700  0.66529243  1
  O  O131  1  0.11957115  -0.01105353  0.91530684  1
  O  O132  1  0.12198691  0.24906375  0.15688659  1
  O  O133  1  0.12898041  0.24277932  0.40588080  1
  O  O134  1  0.12067238  0.24703646  0.66885854  1
  O  O135  1  0.12261822  0.25899810  0.91833685  1
  O  O136  1  0.12179417  0.50623317  0.16487075  1
  O  O137  1  0.12915938  0.50577207  0.41030612  1
  O  O138  1  0.12179025  0.49065141  0.65938981  1
  O  O139  1  0.12290543  0.49974700  0.91779715  1
  O  O140  1  0.12526496  0.75492510  0.16921130  1
  O  O141  1  0.13143798  0.74409226  0.41300459  1
  O  O142  1  0.12321273  0.75402672  0.66285235  1
  O  O143  1  0.12087393  0.75299812  0.91487157  1
  O  O144  1  0.37547672  -0.01215620  0.15542039  1
  O  O145  1  0.37179934  0.00766174  0.40627446  1
  O  O146  1  0.37288693  -0.00093586  0.66456718  1
  O  O147  1  0.37574225  -0.00450066  0.91706803  1
  O  O148  1  0.37544105  0.25067326  0.15358656  1
  O  O149  1  0.37252308  0.25187036  0.40847352  1
  O  O150  1  0.37101412  0.25132623  0.67316371  1
  O  O151  1  0.37325284  0.25950232  0.91709131  1
  O  O152  1  0.37950061  0.51392321  0.16292238  1
  O  O153  1  0.37328076  0.49974407  0.41367682  1
  O  O154  1  0.37249768  0.49332205  0.66795023  1
  O  O155  1  0.37341915  0.50144308  0.91793021  1
  O  O156  1  0.37925489  0.74573313  0.16932327  1
  O  O157  1  0.37335109  0.74119830  0.41285559  1
  O  O158  1  0.37329277  0.75677418  0.65883443  1
  O  O159  1  0.37513579  0.74369888  0.91343526  1
  O  O160  1  0.62485398  -0.00904599  0.16436182  1
  O  O161  1  0.62097332  0.00174845  0.41209649  1
  O  O162  1  0.62789673  0.00214987  0.66433804  1
  O  O163  1  0.62827615  0.00582846  0.91070360  1
  O  O164  1  0.62918168  0.25036414  0.16488513  1
  O  O165  1  0.62130829  0.25053502  0.40400811  1
  O  O166  1  0.63180081  0.25712130  0.66255818  1
  O  O167  1  0.62754521  0.24715595  0.91829008  1
  O  O168  1  0.63110081  0.51140383  0.16772077  1
  O  O169  1  0.62102713  0.50465755  0.41333854  1
  O  O170  1  0.62925782  0.48979586  0.65995903  1
  O  O171  1  0.62483181  0.50464604  0.91460633  1
  O  O172  1  0.62721543  0.74678633  0.17169914  1
  O  O173  1  0.62054885  0.74462129  0.41592674  1
  O  O174  1  0.62687949  0.75067390  0.66068311  1
  O  O175  1  0.62659077  0.74029882  0.90925186  1
  O  O176  1  0.87659030  -0.00513268  0.16632131  1
  O  O177  1  0.87818139  -0.00616937  0.41108258  1
  O  O178  1  0.87639021  0.00098070  0.66391175  1
  O  O179  1  0.87364087  -0.00797374  0.91516621  1
  O  O180  1  0.87640246  0.24705927  0.16242864  1
  O  O181  1  0.87911604  0.24724694  0.40701541  1
  O  O182  1  0.87888119  0.25334814  0.66533129  1
  O  O183  1  0.87693208  0.26006783  0.91836169  1
  O  O184  1  0.87289532  0.50091341  0.16452453  1
  O  O185  1  0.87749538  0.50079447  0.41175455  1
  O  O186  1  0.88039591  0.48952552  0.65657402  1
  O  O187  1  0.87680106  0.49418320  0.91990663  1
  O  O188  1  0.87359208  0.75346617  0.17201609  1
  O  O189  1  0.87774778  0.76003525  0.41784392  1
  O  O190  1  0.87747463  0.75769065  0.65297728  1
  O  O191  1  0.87304188  0.75281186  0.91396050  1
  O  O192  1  -0.00361054  0.11845703  0.16310308  1
  O  O193  1  0.00976603  0.12250263  0.40485195  1
  O  O194  1  0.00004029  0.12716405  0.66875641  1
  O  O195  1  -0.00609058  0.12539546  0.92428247  1
  O  O196  1  -0.00751614  0.37684984  0.16402028  1
  O  O197  1  0.00568962  0.37467914  0.41167246  1
  O  O198  1  0.00158760  0.37010724  0.66495787  1
  O  O199  1  0.00027935  0.37821641  0.91858761  1
  O  O200  1  -0.00737508  0.63021591  0.16600486  1
  O  O201  1  0.00942134  0.62791809  0.41047616  1
  O  O202  1  -0.00108093  0.62330680  0.66143021  1
  O  O203  1  0.00174720  0.62528455  0.91619770  1
  O  O204  1  0.00106354  0.87183336  0.16218134  1
  O  O205  1  -0.00052875  0.87668834  0.41257890  1
  O  O206  1  -0.00637593  0.88002750  0.66344617  1
  O  O207  1  -0.00317201  0.87143878  0.91435993  1
  O  O208  1  0.25021531  0.11942586  0.15530486  1
  O  O209  1  0.25237062  0.12802378  0.41079188  1
  O  O210  1  0.24266380  0.12732728  0.66577441  1
  O  O211  1  0.24713465  0.12548963  0.91815690  1
  O  O212  1  0.25261718  0.38162376  0.15944189  1
  O  O213  1  0.25556242  0.37615357  0.41196111  1
  O  O214  1  0.23744615  0.36931354  0.66535290  1
  O  O215  1  0.24597430  0.37969061  0.91752330  1
  O  O216  1  0.25515153  0.62998100  0.15756558  1
  O  O217  1  0.25251051  0.62270537  0.41361268  1
  O  O218  1  0.24919906  0.62317965  0.66540668  1
  O  O219  1  0.24837024  0.62549299  0.91419242  1
  O  O220  1  0.25393835  0.86690906  0.16100744  1
  O  O221  1  0.25300772  0.87560418  0.42075187  1
  O  O222  1  0.25290044  0.87955370  0.66354295  1
  O  O223  1  0.24113081  0.87130841  0.91129757  1
  O  O224  1  0.49723394  0.12079245  0.16141098  1
  O  O225  1  0.49016646  0.12820865  0.40667596  1
  O  O226  1  0.50165501  0.12887281  0.66676563  1
  O  O227  1  0.50922645  0.12783445  0.91518730  1
  O  O228  1  0.49959034  0.38224191  0.16279200  1
  O  O229  1  0.49134840  0.37730318  0.41076586  1
  O  O230  1  0.50510764  0.37238708  0.65445455  1
  O  O231  1  0.49644747  0.37906594  0.91360441  1
  O  O232  1  0.50642824  0.62834153  0.16540215  1
  O  O233  1  0.49610724  0.62260713  0.41426613  1
  O  O234  1  0.50063291  0.62079172  0.66500696  1
  O  O235  1  0.50320265  0.62260494  0.91071951  1
  O  O236  1  0.49769210  0.86759851  0.16411952  1
  O  O237  1  0.49543975  0.87315583  0.41742249  1
  O  O238  1  0.49333712  0.87777088  0.65996841  1
  O  O239  1  0.50401275  0.87172007  0.91274202  1
  O  O240  1  0.75787644  0.11952591  0.16794547  1
  O  O241  1  0.75095575  0.12257371  0.40258005  1
  O  O242  1  0.75507359  0.12875729  0.66309113  1
  O  O243  1  0.74734531  0.12663598  0.91822805  1
  O  O244  1  0.75742826  0.37596412  0.16938116  1
  O  O245  1  0.74965648  0.37720033  0.40764288  1
  O  O246  1  0.75870649  0.37274003  0.65801833  1
  O  O247  1  0.75561276  0.37788570  0.91646618  1
  O  O248  1  0.74944734  0.62966064  0.17243580  1
  O  O249  1  0.74270161  0.62706508  0.41245016  1
  O  O250  1  0.75292168  0.62112303  0.65712246  1
  O  O251  1  0.74504533  0.62170662  0.91204381  1
  O  O252  1  0.75033138  0.87231190  0.16851191  1
  O  O253  1  0.75563208  0.87462933  0.40995910  1
  O  O254  1  0.76043241  0.87790297  0.66077087  1
  O  O255  1  0.75366190  0.87268523  0.91386463  1
  O  O256  1  0.12008518  0.12109032  0.02965446  1
  O  O257  1  0.12990949  0.12104989  0.29145002  1
  O  O258  1  0.12401283  0.12834713  0.55216355  1
  O  O259  1  0.11321226  0.12669675  0.79673359  1
  O  O260  1  0.12091075  0.38484661  0.03651293  1
  O  O261  1  0.12569395  0.38080443  0.28012233  1
  O  O262  1  0.12225118  0.36864894  0.54829496  1
  O  O263  1  0.12296582  0.37751487  0.80592721  1
  O  O264  1  0.12132265  0.63381892  0.03598896  1
  O  O265  1  0.12868731  0.62638317  0.29820444  1
  O  O266  1  0.12578139  0.62899742  0.53246103  1
  O  O267  1  0.12286952  0.62491065  0.79962276  1
  O  O268  1  0.12131634  0.86731970  0.05077901  1
  O  O269  1  0.13759127  0.87636167  0.28840031  1
  O  O270  1  0.12273803  0.88295196  0.53464123  1
  O  O271  1  0.12330240  0.87468222  0.79763078  1
  O  O272  1  0.38064600  0.12495901  0.02536626  1
  O  O273  1  0.37073696  0.12543020  0.29392583  1
  O  O274  1  0.37467638  0.13683512  0.53682049  1
  O  O275  1  0.37291308  0.12854143  0.79505158  1
  O  O276  1  0.37635129  0.38689789  0.02998884  1
  O  O277  1  0.37401801  0.37704063  0.29727830  1
  O  O278  1  0.36637304  0.36945044  0.53495456  1
  O  O279  1  0.37197026  0.37794335  0.80639529  1
  O  O280  1  0.37714105  0.63122244  0.04863942  1
  O  O281  1  0.37419897  0.62312732  0.30096460  1
  O  O282  1  0.37352466  0.61422130  0.53488021  1
  O  O283  1  0.37427561  0.62035301  0.79541816  1
  O  O284  1  0.37778890  0.86370854  0.04946592  1
  O  O285  1  0.37061170  0.86908880  0.28505282  1
  O  O286  1  0.37095260  0.88125375  0.54800863  1
  O  O287  1  0.37174404  0.87857018  0.78426200  1
  O  O288  1  0.63209246  0.12610988  0.04238963  1
  O  O289  1  0.62371374  0.11653797  0.27600999  1
  O  O290  1  0.62134196  0.12297521  0.53292467  1
  O  O291  1  0.63013025  0.13152958  0.79973329  1
  O  O292  1  0.63230060  0.38069329  0.04202409  1
  O  O293  1  0.62674697  0.38436992  0.27918889  1
  O  O294  1  0.62607307  0.37200257  0.54511678  1
  O  O295  1  0.63021166  0.37015345  0.78794210  1
  O  O296  1  0.62583407  0.62840189  0.05304551  1
  O  O297  1  0.62209298  0.62559758  0.30289944  1
  O  O298  1  0.61876509  0.62688192  0.53063559  1
  O  O299  1  0.62806624  0.61828803  0.79476679  1
  O  O300  1  0.62764110  0.86738933  0.05173745  1
  O  O301  1  0.61572151  0.87506782  0.28787149  1
  O  O302  1  0.62763048  0.87430836  0.53387262  1
  O  O303  1  0.62971974  0.87300873  0.78081559  1
  O  O304  1  0.87203374  0.12171471  0.05496671  1
  O  O305  1  0.88274561  0.11736476  0.27786445  1
  O  O306  1  0.87806198  0.12570179  0.54869828  1
  O  O307  1  0.88220368  0.12709978  0.78942154  1
  O  O308  1  0.87085212  0.37858725  0.05474739  1
  O  O309  1  0.88125738  0.37869008  0.27896032  1
  O  O310  1  0.87950405  0.36622000  0.54462078  1
  O  O311  1  0.87570104  0.37736068  0.80201700  1
  O  O312  1  0.86753985  0.63054746  0.05254508  1
  O  O313  1  0.87525016  0.63782258  0.29444358  1
  O  O314  1  0.88056425  0.62350343  0.52483522  1
  O  O315  1  0.87667084  0.61612738  0.78606688  1
  O  O316  1  0.86894582  0.87199885  0.04936971  1
  O  O317  1  0.87809973  0.87185810  0.29703787  1
  O  O318  1  0.87991026  0.88538374  0.54408419  1
  O  O319  1  0.87523090  0.87498486  0.79908804  1
