# generated using pymatgen
data_VFe(PbO3)2
_symmetry_space_group_name_H-M   'P 1'
_cell_length_a   15.41205291
_cell_length_b   15.39285613
_cell_length_c   18.49632316
_cell_angle_alpha   89.98521620
_cell_angle_beta   90.08278568
_cell_angle_gamma   90.00258989
_symmetry_Int_Tables_number   1
_chemical_formula_structural   VFe(PbO3)2
_chemical_formula_sum   'V32 Fe32 Pb64 O192'
_cell_volume   4387.97998467
_cell_formula_units_Z   32
loop_
 _symmetry_equiv_pos_site_id
 _symmetry_equiv_pos_as_xyz
  1  'x, y, z'
loop_
 _atom_site_type_symbol
 _atom_site_label
 _atom_site_symmetry_multiplicity
 _atom_site_fract_x
 _atom_site_fract_y
 _atom_site_fract_z
 _atom_site_occupancy
  V  V0  1  0.87770184  0.12014093  0.64446235  1
  V  V1  1  0.37522456  0.37375381  0.39312231  1
  V  V2  1  0.37280407  0.37488430  0.13782196  1
  V  V3  1  0.87430003  0.36798121  0.64256382  1
  V  V4  1  0.87338204  0.37549092  0.13859105  1
  V  V5  1  0.12682422  0.87652572  0.13755123  1
  V  V6  1  0.37506876  0.12448181  0.13977566  1
  V  V7  1  0.62409228  0.62812791  0.88933667  1
  V  V8  1  0.37468801  0.62328300  0.14334952  1
  V  V9  1  0.12630983  0.37367850  0.13542481  1
  V  V10  1  0.87513745  0.86921216  0.63653572  1
  V  V11  1  0.87887097  0.37100614  0.38875365  1
  V  V12  1  0.87466068  0.12556619  0.13763704  1
  V  V13  1  0.37453312  0.87442866  0.14397333  1
  V  V14  1  0.62429275  0.12448102  0.14422446  1
  V  V15  1  0.37776002  0.62585287  0.88434862  1
  V  V16  1  0.37004247  0.62924558  0.39366252  1
  V  V17  1  0.38279331  0.12590992  0.64282063  1
  V  V18  1  0.12704029  0.62774121  0.14223431  1
  V  V19  1  0.62357040  0.87217461  0.88706555  1
  V  V20  1  0.12756789  0.62554125  0.63965174  1
  V  V21  1  0.13383966  0.12437311  0.65309490  1
  V  V22  1  0.38337464  0.62481436  0.63052931  1
  V  V23  1  0.87620602  0.61633138  0.63446881  1
  V  V24  1  0.87625777  0.87771074  0.14694887  1
  V  V25  1  0.63333408  0.12498346  0.63953697  1
  V  V26  1  0.12656043  0.12448511  0.39759964  1
  V  V27  1  0.12564640  0.37162482  0.39536543  1
  V  V28  1  0.12405814  0.87258301  0.39212795  1
  V  V29  1  0.87909967  0.12721033  0.39371978  1
  V  V30  1  0.12599637  0.12302940  0.13448146  1
  V  V31  1  0.62585899  0.87580262  0.15077011  1
  Fe  Fe32  1  0.87513050  0.62498878  0.14666196  1
  Fe  Fe33  1  0.12229236  0.87456648  0.64737008  1
  Fe  Fe34  1  0.62689152  0.37069258  0.38195993  1
  Fe  Fe35  1  0.62149797  0.62688701  0.14585562  1
  Fe  Fe36  1  0.62703920  0.37613910  0.63854919  1
  Fe  Fe37  1  0.12333017  0.37896539  0.87694318  1
  Fe  Fe38  1  0.62841976  0.87496992  0.62618521  1
  Fe  Fe39  1  0.63194024  0.62587753  0.62400565  1
  Fe  Fe40  1  0.88076265  0.87818283  0.38189414  1
  Fe  Fe41  1  0.38013092  0.86932608  0.87931773  1
  Fe  Fe42  1  0.12492596  0.12351498  0.87358073  1
  Fe  Fe43  1  0.37515891  0.37601656  0.64722159  1
  Fe  Fe44  1  0.37497036  0.87496820  0.63475260  1
  Fe  Fe45  1  0.62445984  0.37906485  0.88104962  1
  Fe  Fe46  1  0.87116261  0.62749808  0.88522097  1
  Fe  Fe47  1  0.62617092  0.87838078  0.38796229  1
  Fe  Fe48  1  0.36996849  0.12870970  0.39030948  1
  Fe  Fe49  1  0.62266230  0.12400483  0.87911171  1
  Fe  Fe50  1  0.62480300  0.62112880  0.39110533  1
  Fe  Fe51  1  0.37117186  0.87826712  0.39349775  1
  Fe  Fe52  1  0.86968252  0.87147612  0.88309429  1
  Fe  Fe53  1  0.87068298  0.37751483  0.88163223  1
  Fe  Fe54  1  0.12887361  0.62060847  0.38694989  1
  Fe  Fe55  1  0.62153489  0.37477668  0.14194493  1
  Fe  Fe56  1  0.37837523  0.37949936  0.87541032  1
  Fe  Fe57  1  0.38029289  0.12323463  0.87591500  1
  Fe  Fe58  1  0.86913465  0.12355679  0.88030986  1
  Fe  Fe59  1  0.62046672  0.12883146  0.38367401  1
  Fe  Fe60  1  0.12407648  0.87151682  0.87538368  1
  Fe  Fe61  1  0.12080796  0.37576935  0.65009817  1
  Fe  Fe62  1  0.12360104  0.62654870  0.88009665  1
  Fe  Fe63  1  0.88148070  0.62239780  0.37945273  1
  Pb  Pb64  1  0.00039581  -0.00261763  -0.01588518  1
  Pb  Pb65  1  -0.00015181  -0.00218809  0.24976491  1
  Pb  Pb66  1  0.00957298  -0.00404157  0.51011934  1
  Pb  Pb67  1  0.00362017  -0.00260546  0.75662067  1
  Pb  Pb68  1  -0.00077310  0.24976848  -0.01679796  1
  Pb  Pb69  1  0.00285023  0.24997288  0.24439437  1
  Pb  Pb70  1  0.00875916  0.25314396  0.51328326  1
  Pb  Pb71  1  0.00352582  0.24873872  0.75852326  1
  Pb  Pb72  1  -0.00605572  0.50546345  -0.00885932  1
  Pb  Pb73  1  0.00379636  0.50632213  0.25097663  1
  Pb  Pb74  1  0.00573338  0.49683870  0.50212362  1
  Pb  Pb75  1  0.00043926  0.50566520  0.75601432  1
  Pb  Pb76  1  -0.00451707  0.74762553  -0.00608728  1
  Pb  Pb77  1  -0.00342304  0.74927657  0.25211049  1
  Pb  Pb78  1  -0.00186795  0.74450962  0.49556839  1
  Pb  Pb79  1  -0.00268592  0.74147418  0.75531455  1
  Pb  Pb80  1  0.25115496  -0.00130692  -0.01821893  1
  Pb  Pb81  1  0.26061995  0.00341122  0.25476768  1
  Pb  Pb82  1  0.25273019  -0.00443795  0.50976992  1
  Pb  Pb83  1  0.25917686  -0.00900165  0.75409145  1
  Pb  Pb84  1  0.25259201  0.24905426  -0.02047880  1
  Pb  Pb85  1  0.25548244  0.24500638  0.24966079  1
  Pb  Pb86  1  0.25085188  0.26181253  0.51612680  1
  Pb  Pb87  1  0.25234059  0.25846597  0.75518791  1
  Pb  Pb88  1  0.24925538  0.49844356  -0.01136964  1
  Pb  Pb89  1  0.24482440  0.50392487  0.25213032  1
  Pb  Pb90  1  0.25510907  0.49158538  0.51001954  1
  Pb  Pb91  1  0.24956440  0.49692953  0.74999189  1
  Pb  Pb92  1  0.24780159  0.75332941  -0.00969146  1
  Pb  Pb93  1  0.25337380  0.75718149  0.25501999  1
  Pb  Pb94  1  0.24521833  0.76386909  0.51122812  1
  Pb  Pb95  1  0.24987971  0.75651561  0.74870014  1
  Pb  Pb96  1  0.49678355  0.00114933  -0.00626840  1
  Pb  Pb97  1  0.50096325  -0.00083136  0.25980892  1
  Pb  Pb98  1  0.49991159  -0.00016556  0.49303663  1
  Pb  Pb99  1  0.50334902  0.00358921  0.74679460  1
  Pb  Pb100  1  0.50244677  0.25595106  -0.01256173  1
  Pb  Pb101  1  0.50189417  0.24580919  0.25210628  1
  Pb  Pb102  1  0.50193577  0.25572726  0.50169035  1
  Pb  Pb103  1  0.50520176  0.24500845  0.75146765  1
  Pb  Pb104  1  0.51115287  0.49635955  0.00289431  1
  Pb  Pb105  1  0.50812472  0.50101334  0.25657687  1
  Pb  Pb106  1  0.50941386  0.49363860  0.50242918  1
  Pb  Pb107  1  0.50951495  0.49143179  0.74443753  1
  Pb  Pb108  1  0.50588249  0.74232896  0.00497458  1
  Pb  Pb109  1  0.49999511  0.76234092  0.26283274  1
  Pb  Pb110  1  0.51136359  0.75773552  0.49666147  1
  Pb  Pb111  1  0.50506645  0.75792553  0.73624795  1
  Pb  Pb112  1  0.74933956  0.00033017  -0.00556952  1
  Pb  Pb113  1  0.74532455  -0.00190865  0.25767634  1
  Pb  Pb114  1  0.74715205  -0.00577057  0.49462492  1
  Pb  Pb115  1  0.75666114  -0.00291814  0.75218995  1
  Pb  Pb116  1  0.74232816  0.25392524  -0.00980198  1
  Pb  Pb117  1  0.74291119  0.24846814  0.25144070  1
  Pb  Pb118  1  0.74412093  0.25370069  0.50200897  1
  Pb  Pb119  1  0.75419427  0.25165458  0.75606360  1
  Pb  Pb120  1  0.74798575  0.49900796  0.00111745  1
  Pb  Pb121  1  0.73906382  0.50793823  0.25431402  1
  Pb  Pb122  1  0.74234956  0.50034127  0.49572173  1
  Pb  Pb123  1  0.74900302  0.49411938  0.75117495  1
  Pb  Pb124  1  0.75682806  0.73661009  0.01016407  1
  Pb  Pb125  1  0.75002150  0.74331846  0.25784029  1
  Pb  Pb126  1  0.75096444  0.74736776  0.48542016  1
  Pb  Pb127  1  0.75787967  0.74946499  0.74553158  1
  O  O128  1  0.12699157  0.00068128  0.16402533  1
  O  O129  1  0.12465613  0.00471474  0.41949083  1
  O  O130  1  0.11845872  0.00662612  0.66700670  1
  O  O131  1  0.12580556  -0.00236191  0.90415167  1
  O  O132  1  0.12712168  0.24841670  0.16261246  1
  O  O133  1  0.12436669  0.25074844  0.42294209  1
  O  O134  1  0.11938703  0.24377543  0.67040633  1
  O  O135  1  0.12633663  0.25042848  0.90214157  1
  O  O136  1  0.12861930  0.49845094  0.16452547  1
  O  O137  1  0.12484857  0.48891138  0.41666856  1
  O  O138  1  0.11342109  0.50896332  0.66401910  1
  O  O139  1  0.12645084  0.50333180  0.91211638  1
  O  O140  1  0.12718460  0.75322781  0.16680733  1
  O  O141  1  0.12566198  0.75500638  0.40890441  1
  O  O142  1  0.11748775  0.74235414  0.66200402  1
  O  O143  1  0.12744432  0.74905749  0.91232682  1
  O  O144  1  0.37334370  -0.00002159  0.16826180  1
  O  O145  1  0.36715713  0.00407247  0.41869231  1
  O  O146  1  0.37379277  0.00676780  0.65979497  1
  O  O147  1  0.38033229  -0.00465673  0.90902261  1
  O  O148  1  0.37085073  0.24945353  0.16413717  1
  O  O149  1  0.36782184  0.25748747  0.42131015  1
  O  O150  1  0.37342563  0.24227667  0.66669469  1
  O  O151  1  0.37806774  0.25184535  0.90219655  1
  O  O152  1  0.36966198  0.50389991  0.16305954  1
  O  O153  1  0.36918648  0.48947053  0.41821397  1
  O  O154  1  0.37116945  0.51385457  0.66255069  1
  O  O155  1  0.37857104  0.51036068  0.91066935  1
  O  O156  1  0.37291259  0.74973234  0.17115225  1
  O  O157  1  0.36762217  0.74417684  0.41067464  1
  O  O158  1  0.36943416  0.73899343  0.65861103  1
  O  O159  1  0.38022659  0.74209606  0.91403526  1
  O  O160  1  0.62285873  -0.00084033  0.17231954  1
  O  O161  1  0.62774994  0.00671324  0.41311335  1
  O  O162  1  0.62583981  0.00618402  0.65786986  1
  O  O163  1  0.62110803  -0.01042458  0.90816338  1
  O  O164  1  0.62294843  0.24660426  0.16504729  1
  O  O165  1  0.62803710  0.25019974  0.41793203  1
  O  O166  1  0.62596161  0.24269354  0.66255256  1
  O  O167  1  0.62285513  0.25150117  0.90484724  1
  O  O168  1  0.62140605  0.49942470  0.16975475  1
  O  O169  1  0.62448546  0.49270886  0.41247316  1
  O  O170  1  0.62958265  0.50562306  0.66000424  1
  O  O171  1  0.62234508  0.51069583  0.91307939  1
  O  O172  1  0.62189139  0.75822695  0.17166576  1
  O  O173  1  0.62411553  0.74859758  0.40704262  1
  O  O174  1  0.62964338  0.74918955  0.65561796  1
  O  O175  1  0.62106262  0.74753496  0.91737186  1
  O  O176  1  0.87528740  0.00417443  0.17027847  1
  O  O177  1  0.88588269  0.01076729  0.41489185  1
  O  O178  1  0.87130328  0.00282417  0.66197738  1
  O  O179  1  0.86857847  -0.00355696  0.91341493  1
  O  O180  1  0.87958824  0.25025776  0.16539549  1
  O  O181  1  0.88504287  0.24930807  0.42196343  1
  O  O182  1  0.86929834  0.24951056  0.66290177  1
  O  O183  1  0.86980654  0.24970533  0.91081773  1
  O  O184  1  0.87980198  0.48948737  0.16229455  1
  O  O185  1  0.88472653  0.48611858  0.40835978  1
  O  O186  1  0.87641613  0.50126349  0.65632747  1
  O  O187  1  0.87016512  0.50327068  0.91429353  1
  O  O188  1  0.87554408  0.75720000  0.17008717  1
  O  O189  1  0.88375672  0.75063240  0.40615344  1
  O  O190  1  0.87470432  0.75313003  0.65410008  1
  O  O191  1  0.86833647  0.75046810  0.92107074  1
  O  O192  1  0.00182552  0.12480332  0.16265983  1
  O  O193  1  0.00749964  0.12837500  0.42581744  1
  O  O194  1  -0.00958529  0.12689931  0.66544707  1
  O  O195  1  -0.00210554  0.12299264  0.90532015  1
  O  O196  1  0.00270851  0.37119876  0.16343341  1
  O  O197  1  0.00428899  0.36865124  0.41963070  1
  O  O198  1  -0.01144058  0.37284070  0.66801064  1
  O  O199  1  -0.00164534  0.37682220  0.90781958  1
  O  O200  1  0.00691256  0.62464929  0.16464945  1
  O  O201  1  0.00505564  0.62003624  0.41679754  1
  O  O202  1  -0.00886141  0.62854595  0.66385808  1
  O  O203  1  -0.00173224  0.62800739  0.91314880  1
  O  O204  1  0.00377118  0.87857322  0.16556187  1
  O  O205  1  0.00847059  0.88060559  0.41796966  1
  O  O206  1  -0.01091857  0.88068273  0.66315348  1
  O  O207  1  -0.00219360  0.87238340  0.90645830  1
  O  O208  1  0.24892641  0.12420958  0.16553504  1
  O  O209  1  0.23975856  0.12961138  0.42339138  1
  O  O210  1  0.24950753  0.12496359  0.66547802  1
  O  O211  1  0.25252826  0.12272826  0.90066605  1
  O  O212  1  0.25010519  0.37466301  0.16645613  1
  O  O213  1  0.24466004  0.37145589  0.41901044  1
  O  O214  1  0.24749678  0.37739033  0.66793555  1
  O  O215  1  0.25253688  0.38014530  0.90534133  1
  O  O216  1  0.25408089  0.62723382  0.17100523  1
  O  O217  1  0.25381937  0.61613138  0.41987708  1
  O  O218  1  0.24217635  0.62404256  0.65528880  1
  O  O219  1  0.25888677  0.62692491  0.90502135  1
  O  O220  1  0.24982068  0.87547907  0.16854953  1
  O  O221  1  0.23966369  0.87825332  0.41897152  1
  O  O222  1  0.25062262  0.87440726  0.66532432  1
  O  O223  1  0.25342325  0.87089276  0.90661344  1
  O  O224  1  0.49731771  0.12409097  0.16678630  1
  O  O225  1  0.49618383  0.13046278  0.41478220  1
  O  O226  1  0.50148609  0.12525991  0.65615956  1
  O  O227  1  0.50185394  0.12245590  0.91705625  1
  O  O228  1  0.48862503  0.37495172  0.16492203  1
  O  O229  1  0.49318516  0.37132795  0.40927449  1
  O  O230  1  0.50153426  0.37673265  0.66139508  1
  O  O231  1  0.50017953  0.38192863  0.91048503  1
  O  O232  1  0.48841384  0.62677032  0.16983230  1
  O  O233  1  0.48635592  0.61803917  0.41542293  1
  O  O234  1  0.49799476  0.62789794  0.64381581  1
  O  O235  1  0.50151212  0.62760145  0.91588369  1
  O  O236  1  0.49885698  0.87737078  0.17242053  1
  O  O237  1  0.49749351  0.87635512  0.41214714  1
  O  O238  1  0.50148474  0.87332472  0.65336478  1
  O  O239  1  0.50697618  0.86819002  0.91491319  1
  O  O240  1  0.75138655  0.12501128  0.16722141  1
  O  O241  1  0.76396492  0.12953482  0.41119709  1
  O  O242  1  0.74940347  0.12531471  0.66278026  1
  O  O243  1  0.74397658  0.12074971  0.91444070  1
  O  O244  1  0.75885856  0.37050118  0.16159788  1
  O  O245  1  0.76205003  0.36791489  0.40603168  1
  O  O246  1  0.75667412  0.37679440  0.66307019  1
  O  O247  1  0.74605686  0.38026443  0.91634225  1
  O  O248  1  0.74843143  0.62749398  0.17069462  1
  O  O249  1  0.75682933  0.61935724  0.40564883  1
  O  O250  1  0.76116615  0.62833773  0.65453989  1
  O  O251  1  0.73994108  0.62862801  0.91469887  1
  O  O252  1  0.74571595  0.87914812  0.17004017  1
  O  O253  1  0.75622106  0.88002262  0.40671512  1
  O  O254  1  0.75675592  0.87882218  0.65844727  1
  O  O255  1  0.73691901  0.87015765  0.91620772  1
  O  O256  1  0.12727388  0.12370989  0.04402273  1
  O  O257  1  0.12539690  0.12573258  0.30679179  1
  O  O258  1  0.12388951  0.12637320  0.56042462  1
  O  O259  1  0.11559006  0.12328797  0.77250772  1
  O  O260  1  0.12815809  0.37406716  0.04494224  1
  O  O261  1  0.12455573  0.36882829  0.30448203  1
  O  O262  1  0.12063099  0.37030203  0.54783365  1
  O  O263  1  0.12049518  0.38051694  0.77501370  1
  O  O264  1  0.13261739  0.62779089  0.05165151  1
  O  O265  1  0.12877536  0.61469961  0.28715643  1
  O  O266  1  0.12024319  0.62334662  0.54762791  1
  O  O267  1  0.11264248  0.62619269  0.78010459  1
  O  O268  1  0.12844653  0.87455415  0.04697134  1
  O  O269  1  0.12429450  0.88056130  0.30126805  1
  O  O270  1  0.12617517  0.87630971  0.54500017  1
  O  O271  1  0.12451029  0.87321135  0.77336334  1
  O  O272  1  0.37417646  0.12265458  0.04924676  1
  O  O273  1  0.36268639  0.12859896  0.28973561  1
  O  O274  1  0.37402803  0.12974680  0.55165852  1
  O  O275  1  0.39020622  0.11858484  0.77582239  1
  O  O276  1  0.37164552  0.37569841  0.04706920  1
  O  O277  1  0.36869226  0.37197877  0.30207240  1
  O  O278  1  0.36657195  0.37494762  0.54459607  1
  O  O279  1  0.37371813  0.38322294  0.77394164  1
  O  O280  1  0.37356402  0.62782047  0.05281157  1
  O  O281  1  0.36790524  0.62138675  0.30226608  1
  O  O282  1  0.37020807  0.62161265  0.53977969  1
  O  O283  1  0.38350421  0.62721201  0.79378538  1
  O  O284  1  0.37647154  0.87254949  0.05336463  1
  O  O285  1  0.36806405  0.87480399  0.29157933  1
  O  O286  1  0.36156715  0.87207691  0.53289380  1
  O  O287  1  0.37604376  0.86772763  0.77872276  1
  O  O288  1  0.62371299  0.11975531  0.05352438  1
  O  O289  1  0.62431092  0.13127053  0.28282780  1
  O  O290  1  0.63413035  0.12871264  0.54796872  1
  O  O291  1  0.61461474  0.12113248  0.77884281  1
  O  O292  1  0.62076906  0.38160032  0.04169960  1
  O  O293  1  0.62366427  0.36950458  0.28104296  1
  O  O294  1  0.63017916  0.37392550  0.53671779  1
  O  O295  1  0.62904219  0.38782704  0.77953389  1
  O  O296  1  0.61666170  0.62906767  0.04536393  1
  O  O297  1  0.62133286  0.61564786  0.28808754  1
  O  O298  1  0.62994846  0.61834806  0.52214218  1
  O  O299  1  0.62364204  0.63041524  0.79847513  1
  O  O300  1  0.62243347  0.87816938  0.06025398  1
  O  O301  1  0.61841499  0.88309839  0.28596445  1
  O  O302  1  0.62960831  0.87563861  0.52557908  1
  O  O303  1  0.62361435  0.86719169  0.79557575  1
  O  O304  1  0.87302640  0.12304046  0.04723447  1
  O  O305  1  0.88570934  0.13204366  0.30290405  1
  O  O306  1  0.87430930  0.12310970  0.55327754  1
  O  O307  1  0.86179952  0.12285273  0.77947042  1
  O  O308  1  0.87477596  0.37342226  0.04776652  1
  O  O309  1  0.88629446  0.36414724  0.29825608  1
  O  O310  1  0.87671676  0.37016111  0.55088104  1
  O  O311  1  0.86135481  0.37596276  0.78112249  1
  O  O312  1  0.87099125  0.63012869  0.04586538  1
  O  O313  1  0.88605185  0.62255842  0.27744762  1
  O  O314  1  0.88212354  0.61967029  0.54295309  1
  O  O315  1  0.87271338  0.63551417  0.78448127  1
  O  O316  1  0.87263109  0.87983884  0.05602259  1
  O  O317  1  0.88553530  0.88448684  0.28219618  1
  O  O318  1  0.87767734  0.87569127  0.54494752  1
  O  O319  1  0.86052664  0.87208344  0.78288818  1
