# generated using pymatgen
data_VFe(PbO3)2
_symmetry_space_group_name_H-M   'P 1'
_cell_length_a   15.38124195
_cell_length_b   15.38535526
_cell_length_c   18.51552635
_cell_angle_alpha   89.99438611
_cell_angle_beta   89.97202613
_cell_angle_gamma   90.00378283
_symmetry_Int_Tables_number   1
_chemical_formula_structural   VFe(PbO3)2
_chemical_formula_sum   'V32 Fe32 Pb64 O192'
_cell_volume   4381.62232106
_cell_formula_units_Z   32
loop_
 _symmetry_equiv_pos_site_id
 _symmetry_equiv_pos_as_xyz
  1  'x, y, z'
loop_
 _atom_site_type_symbol
 _atom_site_label
 _atom_site_symmetry_multiplicity
 _atom_site_fract_x
 _atom_site_fract_y
 _atom_site_fract_z
 _atom_site_occupancy
  V  V0  1  0.87619565  0.37273608  0.63844795  1
  V  V1  1  0.87206842  0.11881357  0.63354242  1
  V  V2  1  0.12449781  0.87699251  0.14456883  1
  V  V3  1  0.12613815  0.87778261  0.88915895  1
  V  V4  1  0.62521413  0.87340898  0.64165626  1
  V  V5  1  0.61932355  0.12645127  0.88908767  1
  V  V6  1  0.87880709  0.87416241  0.89638489  1
  V  V7  1  0.12924329  0.12734572  0.14929444  1
  V  V8  1  0.12125490  0.62410370  0.63694508  1
  V  V9  1  0.62302635  0.37456063  0.39281960  1
  V  V10  1  0.87274554  0.62220017  0.64060157  1
  V  V11  1  0.36925825  0.12517058  0.88679651  1
  V  V12  1  0.37526528  0.12748017  0.39453498  1
  V  V13  1  0.12595631  0.62233539  0.89483862  1
  V  V14  1  0.37442293  0.62798120  0.13425738  1
  V  V15  1  0.87573138  0.62385711  0.38646411  1
  V  V16  1  0.37112749  0.87388498  0.63787458  1
  V  V17  1  0.37961897  0.87670530  0.39121894  1
  V  V18  1  0.87950922  0.12481496  0.14917390  1
  V  V19  1  0.87045537  0.87492493  0.38921441  1
  V  V20  1  0.13077196  0.62781457  0.38630641  1
  V  V21  1  0.62510964  0.11937649  0.39253292  1
  V  V22  1  0.62624495  0.62581093  0.38818335  1
  V  V23  1  0.37341730  0.87442610  0.89203144  1
  V  V24  1  0.37350780  0.37618207  0.88769612  1
  V  V25  1  0.87771450  0.62545574  0.89092342  1
  V  V26  1  0.87525129  0.12467810  0.88909536  1
  V  V27  1  0.37993208  0.62572510  0.38972277  1
  V  V28  1  0.12244744  0.12343672  0.88692936  1
  V  V29  1  0.87724825  0.62728724  0.13590412  1
  V  V30  1  0.62562917  0.37430472  0.13588345  1
  V  V31  1  0.62581394  0.12780817  0.13668146  1
  Fe  Fe32  1  0.12395109  0.12355463  0.38664324  1
  Fe  Fe33  1  0.37480322  0.62619309  0.64272420  1
  Fe  Fe34  1  0.62555470  0.87979416  0.89901409  1
  Fe  Fe35  1  0.62685954  0.37548823  0.63794377  1
  Fe  Fe36  1  0.37587422  0.12453734  0.13788293  1
  Fe  Fe37  1  0.62700477  0.62550425  0.64196317  1
  Fe  Fe38  1  0.86954867  0.37760643  0.37876139  1
  Fe  Fe39  1  0.37786376  0.37754869  0.39722007  1
  Fe  Fe40  1  0.37398109  0.37527809  0.62538545  1
  Fe  Fe41  1  0.12458559  0.37803923  0.38446265  1
  Fe  Fe42  1  0.62462435  0.62129983  0.12704751  1
  Fe  Fe43  1  0.12508082  0.36945682  0.88602636  1
  Fe  Fe44  1  0.37005263  0.62469352  0.88125900  1
  Fe  Fe45  1  0.87953987  0.37447535  0.88682053  1
  Fe  Fe46  1  0.62755349  0.12410003  0.63493704  1
  Fe  Fe47  1  0.37341582  0.87866161  0.13359858  1
  Fe  Fe48  1  0.87759497  0.87623447  0.13362890  1
  Fe  Fe49  1  0.12861187  0.86998560  0.39723693  1
  Fe  Fe50  1  0.62622865  0.87665870  0.12668733  1
  Fe  Fe51  1  0.87593180  0.37435052  0.14397343  1
  Fe  Fe52  1  0.62617712  0.37065946  0.88290815  1
  Fe  Fe53  1  0.87015463  0.12685076  0.38098777  1
  Fe  Fe54  1  0.62132505  0.87048845  0.38443826  1
  Fe  Fe55  1  0.12263917  0.37651005  0.62961653  1
  Fe  Fe56  1  0.37629293  0.37333993  0.13527218  1
  Fe  Fe57  1  0.62380637  0.62425481  0.89001152  1
  Fe  Fe58  1  0.12631380  0.37655626  0.14356660  1
  Fe  Fe59  1  0.87090958  0.86962575  0.63260544  1
  Fe  Fe60  1  0.12089159  0.87204169  0.62611605  1
  Fe  Fe61  1  0.37681436  0.12328463  0.62990488  1
  Fe  Fe62  1  0.12633936  0.62738745  0.13537361  1
  Fe  Fe63  1  0.12130338  0.12460810  0.62546423  1
  Pb  Pb64  1  -0.00208772  -0.00084727  0.00349910  1
  Pb  Pb65  1  0.00301826  0.00710480  0.26169704  1
  Pb  Pb66  1  0.00701554  0.00184164  0.49544540  1
  Pb  Pb67  1  -0.00004205  -0.00290651  0.73894448  1
  Pb  Pb68  1  0.00188375  0.25897483  0.00611165  1
  Pb  Pb69  1  0.00760398  0.25528115  0.25888010  1
  Pb  Pb70  1  -0.00039300  0.24866031  0.48549991  1
  Pb  Pb71  1  0.00249504  0.25698593  0.74729599  1
  Pb  Pb72  1  0.00493847  0.48726443  0.00819685  1
  Pb  Pb73  1  0.00340040  0.49536331  0.24752120  1
  Pb  Pb74  1  -0.00021640  0.49243513  0.49401091  1
  Pb  Pb75  1  0.00131137  0.49018388  0.75550374  1
  Pb  Pb76  1  0.00416365  0.74643507  0.00450565  1
  Pb  Pb77  1  0.00529163  0.75633026  0.25381805  1
  Pb  Pb78  1  -0.00548267  0.75566524  0.50118675  1
  Pb  Pb79  1  -0.00205666  0.75084560  0.74603925  1
  Pb  Pb80  1  0.25597469  0.00171393  0.00390744  1
  Pb  Pb81  1  0.24412793  0.00206325  0.25760019  1
  Pb  Pb82  1  0.24385645  0.00434435  0.50068929  1
  Pb  Pb83  1  0.24296325  0.00414364  0.73900168  1
  Pb  Pb84  1  0.25098154  0.25153537  0.00295604  1
  Pb  Pb85  1  0.25553931  0.26478599  0.25861355  1
  Pb  Pb86  1  0.24099888  0.26123013  0.49815333  1
  Pb  Pb87  1  0.24491596  0.25131418  0.73354986  1
  Pb  Pb88  1  0.24614207  0.48679048  0.00517650  1
  Pb  Pb89  1  0.25089369  0.49565192  0.24828879  1
  Pb  Pb90  1  0.25328309  0.49298442  0.50211902  1
  Pb  Pb91  1  0.25336909  0.49537074  0.74327079  1
  Pb  Pb92  1  0.24661361  0.74667760  0.00272931  1
  Pb  Pb93  1  0.24787823  0.75647936  0.25320931  1
  Pb  Pb94  1  0.26030564  0.74381979  0.50452774  1
  Pb  Pb95  1  0.24953789  0.74447984  0.75051662  1
  Pb  Pb96  1  0.48917219  0.00064259  0.00525341  1
  Pb  Pb97  1  0.50279148  -0.00662289  0.24431659  1
  Pb  Pb98  1  0.50039674  0.00552641  0.50515761  1
  Pb  Pb99  1  0.50320011  -0.00278245  0.74926346  1
  Pb  Pb100  1  0.48601510  0.25065441  0.00153457  1
  Pb  Pb101  1  0.49236033  0.25400324  0.25255689  1
  Pb  Pb102  1  0.50249391  0.24283140  0.50811815  1
  Pb  Pb103  1  0.49994484  0.25207731  0.73765036  1
  Pb  Pb104  1  0.50252256  0.50390805  -0.00765319  1
  Pb  Pb105  1  0.49251335  0.49720012  0.24665967  1
  Pb  Pb106  1  0.50489815  0.49981036  0.50822390  1
  Pb  Pb107  1  0.50193293  0.49677188  0.74326682  1
  Pb  Pb108  1  0.50546043  0.74885079  -0.00340390  1
  Pb  Pb109  1  0.50820736  0.75530224  0.23959044  1
  Pb  Pb110  1  0.50166516  0.73658765  0.50689418  1
  Pb  Pb111  1  0.50330542  0.73866850  0.75740107  1
  Pb  Pb112  1  0.75355052  -0.00361586  0.00476020  1
  Pb  Pb113  1  0.74999992  -0.00061567  0.24726058  1
  Pb  Pb114  1  0.75252276  -0.00571524  0.49970855  1
  Pb  Pb115  1  0.74339796  -0.00903833  0.75597437  1
  Pb  Pb116  1  0.75938741  0.25738648  -0.00012891  1
  Pb  Pb117  1  0.75486136  0.24964320  0.25328369  1
  Pb  Pb118  1  0.74379258  0.25389998  0.49918694  1
  Pb  Pb119  1  0.74849169  0.25727286  0.75002805  1
  Pb  Pb120  1  0.74899712  0.49804311  -0.00468771  1
  Pb  Pb121  1  0.75360936  0.49915412  0.24601949  1
  Pb  Pb122  1  0.73806534  0.50123902  0.50471086  1
  Pb  Pb123  1  0.74194754  0.49839612  0.75573784  1
  Pb  Pb124  1  0.74360241  0.75174060  0.00184798  1
  Pb  Pb125  1  0.74354764  0.75530413  0.23944938  1
  Pb  Pb126  1  0.74945477  0.74775959  0.50043856  1
  Pb  Pb127  1  0.73747149  0.75296930  0.76273231  1
  O  O128  1  0.12326305  -0.00174550  0.17065327  1
  O  O129  1  0.12598112  -0.00391039  0.41185687  1
  O  O130  1  0.11994948  -0.00191497  0.65808576  1
  O  O131  1  0.12497778  0.00047420  0.91797832  1
  O  O132  1  0.12246127  0.24271756  0.16743007  1
  O  O133  1  0.12586307  0.25017053  0.40695190  1
  O  O134  1  0.11950791  0.24906399  0.65460258  1
  O  O135  1  0.12473812  0.24193631  0.91429022  1
  O  O136  1  0.12707366  0.50462832  0.16571461  1
  O  O137  1  0.12223777  0.51315338  0.40960827  1
  O  O138  1  0.12242749  0.50739443  0.66211919  1
  O  O139  1  0.12524253  0.50585561  0.91253550  1
  O  O140  1  0.12555215  0.75617076  0.16676204  1
  O  O141  1  0.12135591  0.73938574  0.41927538  1
  O  O142  1  0.12096377  0.74536588  0.66077779  1
  O  O143  1  0.12680183  0.75411508  0.91730928  1
  O  O144  1  0.37455675  0.00169938  0.17005143  1
  O  O145  1  0.38111972  -0.00375953  0.41271493  1
  O  O146  1  0.37748209  -0.01031651  0.66430889  1
  O  O147  1  0.37336773  0.00212525  0.91629140  1
  O  O148  1  0.37747928  0.24780475  0.16918488  1
  O  O149  1  0.37943676  0.24264098  0.41416256  1
  O  O150  1  0.37471114  0.24905662  0.65507679  1
  O  O151  1  0.37191099  0.24919396  0.91454868  1
  O  O152  1  0.37591907  0.50471480  0.16127324  1
  O  O153  1  0.37681055  0.51005768  0.41370370  1
  O  O154  1  0.37198435  0.50009186  0.66142000  1
  O  O155  1  0.37001944  0.49325438  0.90700229  1
  O  O156  1  0.37581801  0.74683677  0.15638425  1
  O  O157  1  0.37735236  0.74844537  0.41766206  1
  O  O158  1  0.37582231  0.76082861  0.66875213  1
  O  O159  1  0.37055689  0.75780211  0.91059267  1
  O  O160  1  0.62780896  0.00839649  0.15637266  1
  O  O161  1  0.62349623  0.00157487  0.41119649  1
  O  O162  1  0.62946817  -0.00604839  0.66708347  1
  O  O163  1  0.62861936  0.01279139  0.91810130  1
  O  O164  1  0.62649142  0.25157320  0.16413591  1
  O  O165  1  0.62391825  0.25140897  0.41356031  1
  O  O166  1  0.63027860  0.24881124  0.66366296  1
  O  O167  1  0.62882455  0.24156545  0.91429793  1
  O  O168  1  0.62421978  0.49315136  0.15829571  1
  O  O169  1  0.62406868  0.50068674  0.41650798  1
  O  O170  1  0.62971546  0.50068130  0.66830187  1
  O  O171  1  0.62606254  0.49601755  0.91176530  1
  O  O172  1  0.62426335  0.74739855  0.15332818  1
  O  O173  1  0.62435476  0.74491441  0.41469135  1
  O  O174  1  0.62761981  0.75647020  0.66843013  1
  O  O175  1  0.62644804  0.75126755  0.91575157  1
  O  O176  1  0.87362997  0.00471982  0.16767037  1
  O  O177  1  0.86751241  -0.00834698  0.40808085  1
  O  O178  1  0.87238782  0.00272228  0.65551774  1
  O  O179  1  0.87883360  0.00458871  0.91739236  1
  O  O180  1  0.87384299  0.24298524  0.16922129  1
  O  O181  1  0.86814341  0.25249707  0.40776442  1
  O  O182  1  0.87639099  0.25489144  0.65561531  1
  O  O183  1  0.88103469  0.24199403  0.91441671  1
  O  O184  1  0.87451797  0.50753602  0.16253390  1
  O  O185  1  0.86980948  0.50790581  0.40970547  1
  O  O186  1  0.87918903  0.50366593  0.66541787  1
  O  O187  1  0.88258687  0.50862626  0.91271307  1
  O  O188  1  0.87606567  0.74612381  0.16046804  1
  O  O189  1  0.86923575  0.74534081  0.41425781  1
  O  O190  1  0.87821768  0.74083534  0.66463466  1
  O  O191  1  0.88016271  0.74734968  0.91768737  1
  O  O192  1  -0.00107122  0.12199630  0.17022353  1
  O  O193  1  -0.00546164  0.12196636  0.40669275  1
  O  O194  1  -0.01143940  0.12518065  0.65864352  1
  O  O195  1  -0.00101652  0.12142497  0.91498095  1
  O  O196  1  0.00045352  0.37365853  0.16847023  1
  O  O197  1  -0.00385248  0.38078646  0.40553883  1
  O  O198  1  -0.00489102  0.37933337  0.66286241  1
  O  O199  1  0.00265994  0.37464720  0.92107136  1
  O  O200  1  -0.00491041  0.62756741  0.16329069  1
  O  O201  1  -0.00715468  0.62731521  0.40775497  1
  O  O202  1  0.00148900  0.62488634  0.66585965  1
  O  O203  1  0.00409982  0.63053159  0.91731829  1
  O  O204  1  0.00509076  0.87665690  0.16846831  1
  O  O205  1  -0.01157338  0.86804737  0.41022862  1
  O  O206  1  -0.00375141  0.87264702  0.66156143  1
  O  O207  1  0.00381359  0.87692623  0.91959722  1
  O  O208  1  0.24453938  0.12159698  0.16602461  1
  O  O209  1  0.25898936  0.11935712  0.40982273  1
  O  O210  1  0.24902900  0.11931408  0.65506559  1
  O  O211  1  0.24861817  0.12336106  0.91407825  1
  O  O212  1  0.25275565  0.37337718  0.16753282  1
  O  O213  1  0.24973251  0.37977893  0.41246045  1
  O  O214  1  0.24727679  0.37609671  0.65657181  1
  O  O215  1  0.25257907  0.37135449  0.91543378  1
  O  O216  1  0.25811418  0.62729373  0.16353127  1
  O  O217  1  0.24887170  0.62987057  0.40730090  1
  O  O218  1  0.24007948  0.62911774  0.66322082  1
  O  O219  1  0.24479419  0.62882043  0.91603211  1
  O  O220  1  0.24412821  0.87717009  0.16763247  1
  O  O221  1  0.26277484  0.87110408  0.41704628  1
  O  O222  1  0.25257970  0.87474106  0.65478082  1
  O  O223  1  0.25033412  0.88032070  0.91700945  1
  O  O224  1  0.50992694  0.12707585  0.16283987  1
  O  O225  1  0.50384389  0.12411193  0.41808370  1
  O  O226  1  0.50180486  0.11943999  0.66526858  1
  O  O227  1  0.50079785  0.12630264  0.90679162  1
  O  O228  1  0.50692491  0.37318666  0.16317388  1
  O  O229  1  0.50805081  0.37721655  0.41845895  1
  O  O230  1  0.49914721  0.37595323  0.65703509  1
  O  O231  1  0.49244205  0.36981292  0.90806537  1
  O  O232  1  0.49394361  0.62310966  0.15754069  1
  O  O233  1  0.50162847  0.62534399  0.41729733  1
  O  O234  1  0.50098540  0.62918998  0.66822138  1
  O  O235  1  0.49375720  0.62544109  0.91026052  1
  O  O236  1  0.50123691  0.87799642  0.15834400  1
  O  O237  1  0.49494794  0.87076861  0.41768081  1
  O  O238  1  0.50506364  0.87567471  0.66371734  1
  O  O239  1  0.49187531  0.88038659  0.91174457  1
  O  O240  1  0.74620578  0.12735716  0.16439117  1
  O  O241  1  0.74190600  0.12421555  0.41411423  1
  O  O242  1  0.75905475  0.12769740  0.66361175  1
  O  O243  1  0.75892636  0.12484617  0.91379335  1
  O  O244  1  0.74264025  0.37381175  0.16209243  1
  O  O245  1  0.74208558  0.37820174  0.41456028  1
  O  O246  1  0.76103062  0.37894578  0.66446405  1
  O  O247  1  0.75387370  0.37230838  0.91409609  1
  O  O248  1  0.75526885  0.62489822  0.15698220  1
  O  O249  1  0.74992528  0.62512409  0.41258470  1
  O  O250  1  0.75862562  0.62439325  0.66449209  1
  O  O251  1  0.76100913  0.62611873  0.91234751  1
  O  O252  1  0.75119744  0.87606173  0.15864607  1
  O  O253  1  0.75021928  0.86998788  0.41425123  1
  O  O254  1  0.74622829  0.87339606  0.66810704  1
  O  O255  1  0.75832866  0.87834760  0.91908341  1
  O  O256  1  0.12328316  0.12343341  0.05847689  1
  O  O257  1  0.12381464  0.11674798  0.28454163  1
  O  O258  1  0.12095751  0.11790351  0.52492719  1
  O  O259  1  0.12333415  0.12027265  0.79582808  1
  O  O260  1  0.12691277  0.37725997  0.04057621  1
  O  O261  1  0.12814949  0.37585711  0.28233003  1
  O  O262  1  0.12436935  0.38304939  0.52871673  1
  O  O263  1  0.11597219  0.37171535  0.78629375  1
  O  O264  1  0.12697514  0.63350312  0.03566716  1
  O  O265  1  0.12745955  0.63417396  0.29484086  1
  O  O266  1  0.12035523  0.62302854  0.54610728  1
  O  O267  1  0.12472830  0.62808564  0.80403282  1
  O  O268  1  0.12508000  0.87886959  0.05368561  1
  O  O269  1  0.13018213  0.86154845  0.29602469  1
  O  O270  1  0.11817031  0.87208344  0.52530693  1
  O  O271  1  0.12448183  0.87756201  0.79836751  1
  O  O272  1  0.37818267  0.12500318  0.03696817  1
  O  O273  1  0.38313797  0.12504015  0.30345272  1
  O  O274  1  0.38573724  0.11683142  0.52968798  1
  O  O275  1  0.36866603  0.12343813  0.79632387  1
  O  O276  1  0.37248355  0.36794227  0.03495149  1
  O  O277  1  0.38229817  0.37399234  0.29476723  1
  O  O278  1  0.37010258  0.38035789  0.52326426  1
  O  O279  1  0.36855520  0.37157208  0.79715527  1
  O  O280  1  0.37104629  0.62469226  0.04305558  1
  O  O281  1  0.38259245  0.62838983  0.29895547  1
  O  O282  1  0.37457083  0.63620236  0.54149750  1
  O  O283  1  0.36412537  0.63282190  0.78119163  1
  O  O284  1  0.37197415  0.88840051  0.03396377  1
  O  O285  1  0.37946979  0.87393100  0.29999356  1
  O  O286  1  0.37708655  0.87067622  0.54696371  1
  O  O287  1  0.36899551  0.87959592  0.80146240  1
  O  O288  1  0.62621365  0.13176951  0.04617080  1
  O  O289  1  0.62236843  0.12478803  0.30185636  1
  O  O290  1  0.62199820  0.12467074  0.53494885  1
  O  O291  1  0.62783918  0.12277000  0.79791191  1
  O  O292  1  0.62515699  0.37091678  0.04485537  1
  O  O293  1  0.62291231  0.37705175  0.30189292  1
  O  O294  1  0.63284519  0.38064048  0.53687710  1
  O  O295  1  0.63283390  0.37123225  0.78284891  1
  O  O296  1  0.62362160  0.61999107  0.02676626  1
  O  O297  1  0.62299230  0.62346365  0.29713591  1
  O  O298  1  0.62439451  0.62190100  0.54092560  1
  O  O299  1  0.63077943  0.63298088  0.78810748  1
  O  O300  1  0.62786722  0.87811907  0.02500619  1
  O  O301  1  0.61997398  0.86943952  0.28512501  1
  O  O302  1  0.62781643  0.87296300  0.55060768  1
  O  O303  1  0.63514583  0.88106509  0.79734918  1
  O  O304  1  0.87928089  0.12520211  0.05781984  1
  O  O305  1  0.86528809  0.12062738  0.28101691  1
  O  O306  1  0.86843336  0.12132111  0.54219914  1
  O  O307  1  0.87561880  0.12348781  0.79841072  1
  O  O308  1  0.88049782  0.36889183  0.04246468  1
  O  O309  1  0.86323079  0.38058138  0.27803615  1
  O  O310  1  0.87628435  0.37980128  0.54748126  1
  O  O311  1  0.88609918  0.37324486  0.78688220  1
  O  O312  1  0.88024789  0.62631085  0.04480407  1
  O  O313  1  0.87225326  0.62694571  0.29578519  1
  O  O314  1  0.87493204  0.62189671  0.54932605  1
  O  O315  1  0.88084075  0.62921905  0.80017160  1
  O  O316  1  0.88161089  0.88385378  0.03414629  1
  O  O317  1  0.86897316  0.87055516  0.29789871  1
  O  O318  1  0.86665453  0.86760122  0.53311591  1
  O  O319  1  0.87881675  0.87497093  0.80489729  1
