# generated using pymatgen
data_VFe(PbO3)2
_symmetry_space_group_name_H-M   'P 1'
_cell_length_a   15.38729797
_cell_length_b   15.37843214
_cell_length_c   18.53165914
_cell_angle_alpha   89.99710208
_cell_angle_beta   89.95882818
_cell_angle_gamma   90.00413985
_symmetry_Int_Tables_number   1
_chemical_formula_structural   VFe(PbO3)2
_chemical_formula_sum   'V32 Fe32 Pb64 O192'
_cell_volume   4385.19200967
_cell_formula_units_Z   32
loop_
 _symmetry_equiv_pos_site_id
 _symmetry_equiv_pos_as_xyz
  1  'x, y, z'
loop_
 _atom_site_type_symbol
 _atom_site_label
 _atom_site_symmetry_multiplicity
 _atom_site_fract_x
 _atom_site_fract_y
 _atom_site_fract_z
 _atom_site_occupancy
  V  V0  1  0.62610763  0.37258237  0.88961242  1
  V  V1  1  0.37305109  0.62159662  0.63994705  1
  V  V2  1  0.62463866  0.12397231  0.38819806  1
  V  V3  1  0.36841757  0.62633313  0.13777182  1
  V  V4  1  0.12534990  0.12565858  0.14283085  1
  V  V5  1  0.37557447  0.37273030  0.89334959  1
  V  V6  1  0.62768395  0.62661272  0.13970633  1
  V  V7  1  0.62934122  0.37394547  0.14271683  1
  V  V8  1  0.12394874  0.87680508  0.14082421  1
  V  V9  1  0.37517948  0.87607320  0.39009633  1
  V  V10  1  0.62545646  0.87723844  0.88926105  1
  V  V11  1  0.87732480  0.37623771  0.13814074  1
  V  V12  1  0.38429047  0.12292326  0.15189626  1
  V  V13  1  0.87420437  0.87818518  0.88207250  1
  V  V14  1  0.37479930  0.12506141  0.89374251  1
  V  V15  1  0.37372553  0.62516388  0.38399071  1
  V  V16  1  0.12498663  0.62094284  0.64025934  1
  V  V17  1  0.62193402  0.12669990  0.89353315  1
  V  V18  1  0.37422482  0.87683036  0.89098227  1
  V  V19  1  0.37371156  0.12478412  0.63158136  1
  V  V20  1  0.87511247  0.12472845  0.88788478  1
  V  V21  1  0.12532421  0.62663845  0.38782773  1
  V  V22  1  0.12526588  0.12223061  0.38966875  1
  V  V23  1  0.87394452  0.87553248  0.39680348  1
  V  V24  1  0.87498793  0.62400817  0.39212955  1
  V  V25  1  0.87448684  0.87420329  0.14000491  1
  V  V26  1  0.87705345  0.37637408  0.63617188  1
  V  V27  1  0.37102282  0.37464210  0.63673424  1
  V  V28  1  0.12172960  0.88014957  0.88874141  1
  V  V29  1  0.87442355  0.37504524  0.38999047  1
  V  V30  1  0.12293505  0.36970909  0.89287800  1
  V  V31  1  0.62418388  0.62780222  0.39307747  1
  Fe  Fe32  1  0.87117591  0.62610574  0.13647055  1
  Fe  Fe33  1  0.37174357  0.87213832  0.63190586  1
  Fe  Fe34  1  0.12437726  0.37452831  0.14133234  1
  Fe  Fe35  1  0.87637382  0.12572756  0.39629244  1
  Fe  Fe36  1  0.37756091  0.37627461  0.14796991  1
  Fe  Fe37  1  0.62655856  0.87247137  0.39689259  1
  Fe  Fe38  1  0.11934582  0.62725927  0.13072391  1
  Fe  Fe39  1  0.37528088  0.87386128  0.13698699  1
  Fe  Fe40  1  0.87758763  0.12359117  0.14123714  1
  Fe  Fe41  1  0.87662575  0.87411063  0.63042738  1
  Fe  Fe42  1  0.37588466  0.37693381  0.37706365  1
  Fe  Fe43  1  0.87307941  0.37101729  0.88185436  1
  Fe  Fe44  1  0.12803297  0.62478285  0.89217443  1
  Fe  Fe45  1  0.12339204  0.87063822  0.39600878  1
  Fe  Fe46  1  0.62244898  0.37614886  0.62806817  1
  Fe  Fe47  1  0.62942970  0.12525037  0.13695793  1
  Fe  Fe48  1  0.12774582  0.37901192  0.63366010  1
  Fe  Fe49  1  0.12734019  0.13021106  0.62978068  1
  Fe  Fe50  1  0.87413089  0.62418197  0.87939429  1
  Fe  Fe51  1  0.62267564  0.12885073  0.62843725  1
  Fe  Fe52  1  0.12903305  0.87349163  0.62840879  1
  Fe  Fe53  1  0.12184529  0.37744744  0.38151396  1
  Fe  Fe54  1  0.62663381  0.87584558  0.13535007  1
  Fe  Fe55  1  0.37474257  0.12492485  0.37820295  1
  Fe  Fe56  1  0.87617152  0.62413888  0.63937741  1
  Fe  Fe57  1  0.12918079  0.12439988  0.88741932  1
  Fe  Fe58  1  0.37594857  0.62440775  0.88792888  1
  Fe  Fe59  1  0.87517106  0.12703255  0.62236445  1
  Fe  Fe60  1  0.62050562  0.87496435  0.62671928  1
  Fe  Fe61  1  0.62132702  0.62437340  0.88133458  1
  Fe  Fe62  1  0.62212433  0.62146011  0.63517838  1
  Fe  Fe63  1  0.62716121  0.37739170  0.39145722  1
  Pb  Pb64  1  -0.00833999  0.00495432  -0.00059470  1
  Pb  Pb65  1  -0.00251928  0.00051911  0.25763096  1
  Pb  Pb66  1  0.00033955  -0.00514683  0.50348859  1
  Pb  Pb67  1  0.00261669  0.00459691  0.73260182  1
  Pb  Pb68  1  -0.00398328  0.24491682  0.00100929  1
  Pb  Pb69  1  -0.00471626  0.24261121  0.25660098  1
  Pb  Pb70  1  0.00998370  0.24535931  0.50176260  1
  Pb  Pb71  1  -0.00036608  0.24974371  0.74220251  1
  Pb  Pb72  1  -0.00029886  0.50449927  -0.00349601  1
  Pb  Pb73  1  0.00443174  0.50129061  0.24616626  1
  Pb  Pb74  1  -0.00047926  0.49947603  0.50081629  1
  Pb  Pb75  1  -0.00872922  0.49925363  0.75432557  1
  Pb  Pb76  1  -0.00233868  0.73892130  -0.00199614  1
  Pb  Pb77  1  0.00244514  0.75241012  0.25088634  1
  Pb  Pb78  1  -0.00876490  0.74673370  0.50749187  1
  Pb  Pb79  1  -0.00144088  0.74765817  0.74488102  1
  Pb  Pb80  1  0.25644650  -0.00461675  0.00457164  1
  Pb  Pb81  1  0.25173018  0.00173432  0.25457654  1
  Pb  Pb82  1  0.24612398  -0.00483865  0.50006042  1
  Pb  Pb83  1  0.24225893  0.00111847  0.74321385  1
  Pb  Pb84  1  0.25015290  0.26163495  0.01295752  1
  Pb  Pb85  1  0.25500364  0.25119521  0.25433326  1
  Pb  Pb86  1  0.24547926  0.25144981  0.49029399  1
  Pb  Pb87  1  0.24152104  0.24749194  0.74957352  1
  Pb  Pb88  1  0.24362528  0.49412185  0.00523219  1
  Pb  Pb89  1  0.24295030  0.49150984  0.24835537  1
  Pb  Pb90  1  0.24638355  0.49117511  0.49311463  1
  Pb  Pb91  1  0.24927294  0.50918388  0.75932227  1
  Pb  Pb92  1  0.24706630  0.74757884  -0.00157218  1
  Pb  Pb93  1  0.23893832  0.76088504  0.25450944  1
  Pb  Pb94  1  0.25279431  0.75436347  0.50316704  1
  Pb  Pb95  1  0.24907084  0.74286350  0.75276890  1
  Pb  Pb96  1  0.50314693  -0.00569810  0.00768444  1
  Pb  Pb97  1  0.51045156  -0.00799499  0.25266931  1
  Pb  Pb98  1  0.50629351  -0.00007918  0.49979347  1
  Pb  Pb99  1  0.50100740  -0.00268748  0.74105925  1
  Pb  Pb100  1  0.49440808  0.25318827  0.00900081  1
  Pb  Pb101  1  0.50359619  0.26090267  0.25770139  1
  Pb  Pb102  1  0.50104423  0.25449244  0.49005796  1
  Pb  Pb103  1  0.49992112  0.25342802  0.74319745  1
  Pb  Pb104  1  0.49556863  0.49922108  0.00059379  1
  Pb  Pb105  1  0.50426906  0.49645459  0.25433711  1
  Pb  Pb106  1  0.50638800  0.49983756  0.49849518  1
  Pb  Pb107  1  0.50058331  0.50518659  0.75097929  1
  Pb  Pb108  1  0.50017137  0.75564649  -0.00120339  1
  Pb  Pb109  1  0.50557031  0.75554933  0.25039284  1
  Pb  Pb110  1  0.49958557  0.75281216  0.50345920  1
  Pb  Pb111  1  0.50182369  0.74621090  0.74525328  1
  Pb  Pb112  1  0.74202428  0.00116653  0.00349675  1
  Pb  Pb113  1  0.74870883  0.00137881  0.25255201  1
  Pb  Pb114  1  0.74681750  0.00304239  0.50309822  1
  Pb  Pb115  1  0.74958100  0.00177946  0.73195910  1
  Pb  Pb116  1  0.74953546  0.23797205  0.00298141  1
  Pb  Pb117  1  0.75501195  0.24381938  0.25404641  1
  Pb  Pb118  1  0.74740755  0.24532004  0.50003605  1
  Pb  Pb119  1  0.75272132  0.25261827  0.73948131  1
  Pb  Pb120  1  0.75783161  0.50602130  -0.00626800  1
  Pb  Pb121  1  0.74572239  0.49375089  0.25453745  1
  Pb  Pb122  1  0.74525381  0.50786123  0.50585847  1
  Pb  Pb123  1  0.74665814  0.50463755  0.74501241  1
  Pb  Pb124  1  0.75378140  0.74572923  -0.00639365  1
  Pb  Pb125  1  0.74507742  0.75734795  0.25522995  1
  Pb  Pb126  1  0.75755171  0.74699285  0.50960317  1
  Pb  Pb127  1  0.74634043  0.74682403  0.73798429  1
  O  O128  1  0.12215781  -0.00009148  0.16980771  1
  O  O129  1  0.12491674  0.00243809  0.41265670  1
  O  O130  1  0.13083081  0.00283986  0.65551667  1
  O  O131  1  0.12763281  -0.00386887  0.91793348  1
  O  O132  1  0.12191558  0.24191379  0.16487220  1
  O  O133  1  0.12413477  0.24680139  0.40672636  1
  O  O134  1  0.12952159  0.25502264  0.66457524  1
  O  O135  1  0.12899567  0.25178815  0.91854549  1
  O  O136  1  0.12386256  0.50398984  0.16337678  1
  O  O137  1  0.12189568  0.50844889  0.41198267  1
  O  O138  1  0.12800172  0.50407243  0.66842759  1
  O  O139  1  0.12926584  0.48999311  0.91488064  1
  O  O140  1  0.12306834  0.75379018  0.16589899  1
  O  O141  1  0.12455587  0.73983583  0.41773891  1
  O  O142  1  0.12960646  0.73973421  0.66104430  1
  O  O143  1  0.12553971  0.76313221  0.91439387  1
  O  O144  1  0.37249323  0.00319628  0.16915549  1
  O  O145  1  0.37380336  -0.00689858  0.40602759  1
  O  O146  1  0.37351214  0.00885224  0.65417926  1
  O  O147  1  0.37654525  0.00352146  0.91931392  1
  O  O148  1  0.37429113  0.24213031  0.17001806  1
  O  O149  1  0.37445271  0.24948586  0.40337639  1
  O  O150  1  0.37313773  0.25444169  0.65767325  1
  O  O151  1  0.37703860  0.24519422  0.92165804  1
  O  O152  1  0.38150169  0.51189985  0.16515956  1
  O  O153  1  0.37573109  0.50746407  0.40802838  1
  O  O154  1  0.37169889  0.50020849  0.66478550  1
  O  O155  1  0.37611610  0.49308097  0.91787144  1
  O  O156  1  0.38201043  0.74102831  0.16341378  1
  O  O157  1  0.37386716  0.74542288  0.41613514  1
  O  O158  1  0.37213181  0.73969976  0.66082470  1
  O  O159  1  0.37763040  0.75717780  0.91466665  1
  O  O160  1  0.62747495  0.00008760  0.16899228  1
  O  O161  1  0.62460784  0.00365476  0.41221472  1
  O  O162  1  0.61904239  0.00332476  0.65850588  1
  O  O163  1  0.62435423  0.00039629  0.91740183  1
  O  O164  1  0.62718268  0.25564406  0.16499586  1
  O  O165  1  0.62619032  0.24500923  0.40861829  1
  O  O166  1  0.61986660  0.25377243  0.66188471  1
  O  O167  1  0.62126176  0.25066350  0.92038229  1
  O  O168  1  0.63011751  0.49827592  0.16578175  1
  O  O169  1  0.62674351  0.50849022  0.41389766  1
  O  O170  1  0.62061514  0.49534185  0.66559500  1
  O  O171  1  0.62192681  0.48946443  0.90978437  1
  O  O172  1  0.62924887  0.74603633  0.16276398  1
  O  O173  1  0.62630327  0.74280775  0.41850043  1
  O  O174  1  0.61822935  0.74910325  0.65775632  1
  O  O175  1  0.62267580  0.75954230  0.90732218  1
  O  O176  1  0.87792436  -0.00782404  0.16780972  1
  O  O177  1  0.87607261  -0.00653641  0.41340975  1
  O  O178  1  0.87607159  0.00161074  0.65290237  1
  O  O179  1  0.87355675  -0.00029448  0.91655482  1
  O  O180  1  0.87532375  0.25785251  0.16733319  1
  O  O181  1  0.87511522  0.25923899  0.41157927  1
  O  O182  1  0.87579117  0.25594855  0.65745671  1
  O  O183  1  0.87540389  0.24560389  0.91576632  1
  O  O184  1  0.86923446  0.49289503  0.16281794  1
  O  O185  1  0.87565076  0.50118551  0.41643148  1
  O  O186  1  0.87807826  0.49430159  0.66241285  1
  O  O187  1  0.87372170  0.49609595  0.91072600  1
  O  O188  1  0.87311636  0.75764363  0.16604027  1
  O  O189  1  0.87495498  0.74650958  0.41848066  1
  O  O190  1  0.87789252  0.75008605  0.66452451  1
  O  O191  1  0.87318917  0.75825833  0.90777328  1
  O  O192  1  0.00466254  0.12196638  0.17209761  1
  O  O193  1  0.00721773  0.12432373  0.41573353  1
  O  O194  1  -0.00003462  0.12986679  0.65311830  1
  O  O195  1  -0.00100523  0.12371605  0.91462462  1
  O  O196  1  -0.00745576  0.37703939  0.15984425  1
  O  O197  1  -0.00608975  0.37958958  0.41319943  1
  O  O198  1  -0.00284251  0.37566173  0.66152079  1
  O  O199  1  0.00624411  0.37145037  0.91097951  1
  O  O200  1  -0.00474859  0.62691523  0.16317421  1
  O  O201  1  0.00205166  0.62526722  0.41359365  1
  O  O202  1  0.00807300  0.62177046  0.66180664  1
  O  O203  1  -0.00046203  0.62556201  0.91191443  1
  O  O204  1  -0.00308553  0.87405385  0.16797700  1
  O  O205  1  -0.00559441  0.87090974  0.41632646  1
  O  O206  1  0.00558279  0.87345079  0.65903947  1
  O  O207  1  0.00214963  0.88083785  0.90835553  1
  O  O208  1  0.24084422  0.12211951  0.16826961  1
  O  O209  1  0.24509627  0.12290269  0.40807869  1
  O  O210  1  0.25915781  0.13083080  0.66055591  1
  O  O211  1  0.25901027  0.12342652  0.91893968  1
  O  O212  1  0.25101833  0.37493288  0.16704081  1
  O  O213  1  0.24901078  0.37983327  0.40378061  1
  O  O214  1  0.25736397  0.37864976  0.66565535  1
  O  O215  1  0.25118998  0.36993393  0.92023766  1
  O  O216  1  0.25392159  0.62677317  0.14949308  1
  O  O217  1  0.24563014  0.62428308  0.40899187  1
  O  O218  1  0.25078517  0.62080283  0.66664953  1
  O  O219  1  0.25289712  0.62671508  0.92139521  1
  O  O220  1  0.24756860  0.87397528  0.16543619  1
  O  O221  1  0.25636363  0.86933839  0.41359815  1
  O  O222  1  0.25019559  0.87236328  0.66507769  1
  O  O223  1  0.24888842  0.87938263  0.91559075  1
  O  O224  1  0.50040917  0.12403211  0.16509469  1
  O  O225  1  0.50428156  0.12329979  0.40613914  1
  O  O226  1  0.48954602  0.13053299  0.65995622  1
  O  O227  1  0.49537773  0.12437813  0.92071640  1
  O  O228  1  0.50984027  0.37679005  0.16640656  1
  O  O229  1  0.49947591  0.37779695  0.40952617  1
  O  O230  1  0.48823533  0.37712384  0.66217532  1
  O  O231  1  0.50172988  0.36941114  0.92044912  1
  O  O232  1  0.51355279  0.62377344  0.16619447  1
  O  O233  1  0.50258010  0.62680315  0.40884607  1
  O  O234  1  0.49059944  0.62012404  0.66186650  1
  O  O235  1  0.50092808  0.62452826  0.91862056  1
  O  O236  1  0.50019432  0.87405350  0.16752449  1
  O  O237  1  0.49240811  0.86916833  0.41253049  1
  O  O238  1  0.49496701  0.87570532  0.66391154  1
  O  O239  1  0.50284559  0.88120593  0.91560427  1
  O  O240  1  0.75318220  0.12612079  0.17014481  1
  O  O241  1  0.74462932  0.12415087  0.41235688  1
  O  O242  1  0.74998776  0.12950031  0.65502237  1
  O  O243  1  0.74839033  0.12528804  0.91581424  1
  O  O244  1  0.75041083  0.37378317  0.16736195  1
  O  O245  1  0.75762344  0.37985449  0.41578192  1
  O  O246  1  0.75538077  0.37553442  0.65572995  1
  O  O247  1  0.74171743  0.36852092  0.90975317  1
  O  O248  1  0.74418332  0.62410826  0.16916413  1
  O  O249  1  0.74949841  0.62510374  0.41782725  1
  O  O250  1  0.74913359  0.62195232  0.65976539  1
  O  O251  1  0.74664923  0.62643746  0.91052694  1
  O  O252  1  0.75619203  0.87599202  0.16448670  1
  O  O253  1  0.75618425  0.87092128  0.41836074  1
  O  O254  1  0.74696687  0.87504820  0.65554853  1
  O  O255  1  0.74617919  0.88002569  0.90788014  1
  O  O256  1  0.12368125  0.12214549  0.05186269  1
  O  O257  1  0.12064122  0.12085758  0.29802006  1
  O  O258  1  0.13126547  0.13543925  0.52968831  1
  O  O259  1  0.13585984  0.12556774  0.78846985  1
  O  O260  1  0.13209823  0.37289084  0.04073332  1
  O  O261  1  0.12035514  0.38543885  0.28103125  1
  O  O262  1  0.12947653  0.38031179  0.53355453  1
  O  O263  1  0.12902693  0.36834631  0.80187391  1
  O  O264  1  0.11763942  0.62959251  0.02975351  1
  O  O265  1  0.12327017  0.62951707  0.29626842  1
  O  O266  1  0.12857507  0.61746454  0.54932897  1
  O  O267  1  0.13761673  0.62630408  0.79204011  1
  O  O268  1  0.12154346  0.87799033  0.05022889  1
  O  O269  1  0.12660368  0.86307473  0.29511038  1
  O  O270  1  0.13344200  0.87570028  0.52607864  1
  O  O271  1  0.12691943  0.88149920  0.79811778  1
  O  O272  1  0.37365184  0.12352128  0.06074430  1
  O  O273  1  0.36682841  0.12135642  0.27791839  1
  O  O274  1  0.37345015  0.12765861  0.54054546  1
  O  O275  1  0.37634369  0.12582037  0.80349117  1
  O  O276  1  0.37900684  0.36803172  0.04687560  1
  O  O277  1  0.38337519  0.37709971  0.27476243  1
  O  O278  1  0.36975237  0.37884601  0.54565161  1
  O  O279  1  0.37557679  0.37066116  0.80276861  1
  O  O280  1  0.38360708  0.62530893  0.04704439  1
  O  O281  1  0.37225549  0.62950783  0.29331374  1
  O  O282  1  0.37051820  0.61944819  0.54917680  1
  O  O283  1  0.37026407  0.62197497  0.78800873  1
  O  O284  1  0.37789362  0.88094646  0.03735937  1
  O  O285  1  0.37359285  0.86798623  0.29844291  1
  O  O286  1  0.37059827  0.86866278  0.53214250  1
  O  O287  1  0.37484159  0.87948767  0.80033448  1
  O  O288  1  0.63414527  0.12317930  0.03688669  1
  O  O289  1  0.62851025  0.12267112  0.29653847  1
  O  O290  1  0.62162979  0.12537209  0.52877112  1
  O  O291  1  0.61999141  0.12795091  0.80308509  1
  O  O292  1  0.63057088  0.37656572  0.05217320  1
  O  O293  1  0.62711301  0.38132030  0.29025921  1
  O  O294  1  0.61932391  0.37834586  0.52720942  1
  O  O295  1  0.61941155  0.36679936  0.79900474  1
  O  O296  1  0.62874315  0.62511783  0.04867122  1
  O  O297  1  0.63005382  0.62943000  0.30170017  1
  O  O298  1  0.62071319  0.61373814  0.53451874  1
  O  O299  1  0.61659246  0.62216389  0.78135732  1
  O  O300  1  0.62478889  0.88101520  0.03545694  1
  O  O301  1  0.62675045  0.86861328  0.29534869  1
  O  O302  1  0.61495793  0.87836523  0.52466888  1
  O  O303  1  0.61994603  0.88393308  0.79889774  1
  O  O304  1  0.88139978  0.12624132  0.04133571  1
  O  O305  1  0.88280426  0.12884943  0.29442438  1
  O  O306  1  0.87233781  0.12923799  0.52082337  1
  O  O307  1  0.87377475  0.12432185  0.79718377  1
  O  O308  1  0.87282362  0.37367692  0.04709649  1
  O  O309  1  0.87346128  0.37852829  0.29858674  1
  O  O310  1  0.88009000  0.37834834  0.54531790  1
  O  O311  1  0.87728897  0.37014417  0.78301169  1
  O  O312  1  0.86760980  0.62857137  0.03612769  1
  O  O313  1  0.87246604  0.62533258  0.30127799  1
  O  O314  1  0.87820346  0.62897976  0.53780007  1
  O  O315  1  0.87964837  0.62032237  0.77914242  1
  O  O316  1  0.87658243  0.87534469  0.04915314  1
  O  O317  1  0.87279548  0.86965470  0.30522013  1
  O  O318  1  0.87916911  0.86579909  0.52992956  1
  O  O319  1  0.87547617  0.88216279  0.79175304  1
