# generated using pymatgen
data_VFe(PbO3)2
_symmetry_space_group_name_H-M   'P 1'
_cell_length_a   15.38588390
_cell_length_b   15.37653072
_cell_length_c   18.55314949
_cell_angle_alpha   89.99230970
_cell_angle_beta   89.94301875
_cell_angle_gamma   90.00145430
_symmetry_Int_Tables_number   1
_chemical_formula_structural   VFe(PbO3)2
_chemical_formula_sum   'V32 Fe32 Pb64 O192'
_cell_volume   4389.33002932
_cell_formula_units_Z   32
loop_
 _symmetry_equiv_pos_site_id
 _symmetry_equiv_pos_as_xyz
  1  'x, y, z'
loop_
 _atom_site_type_symbol
 _atom_site_label
 _atom_site_symmetry_multiplicity
 _atom_site_fract_x
 _atom_site_fract_y
 _atom_site_fract_z
 _atom_site_occupancy
  V  V0  1  0.62428656  0.62713005  0.14204579  1
  V  V1  1  0.37440209  0.37576159  0.13821913  1
  V  V2  1  0.87368673  0.37636382  0.14523498  1
  V  V3  1  0.12463967  0.62413460  0.89147567  1
  V  V4  1  0.62735007  0.87358502  0.38541797  1
  V  V5  1  0.37716922  0.62214535  0.89756044  1
  V  V6  1  0.37525909  0.12543146  0.13834699  1
  V  V7  1  0.11983675  0.62547104  0.63562229  1
  V  V8  1  0.12431331  0.12585845  0.88824567  1
  V  V9  1  0.12493468  0.62441524  0.14309665  1
  V  V10  1  0.62610199  0.37760936  0.89201375  1
  V  V11  1  0.62632613  0.12267299  0.14230105  1
  V  V12  1  0.37617330  0.87319145  0.38957134  1
  V  V13  1  0.12291564  0.87729574  0.14009562  1
  V  V14  1  0.62533550  0.87532926  0.64196355  1
  V  V15  1  0.87512748  0.62339027  0.89191731  1
  V  V16  1  0.37203738  0.62173679  0.38926981  1
  V  V17  1  0.12624149  0.87424911  0.38668166  1
  V  V18  1  0.87827590  0.87682762  0.88936731  1
  V  V19  1  0.37239455  0.37516744  0.89135835  1
  V  V20  1  0.87520876  0.12464337  0.14200443  1
  V  V21  1  0.62598135  0.62380108  0.89342360  1
  V  V22  1  0.37346911  0.37031799  0.38712826  1
  V  V23  1  0.37683306  0.87492554  0.64788152  1
  V  V24  1  0.62305956  0.62528741  0.63751103  1
  V  V25  1  0.87527587  0.37707125  0.63344130  1
  V  V26  1  0.37444803  0.87499730  0.13626885  1
  V  V27  1  0.12447097  0.12487932  0.63820257  1
  V  V28  1  0.86724034  0.87683981  0.14690956  1
  V  V29  1  0.12419995  0.37726264  0.38662772  1
  V  V30  1  0.37215238  0.62682682  0.64083432  1
  V  V31  1  0.37444898  0.12569042  0.64268513  1
  Fe  Fe32  1  0.62326580  0.37617125  0.63051857  1
  Fe  Fe33  1  0.87452268  0.12845744  0.88190950  1
  Fe  Fe34  1  0.87595594  0.62608851  0.37687016  1
  Fe  Fe35  1  0.87508553  0.37729176  0.88690822  1
  Fe  Fe36  1  0.13016960  0.62539722  0.38301535  1
  Fe  Fe37  1  0.37675649  0.12777077  0.88434134  1
  Fe  Fe38  1  0.62838048  0.87161216  0.88715133  1
  Fe  Fe39  1  0.87429340  0.37489885  0.37806781  1
  Fe  Fe40  1  0.37596834  0.37599022  0.63385128  1
  Fe  Fe41  1  0.87507815  0.87578776  0.38251220  1
  Fe  Fe42  1  0.12373905  0.37749797  0.89003199  1
  Fe  Fe43  1  0.12807376  0.87548547  0.63985603  1
  Fe  Fe44  1  0.12319906  0.12441120  0.14305180  1
  Fe  Fe45  1  0.62120777  0.37721468  0.37739651  1
  Fe  Fe46  1  0.12508651  0.37343474  0.13461190  1
  Fe  Fe47  1  0.61991738  0.12271196  0.38861332  1
  Fe  Fe48  1  0.37426829  0.62551702  0.13045471  1
  Fe  Fe49  1  0.87280897  0.62638806  0.63132434  1
  Fe  Fe50  1  0.87683920  0.12534621  0.38559263  1
  Fe  Fe51  1  0.12253398  0.87074476  0.88528354  1
  Fe  Fe52  1  0.62299473  0.37151820  0.14796776  1
  Fe  Fe53  1  0.37205663  0.12061403  0.38459331  1
  Fe  Fe54  1  0.62402704  0.12642991  0.63429222  1
  Fe  Fe55  1  0.87428476  0.62718299  0.14771351  1
  Fe  Fe56  1  0.37338555  0.87408323  0.88327720  1
  Fe  Fe57  1  0.13044421  0.12441278  0.38044381  1
  Fe  Fe58  1  0.87679501  0.12314671  0.63362404  1
  Fe  Fe59  1  0.62217220  0.87721724  0.13333269  1
  Fe  Fe60  1  0.12738028  0.37332740  0.63677192  1
  Fe  Fe61  1  0.61995044  0.62906929  0.38202227  1
  Fe  Fe62  1  0.87642255  0.87150369  0.63014940  1
  Fe  Fe63  1  0.62611649  0.12510231  0.88017637  1
  Pb  Pb64  1  0.00536138  0.00717245  -0.00030346  1
  Pb  Pb65  1  -0.00964000  0.00073110  0.25767245  1
  Pb  Pb66  1  -0.00662396  -0.00046547  0.49755865  1
  Pb  Pb67  1  -0.00230604  -0.00355432  0.74441770  1
  Pb  Pb68  1  0.00142720  0.25311650  0.00023303  1
  Pb  Pb69  1  -0.00377364  0.24924091  0.25042977  1
  Pb  Pb70  1  -0.00311069  0.24471718  0.49213022  1
  Pb  Pb71  1  -0.00958753  0.25216005  0.74973627  1
  Pb  Pb72  1  -0.00038366  0.49528666  0.00405009  1
  Pb  Pb73  1  -0.00653597  0.50139986  0.25204418  1
  Pb  Pb74  1  -0.00661323  0.50894111  0.49009037  1
  Pb  Pb75  1  -0.00070260  0.48735113  0.75228667  1
  Pb  Pb76  1  -0.00689912  0.74236540  0.00697765  1
  Pb  Pb77  1  -0.00499059  0.75095978  0.25605422  1
  Pb  Pb78  1  -0.00708153  0.75166921  0.49584040  1
  Pb  Pb79  1  0.00001896  0.75466013  0.74592672  1
  Pb  Pb80  1  0.25081486  -0.00038972  -0.00634231  1
  Pb  Pb81  1  0.25099145  0.00563350  0.25053401  1
  Pb  Pb82  1  0.24299470  -0.00406911  0.50052068  1
  Pb  Pb83  1  0.25751722  -0.00114763  0.75556832  1
  Pb  Pb84  1  0.23278769  0.24439543  0.00814763  1
  Pb  Pb85  1  0.24603725  0.24292159  0.24892396  1
  Pb  Pb86  1  0.24964854  0.25589134  0.50033674  1
  Pb  Pb87  1  0.25081599  0.24933999  0.75011604  1
  Pb  Pb88  1  0.25293316  0.50132658  0.00401738  1
  Pb  Pb89  1  0.24606166  0.50382120  0.24899149  1
  Pb  Pb90  1  0.24912574  0.48977113  0.50606284  1
  Pb  Pb91  1  0.24439006  0.49366359  0.75097197  1
  Pb  Pb92  1  0.25400989  0.74947329  -0.00000828  1
  Pb  Pb93  1  0.24590933  0.74774745  0.24927964  1
  Pb  Pb94  1  0.24220195  0.75593242  0.50366930  1
  Pb  Pb95  1  0.25087625  0.75637981  0.75596356  1
  Pb  Pb96  1  0.50280331  -0.00180686  -0.01033149  1
  Pb  Pb97  1  0.49818165  0.00813392  0.25359909  1
  Pb  Pb98  1  0.50192181  0.00726772  0.50235651  1
  Pb  Pb99  1  0.50398813  0.00674257  0.75635542  1
  Pb  Pb100  1  0.50570826  0.25234031  -0.00030171  1
  Pb  Pb101  1  0.50094186  0.24247497  0.25419062  1
  Pb  Pb102  1  0.50998286  0.24965396  0.49914166  1
  Pb  Pb103  1  0.50475418  0.24566888  0.74736611  1
  Pb  Pb104  1  0.50790385  0.49361667  0.01052084  1
  Pb  Pb105  1  0.50527419  0.50092746  0.25060690  1
  Pb  Pb106  1  0.50202623  0.49157519  0.49876936  1
  Pb  Pb107  1  0.50026660  0.49733365  0.74681926  1
  Pb  Pb108  1  0.50341459  0.75720731  -0.00008125  1
  Pb  Pb109  1  0.50205946  0.74818858  0.24760404  1
  Pb  Pb110  1  0.49817237  0.75146146  0.50069599  1
  Pb  Pb111  1  0.50333438  0.75711006  0.75788946  1
  Pb  Pb112  1  0.74385265  -0.00211647  -0.00553168  1
  Pb  Pb113  1  0.74812009  0.00877976  0.25819340  1
  Pb  Pb114  1  0.75884666  0.01365850  0.49957461  1
  Pb  Pb115  1  0.75221381  0.00725173  0.74503563  1
  Pb  Pb116  1  0.75227436  0.24922628  -0.00368737  1
  Pb  Pb117  1  0.75551269  0.24713164  0.25728530  1
  Pb  Pb118  1  0.74361698  0.25235126  0.48832738  1
  Pb  Pb119  1  0.75004040  0.24377504  0.74259511  1
  Pb  Pb120  1  0.75258266  0.49914370  0.00935533  1
  Pb  Pb121  1  0.74567541  0.49325876  0.25510148  1
  Pb  Pb122  1  0.74576876  0.50064229  0.48347235  1
  Pb  Pb123  1  0.75706253  0.49358791  0.74531370  1
  Pb  Pb124  1  0.75608423  0.74515333  0.00634591  1
  Pb  Pb125  1  0.74784045  0.74304061  0.25485097  1
  Pb  Pb126  1  0.76292471  0.74541037  0.49473223  1
  Pb  Pb127  1  0.74733536  0.75261840  0.74859123  1
  O  O128  1  0.12804768  -0.00763194  0.16288800  1
  O  O129  1  0.13174945  -0.00805021  0.40981385  1
  O  O130  1  0.12969110  0.00797285  0.66479746  1
  O  O131  1  0.12226270  0.00455821  0.91180374  1
  O  O132  1  0.12594497  0.25148374  0.16688737  1
  O  O133  1  0.13298751  0.25943721  0.40874607  1
  O  O134  1  0.12928681  0.24290206  0.66466601  1
  O  O135  1  0.12432092  0.24609740  0.91354687  1
  O  O136  1  0.12611021  0.50377704  0.16173660  1
  O  O137  1  0.13193721  0.49488954  0.41257085  1
  O  O138  1  0.13131520  0.50932419  0.66233785  1
  O  O139  1  0.12435000  0.50756522  0.91982697  1
  O  O140  1  0.12851487  0.75232024  0.16481210  1
  O  O141  1  0.13189616  0.75572520  0.41249267  1
  O  O142  1  0.13059568  0.73959979  0.66404541  1
  O  O143  1  0.12299369  0.74021686  0.91742201  1
  O  O144  1  0.37348853  -0.00431132  0.16096018  1
  O  O145  1  0.37167064  -0.01050725  0.41468294  1
  O  O146  1  0.37446056  0.00103069  0.66919471  1
  O  O147  1  0.37327947  0.00121398  0.91167676  1
  O  O148  1  0.37603565  0.24884550  0.16335747  1
  O  O149  1  0.37217945  0.25564415  0.40567786  1
  O  O150  1  0.37439887  0.24376099  0.66127491  1
  O  O151  1  0.37995246  0.26048887  0.91365791  1
  O  O152  1  0.37429908  0.49547448  0.15829008  1
  O  O153  1  0.37282753  0.50530651  0.40905245  1
  O  O154  1  0.37791515  0.50977546  0.66500726  1
  O  O155  1  0.37900415  0.49473198  0.92282914  1
  O  O156  1  0.37194755  0.75571680  0.15909927  1
  O  O157  1  0.37211319  0.75405246  0.41673159  1
  O  O158  1  0.37931749  0.74458418  0.66939576  1
  O  O159  1  0.37420696  0.74442312  0.91634657  1
  O  O160  1  0.62411621  0.00416520  0.16496027  1
  O  O161  1  0.61841050  -0.01306538  0.41466940  1
  O  O162  1  0.62206458  -0.00762611  0.65992053  1
  O  O163  1  0.62786366  -0.00166918  0.90992939  1
  O  O164  1  0.62329560  0.23972674  0.16735695  1
  O  O165  1  0.61688798  0.25205577  0.40644346  1
  O  O166  1  0.62283205  0.25204845  0.66112271  1
  O  O167  1  0.62496329  0.25984718  0.91040998  1
  O  O168  1  0.62278570  0.50744654  0.16450604  1
  O  O169  1  0.61696504  0.50334175  0.40713164  1
  O  O170  1  0.62363109  0.50720985  0.66016483  1
  O  O171  1  0.62617355  0.50201976  0.92301616  1
  O  O172  1  0.62273954  0.74914722  0.16354536  1
  O  O173  1  0.61630290  0.75836285  0.41494738  1
  O  O174  1  0.62222994  0.74745581  0.66749891  1
  O  O175  1  0.62854970  0.74044490  0.91612064  1
  O  O176  1  0.87641358  -0.00294845  0.16877445  1
  O  O177  1  0.87720116  -0.00145687  0.41221716  1
  O  O178  1  0.87587413  -0.00355655  0.66207160  1
  O  O179  1  0.87799175  -0.00647933  0.90954955  1
  O  O180  1  0.87220857  0.24940688  0.16606704  1
  O  O181  1  0.87724677  0.25190405  0.41104061  1
  O  O182  1  0.87816373  0.25793783  0.65747487  1
  O  O183  1  0.87335809  0.25267230  0.91623638  1
  O  O184  1  0.87418064  0.49595943  0.16353296  1
  O  O185  1  0.87693937  0.50030942  0.40494325  1
  O  O186  1  0.87433126  0.49759945  0.66005633  1
  O  O187  1  0.87304084  0.50388073  0.92269455  1
  O  O188  1  0.87800258  0.75947046  0.16721860  1
  O  O189  1  0.87722563  0.75115532  0.40803581  1
  O  O190  1  0.87345869  0.74817510  0.66536694  1
  O  O191  1  0.87638641  0.74802616  0.91984517  1
  O  O192  1  -0.00527433  0.12290926  0.16489619  1
  O  O193  1  0.00671763  0.12541080  0.40996098  1
  O  O194  1  0.00767870  0.12624514  0.65974976  1
  O  O195  1  0.00389490  0.12569534  0.91417763  1
  O  O196  1  -0.00550170  0.37401232  0.16281999  1
  O  O197  1  0.00855611  0.37664768  0.40556049  1
  O  O198  1  -0.00300376  0.37868856  0.65968802  1
  O  O199  1  -0.00038595  0.37841339  0.91946253  1
  O  O200  1  0.00764998  0.62811648  0.16497194  1
  O  O201  1  0.00465703  0.62548890  0.40586745  1
  O  O202  1  0.00561279  0.62475290  0.65463272  1
  O  O203  1  0.00144427  0.62330077  0.91847636  1
  O  O204  1  0.00772380  0.87481244  0.16561471  1
  O  O205  1  0.00997291  0.87384005  0.40449277  1
  O  O206  1  0.00277681  0.87164532  0.66375016  1
  O  O207  1  -0.00537308  0.87088420  0.91864888  1
  O  O208  1  0.25541178  0.12240131  0.16272915  1
  O  O209  1  0.25055753  0.12381779  0.41717265  1
  O  O210  1  0.25190359  0.12415767  0.66645932  1
  O  O211  1  0.24367316  0.12711919  0.91208659  1
  O  O212  1  0.25713109  0.37333721  0.16197119  1
  O  O213  1  0.25446969  0.37958502  0.41419004  1
  O  O214  1  0.25290417  0.37663809  0.66910719  1
  O  O215  1  0.25642109  0.37942321  0.91023925  1
  O  O216  1  0.24707697  0.62589382  0.16347033  1
  O  O217  1  0.25748458  0.62874766  0.41688688  1
  O  O218  1  0.25659541  0.62692459  0.66251777  1
  O  O219  1  0.24583835  0.62179417  0.91537643  1
  O  O220  1  0.25056770  0.87468188  0.16235386  1
  O  O221  1  0.25231921  0.87260421  0.41542576  1
  O  O222  1  0.25441066  0.87149350  0.66951229  1
  O  O223  1  0.24667150  0.87213390  0.91487006  1
  O  O224  1  0.50075692  0.12187466  0.16385215  1
  O  O225  1  0.49357315  0.12037257  0.41829566  1
  O  O226  1  0.49381927  0.12136732  0.66352935  1
  O  O227  1  0.50237574  0.12893516  0.91355297  1
  O  O228  1  0.49006737  0.37285179  0.16680324  1
  O  O229  1  0.48951558  0.38054801  0.40783669  1
  O  O230  1  0.49862586  0.37855668  0.66563077  1
  O  O231  1  0.50448854  0.38014191  0.91849604  1
  O  O232  1  0.50148891  0.62726027  0.15996348  1
  O  O233  1  0.48834420  0.63129197  0.41515955  1
  O  O234  1  0.50284213  0.62699307  0.66660687  1
  O  O235  1  0.50718707  0.62246264  0.91696577  1
  O  O236  1  0.49179769  0.87502516  0.15848461  1
  O  O237  1  0.49304296  0.87267586  0.41380788  1
  O  O238  1  0.50280612  0.87158587  0.67129128  1
  O  O239  1  0.50001958  0.86962601  0.91181815  1
  O  O240  1  0.74721434  0.12185144  0.16697650  1
  O  O241  1  0.74708349  0.12294325  0.41116225  1
  O  O242  1  0.75058093  0.12430070  0.65961821  1
  O  O243  1  0.74989798  0.12631623  0.91376938  1
  O  O244  1  0.75386044  0.37385383  0.16756584  1
  O  O245  1  0.74728600  0.37648569  0.40229743  1
  O  O246  1  0.75538937  0.37736994  0.65789794  1
  O  O247  1  0.74333512  0.38072342  0.91615074  1
  O  O248  1  0.74294667  0.62865921  0.16652547  1
  O  O249  1  0.74707571  0.62916081  0.40349285  1
  O  O250  1  0.74113995  0.62662359  0.66035153  1
  O  O251  1  0.74784911  0.62285186  0.92063561  1
  O  O252  1  0.75179936  0.87665649  0.16255873  1
  O  O253  1  0.74232197  0.87223375  0.39913345  1
  O  O254  1  0.74269857  0.87053297  0.66004842  1
  O  O255  1  0.76122615  0.86986138  0.91471592  1
  O  O256  1  0.12511246  0.12776104  0.04206478  1
  O  O257  1  0.13671677  0.12243148  0.27958445  1
  O  O258  1  0.12853991  0.12436595  0.54737852  1
  O  O259  1  0.12351788  0.12717675  0.79771343  1
  O  O260  1  0.12681310  0.36870528  0.03443583  1
  O  O261  1  0.13017713  0.37956745  0.29536583  1
  O  O262  1  0.13835280  0.37339142  0.53763271  1
  O  O263  1  0.12159041  0.38528799  0.78948186  1
  O  O264  1  0.12562362  0.62683900  0.05206061  1
  O  O265  1  0.13752383  0.62472170  0.28333973  1
  O  O266  1  0.12723684  0.62697554  0.54438590  1
  O  O267  1  0.12283837  0.62293406  0.80119700  1
  O  O268  1  0.12178836  0.87525356  0.04918118  1
  O  O269  1  0.13291399  0.87300597  0.29552761  1
  O  O270  1  0.13352413  0.87510357  0.53996687  1
  O  O271  1  0.12255447  0.86605007  0.78591209  1
  O  O272  1  0.37653758  0.12623096  0.04758613  1
  O  O273  1  0.37839424  0.11787873  0.28401013  1
  O  O274  1  0.37270600  0.12103740  0.55210569  1
  O  O275  1  0.37487986  0.12680559  0.78489982  1
  O  O276  1  0.37695453  0.37192806  0.04710528  1
  O  O277  1  0.37047129  0.37651266  0.29655985  1
  O  O278  1  0.37168287  0.37932579  0.53397918  1
  O  O279  1  0.37929651  0.37977845  0.80053794  1
  O  O280  1  0.36808219  0.62382487  0.03141314  1
  O  O281  1  0.37147320  0.62618889  0.29783738  1
  O  O282  1  0.37538180  0.62823491  0.55016471  1
  O  O283  1  0.37597560  0.61814369  0.80676092  1
  O  O284  1  0.37176139  0.87538609  0.04510846  1
  O  O285  1  0.37516704  0.87213133  0.29867437  1
  O  O286  1  0.37801881  0.87426007  0.55684360  1
  O  O287  1  0.37177232  0.87003844  0.78293529  1
  O  O288  1  0.62737981  0.12374558  0.05147602  1
  O  O289  1  0.61685632  0.11540540  0.28778755  1
  O  O290  1  0.61780241  0.12448540  0.53332023  1
  O  O291  1  0.62217305  0.12479607  0.77941427  1
  O  O292  1  0.61934998  0.37567156  0.04757555  1
  O  O293  1  0.61869050  0.38146645  0.27457218  1
  O  O294  1  0.61636347  0.37814823  0.53087527  1
  O  O295  1  0.62428233  0.38468149  0.80162039  1
  O  O296  1  0.62804010  0.62617730  0.05058400  1
  O  O297  1  0.61525661  0.63412062  0.28227111  1
  O  O298  1  0.61943972  0.63066888  0.54683794  1
  O  O299  1  0.62894279  0.61975096  0.80358887  1
  O  O300  1  0.62531093  0.87536209  0.03415179  1
  O  O301  1  0.61698801  0.87290089  0.29418917  1
  O  O302  1  0.61865272  0.86815978  0.55191177  1
  O  O303  1  0.63003780  0.86516086  0.78736853  1
  O  O304  1  0.87212491  0.12269930  0.05112169  1
  O  O305  1  0.87013598  0.12206990  0.28361121  1
  O  O306  1  0.88032993  0.11812160  0.53290522  1
  O  O307  1  0.87694622  0.13162429  0.78175523  1
  O  O308  1  0.87089181  0.37436213  0.05358854  1
  O  O309  1  0.87763614  0.37236590  0.27770715  1
  O  O310  1  0.87641925  0.37850710  0.54300278  1
  O  O311  1  0.87835750  0.38276259  0.78689607  1
  O  O312  1  0.87327044  0.63348528  0.04695589  1
  O  O313  1  0.87858684  0.62980163  0.27363778  1
  O  O314  1  0.87542010  0.63092406  0.53175068  1
  O  O315  1  0.87455843  0.62242202  0.80232563  1
  O  O316  1  0.87701315  0.87900283  0.05622513  1
  O  O317  1  0.88288172  0.87867088  0.28143991  1
  O  O318  1  0.87898170  0.86811066  0.52950235  1
  O  O319  1  0.88058971  0.87070897  0.79854343  1
