# generated using pymatgen
data_VFe(PbO3)2
_symmetry_space_group_name_H-M   'P 1'
_cell_length_a   15.37786326
_cell_length_b   15.38686850
_cell_length_c   18.50564726
_cell_angle_alpha   90.03311206
_cell_angle_beta   89.98364828
_cell_angle_gamma   89.99741398
_symmetry_Int_Tables_number   1
_chemical_formula_structural   VFe(PbO3)2
_chemical_formula_sum   'V32 Fe32 Pb64 O192'
_cell_volume   4378.75277996
_cell_formula_units_Z   32
loop_
 _symmetry_equiv_pos_site_id
 _symmetry_equiv_pos_as_xyz
  1  'x, y, z'
loop_
 _atom_site_type_symbol
 _atom_site_label
 _atom_site_symmetry_multiplicity
 _atom_site_fract_x
 _atom_site_fract_y
 _atom_site_fract_z
 _atom_site_occupancy
  V  V0  1  0.87395572  0.62375163  0.89042454  1
  V  V1  1  0.37624154  0.37440058  0.63734134  1
  V  V2  1  0.37664920  0.37606561  0.88895617  1
  V  V3  1  0.12711710  0.87819099  0.64159310  1
  V  V4  1  0.87493750  0.87485284  0.89605035  1
  V  V5  1  0.87497636  0.37483282  0.38795755  1
  V  V6  1  0.62511056  0.62676891  0.88965911  1
  V  V7  1  0.87486277  0.12562762  0.89820752  1
  V  V8  1  0.37409340  0.62644318  0.14218709  1
  V  V9  1  0.12834076  0.12770805  0.13698340  1
  V  V10  1  0.12372941  0.37307572  0.89094073  1
  V  V11  1  0.62621980  0.12281348  0.89747444  1
  V  V12  1  0.37322264  0.12965538  0.38501893  1
  V  V13  1  0.87511436  0.87776750  0.63655690  1
  V  V14  1  0.62655510  0.12667436  0.38236568  1
  V  V15  1  0.37681992  0.87861328  0.64000100  1
  V  V16  1  0.37259700  0.37596833  0.13959615  1
  V  V17  1  0.87475238  0.12266846  0.63939461  1
  V  V18  1  0.87849548  0.87431491  0.38512740  1
  V  V19  1  0.12492077  0.12214797  0.89350876  1
  V  V20  1  0.12538648  0.37620909  0.39174657  1
  V  V21  1  0.62550276  0.12153282  0.64062887  1
  V  V22  1  0.12462243  0.87485525  0.13961392  1
  V  V23  1  0.37651004  0.12501457  0.64222700  1
  V  V24  1  0.62217683  0.12521686  0.13471872  1
  V  V25  1  0.12617688  0.62598787  0.13665973  1
  V  V26  1  0.37762430  0.12503077  0.90413336  1
  V  V27  1  0.62453854  0.87748121  0.63678560  1
  V  V28  1  0.62453074  0.62357124  0.14144968  1
  V  V29  1  0.12482822  0.62536494  0.39279775  1
  V  V30  1  0.37265766  0.37580881  0.39042086  1
  V  V31  1  0.62738932  0.87452079  0.89783585  1
  Fe  Fe32  1  0.62546951  0.37463343  0.88775081  1
  Fe  Fe33  1  0.37295917  0.62302817  0.39022570  1
  Fe  Fe34  1  0.87490419  0.12405768  0.13840608  1
  Fe  Fe35  1  0.37500507  0.12661244  0.12853108  1
  Fe  Fe36  1  0.12485268  0.62391741  0.64010949  1
  Fe  Fe37  1  0.12493375  0.12278859  0.63732364  1
  Fe  Fe38  1  0.37553360  0.87436530  0.88791514  1
  Fe  Fe39  1  0.12667123  0.38176722  0.13372101  1
  Fe  Fe40  1  0.87527979  0.12749288  0.37597531  1
  Fe  Fe41  1  0.87342403  0.37416731  0.89083351  1
  Fe  Fe42  1  0.62337705  0.37187994  0.37980616  1
  Fe  Fe43  1  0.62406537  0.37059822  0.63690642  1
  Fe  Fe44  1  0.12530116  0.36909533  0.63463228  1
  Fe  Fe45  1  0.62279644  0.87313838  0.13979907  1
  Fe  Fe46  1  0.37159619  0.87560508  0.38060995  1
  Fe  Fe47  1  0.87633546  0.87244763  0.13454949  1
  Fe  Fe48  1  0.12498466  0.62578105  0.87957032  1
  Fe  Fe49  1  0.12293438  0.87406727  0.88614578  1
  Fe  Fe50  1  0.62535581  0.62396918  0.38410795  1
  Fe  Fe51  1  0.12601050  0.87470698  0.38242456  1
  Fe  Fe52  1  0.87376611  0.37232553  0.63398149  1
  Fe  Fe53  1  0.37374819  0.87449810  0.13958069  1
  Fe  Fe54  1  0.62523093  0.87617247  0.37765710  1
  Fe  Fe55  1  0.37595058  0.62756739  0.63275946  1
  Fe  Fe56  1  0.62495507  0.62576751  0.63040314  1
  Fe  Fe57  1  0.37715213  0.62394436  0.88220750  1
  Fe  Fe58  1  0.87743525  0.62366378  0.39154515  1
  Fe  Fe59  1  0.87615426  0.62643911  0.13447666  1
  Fe  Fe60  1  0.62243832  0.37769485  0.14242287  1
  Fe  Fe61  1  0.87824467  0.37854833  0.13151515  1
  Fe  Fe62  1  0.87452744  0.62698712  0.62893073  1
  Fe  Fe63  1  0.12310730  0.12820387  0.38073463  1
  Pb  Pb64  1  -0.00917989  0.00043228  0.00798770  1
  Pb  Pb65  1  0.00199853  0.00714771  0.24971377  1
  Pb  Pb66  1  0.00548705  0.00924859  0.49146344  1
  Pb  Pb67  1  0.00537830  -0.00532917  0.75390769  1
  Pb  Pb68  1  -0.00470822  0.25394348  0.00650715  1
  Pb  Pb69  1  -0.00098709  0.24759680  0.24435391  1
  Pb  Pb70  1  -0.00125128  0.25450006  0.49896266  1
  Pb  Pb71  1  -0.00507672  0.25562311  0.75050145  1
  Pb  Pb72  1  -0.00056790  0.49293342  0.00069952  1
  Pb  Pb73  1  -0.00906830  0.50248524  0.24849541  1
  Pb  Pb74  1  -0.00179754  0.49792257  0.50605417  1
  Pb  Pb75  1  -0.00383481  0.49870124  0.73964010  1
  Pb  Pb76  1  -0.00581618  0.74662219  -0.00065223  1
  Pb  Pb77  1  -0.00726683  0.74527518  0.25150181  1
  Pb  Pb78  1  0.00077046  0.74153705  0.50405768  1
  Pb  Pb79  1  0.00613810  0.74813573  0.74839038  1
  Pb  Pb80  1  0.25966939  -0.00758764  0.00379780  1
  Pb  Pb81  1  0.24884343  -0.00612328  0.24990889  1
  Pb  Pb82  1  0.24310164  0.00334139  0.49396687  1
  Pb  Pb83  1  0.25146597  -0.01106356  0.75828597  1
  Pb  Pb84  1  0.24935749  0.25189755  0.00341814  1
  Pb  Pb85  1  0.24484872  0.24543400  0.24806288  1
  Pb  Pb86  1  0.23795390  0.24900166  0.50268874  1
  Pb  Pb87  1  0.24792886  0.24686493  0.75031718  1
  Pb  Pb88  1  0.24503507  0.50086970  -0.00436980  1
  Pb  Pb89  1  0.25518825  0.50704652  0.25370135  1
  Pb  Pb90  1  0.24562880  0.50984193  0.51011161  1
  Pb  Pb91  1  0.24676872  0.50935613  0.74742953  1
  Pb  Pb92  1  0.25207969  0.74972303  -0.01039833  1
  Pb  Pb93  1  0.25014590  0.75769239  0.25489662  1
  Pb  Pb94  1  0.25465062  0.74700495  0.49949542  1
  Pb  Pb95  1  0.25102775  0.74232285  0.75291906  1
  Pb  Pb96  1  0.49863833  -0.01257015  0.01105784  1
  Pb  Pb97  1  0.49369693  -0.00744181  0.24481307  1
  Pb  Pb98  1  0.49898362  -0.00248367  0.49031714  1
  Pb  Pb99  1  0.49410907  -0.00587805  0.75704953  1
  Pb  Pb100  1  0.50539416  0.25403708  0.00532640  1
  Pb  Pb101  1  0.50442676  0.25491068  0.24816165  1
  Pb  Pb102  1  0.50520518  0.25431784  0.49895402  1
  Pb  Pb103  1  0.50657210  0.25142289  0.75483901  1
  Pb  Pb104  1  0.50846686  0.49671711  0.00166218  1
  Pb  Pb105  1  0.49831410  0.51175104  0.25955677  1
  Pb  Pb106  1  0.50893055  0.50787211  0.49838234  1
  Pb  Pb107  1  0.50274680  0.50459247  0.74353084  1
  Pb  Pb108  1  0.49766098  0.75765627  0.00374335  1
  Pb  Pb109  1  0.50400724  0.75042927  0.25562441  1
  Pb  Pb110  1  0.49970441  0.74705744  0.48934270  1
  Pb  Pb111  1  0.49173127  0.74737649  0.74780527  1
  Pb  Pb112  1  0.75594254  -0.00072058  0.01071726  1
  Pb  Pb113  1  0.75220626  -0.00346542  0.24203310  1
  Pb  Pb114  1  0.75379721  0.00003725  0.48958995  1
  Pb  Pb115  1  0.74997038  -0.00035558  0.75104640  1
  Pb  Pb116  1  0.75092274  0.25884757  0.00593103  1
  Pb  Pb117  1  0.75272045  0.25590044  0.24083275  1
  Pb  Pb118  1  0.75183514  0.26163299  0.50112049  1
  Pb  Pb119  1  0.75045287  0.26214139  0.75712075  1
  Pb  Pb120  1  0.75337363  0.49589498  0.00217014  1
  Pb  Pb121  1  0.74765054  0.50191806  0.24839256  1
  Pb  Pb122  1  0.74383934  0.50018963  0.49598924  1
  Pb  Pb123  1  0.74986193  0.49473143  0.74073364  1
  Pb  Pb124  1  0.75552562  0.74814623  0.00782198  1
  Pb  Pb125  1  0.74633074  0.74927409  0.24966382  1
  Pb  Pb126  1  0.74537357  0.74247320  0.49262798  1
  Pb  Pb127  1  0.74984790  0.74641390  0.74369846  1
  O  O128  1  0.12787133  -0.00301331  0.15728134  1
  O  O129  1  0.12604407  0.00230608  0.41058576  1
  O  O130  1  0.12471863  -0.00208077  0.66958312  1
  O  O131  1  0.12367619  0.00823544  0.91462824  1
  O  O132  1  0.12754876  0.24672943  0.15627957  1
  O  O133  1  0.12606887  0.25414874  0.41313014  1
  O  O134  1  0.12797365  0.24470380  0.67028738  1
  O  O135  1  0.12523507  0.25248016  0.91831375  1
  O  O136  1  0.13039112  0.51071155  0.16335663  1
  O  O137  1  0.12534051  0.49890906  0.41860731  1
  O  O138  1  0.12722866  0.49442018  0.66315004  1
  O  O139  1  0.12421146  0.49363616  0.90826722  1
  O  O140  1  0.12975725  0.74512870  0.16259764  1
  O  O141  1  0.12562835  0.74314274  0.41268812  1
  O  O142  1  0.12564957  0.76128908  0.66264521  1
  O  O143  1  0.12274544  0.74836045  0.91206114  1
  O  O144  1  0.37247392  0.00345643  0.15935758  1
  O  O145  1  0.37565236  0.01251033  0.40859417  1
  O  O146  1  0.37698177  0.00274652  0.67095906  1
  O  O147  1  0.37561495  0.00229403  0.91853658  1
  O  O148  1  0.37086907  0.25641995  0.15912915  1
  O  O149  1  0.37565548  0.24654904  0.41630138  1
  O  O150  1  0.37872763  0.24327855  0.66649480  1
  O  O151  1  0.37409463  0.25951346  0.91974030  1
  O  O152  1  0.37198060  0.50051851  0.16763857  1
  O  O153  1  0.37260557  0.48914706  0.41385982  1
  O  O154  1  0.37692201  0.49082423  0.65626686  1
  O  O155  1  0.37644408  0.49246119  0.91279405  1
  O  O156  1  0.37377149  0.74173121  0.16176143  1
  O  O157  1  0.37146109  0.75016157  0.41015778  1
  O  O158  1  0.37524285  0.75862530  0.65954562  1
  O  O159  1  0.37793263  0.74829071  0.91164559  1
  O  O160  1  0.62185172  0.00812125  0.15907945  1
  O  O161  1  0.62447286  0.00804792  0.40827794  1
  O  O162  1  0.62394183  -0.00066982  0.67297045  1
  O  O163  1  0.62648036  0.00322307  0.92100741  1
  O  O164  1  0.62229891  0.24534106  0.16157058  1
  O  O165  1  0.62396995  0.24319356  0.41008382  1
  O  O166  1  0.62237160  0.23926359  0.66768311  1
  O  O167  1  0.62532919  0.24342027  0.91946109  1
  O  O168  1  0.61962912  0.50679474  0.16609789  1
  O  O169  1  0.62429688  0.49459647  0.40911230  1
  O  O170  1  0.62302199  0.49819955  0.66018702  1
  O  O171  1  0.62737137  0.50701078  0.91293639  1
  O  O172  1  0.61835386  0.74102526  0.16382770  1
  O  O173  1  0.62495522  0.75315893  0.40919227  1
  O  O174  1  0.62377137  0.75938639  0.66087410  1
  O  O175  1  0.62772020  0.74638843  0.91781781  1
  O  O176  1  0.87847817  -0.00285527  0.16327486  1
  O  O177  1  0.87481854  -0.00373224  0.40784313  1
  O  O178  1  0.87427783  -0.00016789  0.67086425  1
  O  O179  1  0.87396962  0.00111091  0.92165104  1
  O  O180  1  0.87852282  0.25118280  0.15697686  1
  O  O181  1  0.87578256  0.25549763  0.40794544  1
  O  O182  1  0.87165064  0.23679426  0.66302962  1
  O  O183  1  0.87499710  0.24578082  0.92044154  1
  O  O184  1  0.87621800  0.50344263  0.16495198  1
  O  O185  1  0.87813568  0.49146362  0.41438812  1
  O  O186  1  0.87434053  0.49989256  0.65732675  1
  O  O187  1  0.87143656  0.50650479  0.90938533  1
  O  O188  1  0.87776089  0.74891416  0.16768972  1
  O  O189  1  0.87809424  0.75808955  0.41258468  1
  O  O190  1  0.87514673  0.75943159  0.66201695  1
  O  O191  1  0.87124298  0.74782594  0.91682535  1
  O  O192  1  0.01023759  0.12241407  0.15975796  1
  O  O193  1  -0.00269901  0.12689170  0.41001560  1
  O  O194  1  -0.00800746  0.11978215  0.66217903  1
  O  O195  1  0.00458524  0.12805645  0.91859231  1
  O  O196  1  0.00422153  0.37892572  0.16286321  1
  O  O197  1  -0.00099289  0.37389045  0.41422893  1
  O  O198  1  -0.00138273  0.36779010  0.66504890  1
  O  O199  1  0.00503479  0.37380978  0.91204269  1
  O  O200  1  0.00977811  0.62687869  0.15892677  1
  O  O201  1  0.00757870  0.62207386  0.41778076  1
  O  O202  1  -0.00185571  0.62946574  0.66416257  1
  O  O203  1  -0.00809524  0.62605436  0.90683948  1
  O  O204  1  0.00964523  0.87148121  0.16255090  1
  O  O205  1  -0.00387585  0.87673860  0.41050176  1
  O  O206  1  0.00180585  0.87978650  0.66438445  1
  O  O207  1  -0.00474627  0.87630218  0.91569370  1
  O  O208  1  0.24557510  0.12577140  0.16137487  1
  O  O209  1  0.25632765  0.12948585  0.40735083  1
  O  O210  1  0.25998516  0.12193878  0.66757170  1
  O  O211  1  0.24342730  0.13011822  0.91772151  1
  O  O212  1  0.25442252  0.37829178  0.16605754  1
  O  O213  1  0.25385380  0.37002349  0.41585262  1
  O  O214  1  0.26068187  0.36614586  0.66279104  1
  O  O215  1  0.25018329  0.37500068  0.91255895  1
  O  O216  1  0.25194407  0.62459046  0.16435106  1
  O  O217  1  0.24336769  0.61992128  0.41716631  1
  O  O218  1  0.25268288  0.62688686  0.66474393  1
  O  O219  1  0.25054900  0.62061181  0.90972720  1
  O  O220  1  0.24375005  0.87142246  0.16349709  1
  O  O221  1  0.24934675  0.87757876  0.41637142  1
  O  O222  1  0.24790379  0.88218800  0.66255006  1
  O  O223  1  0.24841084  0.87767935  0.91411964  1
  O  O224  1  0.50270965  0.12863271  0.15770392  1
  O  O225  1  0.50081381  0.12764932  0.40939060  1
  O  O226  1  0.49707243  0.12028248  0.66904682  1
  O  O227  1  0.50521978  0.12645282  0.91974760  1
  O  O228  1  0.48859282  0.37727052  0.16556669  1
  O  O229  1  0.49248387  0.36746718  0.41065234  1
  O  O230  1  0.49312362  0.36729372  0.66639878  1
  O  O231  1  0.49585180  0.37434128  0.91291318  1
  O  O232  1  0.49419793  0.62193302  0.16548731  1
  O  O233  1  0.49861202  0.62166461  0.41229219  1
  O  O234  1  0.50027779  0.62730121  0.66302325  1
  O  O235  1  0.50868155  0.62476655  0.91155509  1
  O  O236  1  0.49781294  0.87332263  0.16633865  1
  O  O237  1  0.49832591  0.88056720  0.40779643  1
  O  O238  1  0.50075451  0.88083056  0.66700304  1
  O  O239  1  0.50532622  0.87615766  0.91783712  1
  O  O240  1  0.74219029  0.12546378  0.15882574  1
  O  O241  1  0.74492660  0.12484958  0.40363715  1
  O  O242  1  0.75159233  0.11628949  0.66575776  1
  O  O243  1  0.74657241  0.12395076  0.92163036  1
  O  O244  1  0.75005073  0.37819411  0.16046764  1
  O  O245  1  0.75494476  0.37232287  0.40748635  1
  O  O246  1  0.74934811  0.36761887  0.66512703  1
  O  O247  1  0.74834382  0.37400260  0.91870681  1
  O  O248  1  0.74245248  0.62531106  0.15865526  1
  O  O249  1  0.75176717  0.62388384  0.41114731  1
  O  O250  1  0.74977884  0.63019056  0.66147290  1
  O  O251  1  0.74847858  0.62704541  0.91818770  1
  O  O252  1  0.74922071  0.87234814  0.16057477  1
  O  O253  1  0.75631777  0.87761189  0.40904913  1
  O  O254  1  0.74926831  0.88062182  0.66438401  1
  O  O255  1  0.75005287  0.87609736  0.92309681  1
  O  O256  1  0.12889360  0.12516847  0.04592952  1
  O  O257  1  0.12420233  0.12957612  0.28049864  1
  O  O258  1  0.13001720  0.12237349  0.53764916  1
  O  O259  1  0.12441205  0.12542832  0.80226493  1
  O  O260  1  0.12587586  0.38402613  0.03368897  1
  O  O261  1  0.12600329  0.37799627  0.30066612  1
  O  O262  1  0.12389564  0.36400801  0.53438294  1
  O  O263  1  0.12652421  0.36568087  0.80009707  1
  O  O264  1  0.12894641  0.62413586  0.04534422  1
  O  O265  1  0.12586335  0.62186447  0.30173830  1
  O  O266  1  0.12709137  0.62512960  0.53904031  1
  O  O267  1  0.13009348  0.63038375  0.77862413  1
  O  O268  1  0.12517855  0.87189104  0.04855277  1
  O  O269  1  0.13388384  0.87249603  0.28285183  1
  O  O270  1  0.12551308  0.88104749  0.55065901  1
  O  O271  1  0.12227793  0.88167859  0.78611452  1
  O  O272  1  0.36950348  0.13121365  0.02747481  1
  O  O273  1  0.37439022  0.13355026  0.29389561  1
  O  O274  1  0.37731130  0.12368083  0.55166029  1
  O  O275  1  0.37624013  0.12922062  0.81265874  1
  O  O276  1  0.37313506  0.38135011  0.04846153  1
  O  O277  1  0.37034602  0.37346308  0.29924962  1
  O  O278  1  0.37904905  0.36786385  0.54656699  1
  O  O279  1  0.37596717  0.37307185  0.79819418  1
  O  O280  1  0.37564915  0.62085530  0.05126531  1
  O  O281  1  0.37242280  0.61487579  0.28901482  1
  O  O282  1  0.36893227  0.62351004  0.53192428  1
  O  O283  1  0.37790272  0.62597885  0.78183270  1
  O  O284  1  0.37816059  0.87565618  0.03742829  1
  O  O285  1  0.36432365  0.87914000  0.27938611  1
  O  O286  1  0.37854170  0.88588037  0.54926781  1
  O  O287  1  0.37731182  0.88198096  0.78683535  1
  O  O288  1  0.62358915  0.12769036  0.04334073  1
  O  O289  1  0.62181901  0.12754677  0.29171688  1
  O  O290  1  0.62508254  0.12006410  0.54980024  1
  O  O291  1  0.62675942  0.12177232  0.80653695  1
  O  O292  1  0.61525100  0.37836556  0.04077109  1
  O  O293  1  0.62248186  0.36780835  0.27902552  1
  O  O294  1  0.62649747  0.36217943  0.53636541  1
  O  O295  1  0.62619255  0.36557563  0.78753066  1
  O  O296  1  0.61866234  0.62119686  0.04998765  1
  O  O297  1  0.61954427  0.62528744  0.28263285  1
  O  O298  1  0.62419604  0.62334618  0.52982659  1
  O  O299  1  0.62921989  0.62972807  0.79864556  1
  O  O300  1  0.61346107  0.87297105  0.03806630  1
  O  O301  1  0.62515256  0.87267402  0.27739195  1
  O  O302  1  0.62366395  0.88385942  0.54597335  1
  O  O303  1  0.62915316  0.87529095  0.80695331  1
  O  O304  1  0.87853622  0.11708907  0.03668458  1
  O  O305  1  0.88235264  0.12528324  0.27579215  1
  O  O306  1  0.87088981  0.12028385  0.54831175  1
  O  O307  1  0.87418496  0.12205737  0.80713316  1
  O  O308  1  0.88139644  0.38178965  0.02898441  1
  O  O309  1  0.87907626  0.37859366  0.29649172  1
  O  O310  1  0.87315404  0.36350746  0.53380322  1
  O  O311  1  0.87137723  0.36513421  0.79035569  1
  O  O312  1  0.87472531  0.63044819  0.03411445  1
  O  O313  1  0.88624892  0.62495426  0.29085866  1
  O  O314  1  0.88267750  0.62978607  0.52812261  1
  O  O315  1  0.86628276  0.63068413  0.79982772  1
  O  O316  1  0.87877568  0.87251114  0.03366839  1
  O  O317  1  0.87837601  0.87186722  0.29375500  1
  O  O318  1  0.87523288  0.88322428  0.54599416  1
  O  O319  1  0.87078555  0.87611627  0.80497002  1
