# generated using pymatgen
data_VFe(PbO3)2
_symmetry_space_group_name_H-M   'P 1'
_cell_length_a   15.38386294
_cell_length_b   15.37796863
_cell_length_c   18.51410271
_cell_angle_alpha   90.00872232
_cell_angle_beta   90.03159123
_cell_angle_gamma   90.00513170
_symmetry_Int_Tables_number   1
_chemical_formula_structural   VFe(PbO3)2
_chemical_formula_sum   'V32 Fe32 Pb64 O192'
_cell_volume   4379.92797036
_cell_formula_units_Z   32
loop_
 _symmetry_equiv_pos_site_id
 _symmetry_equiv_pos_as_xyz
  1  'x, y, z'
loop_
 _atom_site_type_symbol
 _atom_site_label
 _atom_site_symmetry_multiplicity
 _atom_site_fract_x
 _atom_site_fract_y
 _atom_site_fract_z
 _atom_site_occupancy
  V  V0  1  0.87311608  0.37623538  0.38961066  1
  V  V1  1  0.62509550  0.62486343  0.63852114  1
  V  V2  1  0.62870333  0.62535585  0.38926121  1
  V  V3  1  0.87640283  0.62617787  0.89523450  1
  V  V4  1  0.87311774  0.87498698  0.39389244  1
  V  V5  1  0.37437510  0.12352596  0.88396290  1
  V  V6  1  0.87732778  0.87648973  0.88377268  1
  V  V7  1  0.37568130  0.87376170  0.63851819  1
  V  V8  1  0.62750626  0.12501338  0.39278279  1
  V  V9  1  0.12498351  0.37612463  0.89016918  1
  V  V10  1  0.62774925  0.37611925  0.89287508  1
  V  V11  1  0.37368137  0.12564445  0.13751436  1
  V  V12  1  0.87476922  0.62743333  0.38675494  1
  V  V13  1  0.12903743  0.62392922  0.63389471  1
  V  V14  1  0.62366025  0.12106128  0.13657955  1
  V  V15  1  0.87753921  0.62494392  0.63929132  1
  V  V16  1  0.37401916  0.62514227  0.14124304  1
  V  V17  1  0.37397374  0.87742104  0.14049261  1
  V  V18  1  0.87873212  0.37605425  0.89198375  1
  V  V19  1  0.37434737  0.37543445  0.89091930  1
  V  V20  1  0.62571071  0.87689925  0.39300744  1
  V  V21  1  0.62200313  0.12662921  0.64059008  1
  V  V22  1  0.37510480  0.87634530  0.39280317  1
  V  V23  1  0.37746652  0.12399238  0.39647281  1
  V  V24  1  0.12463071  0.62716724  0.14169022  1
  V  V25  1  0.37710778  0.62202807  0.88840708  1
  V  V26  1  0.87698293  0.87626823  0.13597149  1
  V  V27  1  0.37709313  0.37558406  0.38876124  1
  V  V28  1  0.12331963  0.62575021  0.38982913  1
  V  V29  1  0.37852699  0.37662280  0.63513197  1
  V  V30  1  0.12778268  0.62092391  0.89062227  1
  V  V31  1  0.87483411  0.12391400  0.39628650  1
  Fe  Fe32  1  0.37861717  0.62755996  0.39666538  1
  Fe  Fe33  1  0.12872246  0.87457898  0.13971897  1
  Fe  Fe34  1  0.12867909  0.37371265  0.13595555  1
  Fe  Fe35  1  0.37165913  0.87328516  0.88148734  1
  Fe  Fe36  1  0.12652304  0.12693083  0.88210077  1
  Fe  Fe37  1  0.12726307  0.12594721  0.62979936  1
  Fe  Fe38  1  0.37364030  0.37246555  0.13581341  1
  Fe  Fe39  1  0.87573670  0.37333718  0.13321504  1
  Fe  Fe40  1  0.12428604  0.37871532  0.62682163  1
  Fe  Fe41  1  0.87752895  0.62659344  0.13388286  1
  Fe  Fe42  1  0.62338197  0.87363388  0.88100411  1
  Fe  Fe43  1  0.62608972  0.87442687  0.64346157  1
  Fe  Fe44  1  0.12383725  0.87290132  0.88311528  1
  Fe  Fe45  1  0.37706994  0.62571935  0.62598547  1
  Fe  Fe46  1  0.62563072  0.62148202  0.89477927  1
  Fe  Fe47  1  0.62527028  0.37683694  0.63178002  1
  Fe  Fe48  1  0.62290982  0.12872563  0.88217656  1
  Fe  Fe49  1  0.12545524  0.12391517  0.39569182  1
  Fe  Fe50  1  0.87562379  0.12370015  0.13149898  1
  Fe  Fe51  1  0.12398066  0.87187447  0.63378226  1
  Fe  Fe52  1  0.37757900  0.12369857  0.63159579  1
  Fe  Fe53  1  0.12359297  0.87423226  0.39181518  1
  Fe  Fe54  1  0.87431188  0.12751237  0.88266933  1
  Fe  Fe55  1  0.62074815  0.37494842  0.13617361  1
  Fe  Fe56  1  0.87385997  0.12642624  0.63312046  1
  Fe  Fe57  1  0.62204505  0.87459954  0.13346487  1
  Fe  Fe58  1  0.62476878  0.37269196  0.38972391  1
  Fe  Fe59  1  0.87116639  0.37786372  0.63444854  1
  Fe  Fe60  1  0.62403352  0.62860137  0.12838527  1
  Fe  Fe61  1  0.12548435  0.37547017  0.39595530  1
  Fe  Fe62  1  0.12637393  0.12259822  0.13451393  1
  Fe  Fe63  1  0.87271438  0.87373237  0.63551490  1
  Pb  Pb64  1  0.00635584  0.00888988  -0.00463427  1
  Pb  Pb65  1  0.00935287  0.00577724  0.25128187  1
  Pb  Pb66  1  0.00714095  -0.00063490  0.50643359  1
  Pb  Pb67  1  0.00120887  0.00643709  0.73926660  1
  Pb  Pb68  1  0.00200312  0.24001998  0.00115187  1
  Pb  Pb69  1  0.00299533  0.24610289  0.24381788  1
  Pb  Pb70  1  0.00260504  0.24842544  0.50301219  1
  Pb  Pb71  1  -0.00068150  0.24543437  0.73841045  1
  Pb  Pb72  1  -0.00579720  0.49599444  0.00748235  1
  Pb  Pb73  1  -0.00013287  0.49215679  0.24657643  1
  Pb  Pb74  1  -0.00316631  0.49373300  0.50031553  1
  Pb  Pb75  1  0.00045173  0.49543707  0.74611176  1
  Pb  Pb76  1  -0.00278329  0.74766936  0.00132002  1
  Pb  Pb77  1  0.00669571  0.75983294  0.25206310  1
  Pb  Pb78  1  -0.00262256  0.75833674  0.50330883  1
  Pb  Pb79  1  0.00508531  0.75709251  0.74918954  1
  Pb  Pb80  1  0.23748293  -0.00250403  -0.00343350  1
  Pb  Pb81  1  0.23829968  0.00255004  0.25793129  1
  Pb  Pb82  1  0.24161117  0.00146333  0.50489646  1
  Pb  Pb83  1  0.24043008  0.00158715  0.74458031  1
  Pb  Pb84  1  0.24492701  0.25308732  0.00029816  1
  Pb  Pb85  1  0.23137498  0.25301491  0.25869248  1
  Pb  Pb86  1  0.24343071  0.24722474  0.50186499  1
  Pb  Pb87  1  0.24132246  0.24405993  0.74137345  1
  Pb  Pb88  1  0.24832814  0.49088872  0.00576799  1
  Pb  Pb89  1  0.24869832  0.49334901  0.25430059  1
  Pb  Pb90  1  0.25290230  0.50220722  0.49890485  1
  Pb  Pb91  1  0.25623955  0.49868774  0.74297253  1
  Pb  Pb92  1  0.24408154  0.75787544  0.00030618  1
  Pb  Pb93  1  0.25768714  0.74541318  0.25745660  1
  Pb  Pb94  1  0.25008903  0.75120197  0.50169208  1
  Pb  Pb95  1  0.25357593  0.76005927  0.75137311  1
  Pb  Pb96  1  0.50432249  -0.00617861  -0.00925945  1
  Pb  Pb97  1  0.49680484  0.00062579  0.24995433  1
  Pb  Pb98  1  0.50196472  0.00080813  0.50732540  1
  Pb  Pb99  1  0.50453027  -0.00345188  0.75183314  1
  Pb  Pb100  1  0.49796962  0.25815401  0.00188894  1
  Pb  Pb101  1  0.50296663  0.25597886  0.25202766  1
  Pb  Pb102  1  0.49768446  0.24679832  0.50310686  1
  Pb  Pb103  1  0.50247027  0.24821650  0.74926672  1
  Pb  Pb104  1  0.50211374  0.49177436  0.00690197  1
  Pb  Pb105  1  0.50510106  0.49784311  0.24860629  1
  Pb  Pb106  1  0.50499246  0.49818874  0.49939657  1
  Pb  Pb107  1  0.50516862  0.50855976  0.75045564  1
  Pb  Pb108  1  0.50888609  0.75333787  -0.00161722  1
  Pb  Pb109  1  0.49645385  0.74412587  0.25233636  1
  Pb  Pb110  1  0.50924474  0.75606195  0.50537266  1
  Pb  Pb111  1  0.49891387  0.75469360  0.75323714  1
  Pb  Pb112  1  0.74937387  0.00408132  -0.01009718  1
  Pb  Pb113  1  0.75285374  -0.00328373  0.24589404  1
  Pb  Pb114  1  0.75722847  -0.00056577  0.50930333  1
  Pb  Pb115  1  0.75359107  0.00701961  0.74812746  1
  Pb  Pb116  1  0.75626064  0.24874398  0.00096211  1
  Pb  Pb117  1  0.74904460  0.25501088  0.24487699  1
  Pb  Pb118  1  0.75881908  0.25098015  0.50651903  1
  Pb  Pb119  1  0.75302354  0.24713514  0.74770435  1
  Pb  Pb120  1  0.75655973  0.49656427  0.00761451  1
  Pb  Pb121  1  0.74720098  0.49963622  0.23906305  1
  Pb  Pb122  1  0.75002070  0.49143006  0.50178973  1
  Pb  Pb123  1  0.74267942  0.50459364  0.75288191  1
  Pb  Pb124  1  0.74170309  0.74980646  -0.00019488  1
  Pb  Pb125  1  0.74681962  0.74766814  0.24168597  1
  Pb  Pb126  1  0.74924739  0.75937478  0.50657023  1
  Pb  Pb127  1  0.74197722  0.75160603  0.75301587  1
  O  O128  1  0.12892073  -0.00130359  0.16924276  1
  O  O129  1  0.12401942  -0.00199141  0.41945724  1
  O  O130  1  0.12736927  -0.00197916  0.65650478  1
  O  O131  1  0.12579194  -0.00032883  0.90854990  1
  O  O132  1  0.13008251  0.24693017  0.16492385  1
  O  O133  1  0.12530448  0.25006645  0.41762735  1
  O  O134  1  0.12793696  0.25489731  0.65393484  1
  O  O135  1  0.12707028  0.25608305  0.91161493  1
  O  O136  1  0.13036765  0.50945429  0.16590061  1
  O  O137  1  0.12316147  0.50798282  0.41400844  1
  O  O138  1  0.12432726  0.50670858  0.66221827  1
  O  O139  1  0.12113219  0.50239095  0.91905302  1
  O  O140  1  0.12781856  0.74603950  0.16890528  1
  O  O141  1  0.12173973  0.74364744  0.41601723  1
  O  O142  1  0.12329258  0.73869731  0.65981202  1
  O  O143  1  0.12284377  0.73886779  0.91428717  1
  O  O144  1  0.37792861  -0.00319896  0.16519883  1
  O  O145  1  0.38054851  -0.00595987  0.41943683  1
  O  O146  1  0.37644372  -0.00759919  0.65954335  1
  O  O147  1  0.37524120  0.00677085  0.90219899  1
  O  O148  1  0.38101562  0.23989171  0.15735854  1
  O  O149  1  0.38013711  0.25215343  0.41510202  1
  O  O150  1  0.37787767  0.25953307  0.65818910  1
  O  O151  1  0.37360930  0.25417333  0.91264321  1
  O  O152  1  0.37385937  0.50917448  0.16270425  1
  O  O153  1  0.37752915  0.49486028  0.41052822  1
  O  O154  1  0.37662877  0.49901144  0.66118608  1
  O  O155  1  0.37144172  0.50306705  0.91832030  1
  O  O156  1  0.37349948  0.75158487  0.16738810  1
  O  O157  1  0.37863586  0.75986995  0.41849390  1
  O  O158  1  0.37635927  0.75032841  0.65887108  1
  O  O159  1  0.36708505  0.73649579  0.91040501  1
  O  O160  1  0.62174828  0.00194205  0.16498668  1
  O  O161  1  0.62692180  0.00244260  0.41938608  1
  O  O162  1  0.62103939  0.00591509  0.66265890  1
  O  O163  1  0.62299640  0.00054379  0.90800506  1
  O  O164  1  0.61888807  0.23810860  0.16220036  1
  O  O165  1  0.62433539  0.24203928  0.41450352  1
  O  O166  1  0.62025264  0.24774338  0.66018298  1
  O  O167  1  0.62357857  0.25845500  0.91438848  1
  O  O168  1  0.61972911  0.50405755  0.15973796  1
  O  O169  1  0.62724502  0.50675676  0.40955777  1
  O  O170  1  0.62518682  0.50622811  0.66533987  1
  O  O171  1  0.62509125  0.49232680  0.91943728  1
  O  O172  1  0.62317670  0.75185663  0.16470979  1
  O  O173  1  0.62813553  0.74999262  0.41674151  1
  O  O174  1  0.62471465  0.74059187  0.66524948  1
  O  O175  1  0.62672999  0.74901060  0.91201520  1
  O  O176  1  0.87329986  -0.00540467  0.16394424  1
  O  O177  1  0.86918302  0.00367849  0.41798493  1
  O  O178  1  0.87166511  0.00055726  0.66005351  1
  O  O179  1  0.87584415  -0.00737973  0.90328042  1
  O  O180  1  0.87245963  0.24722785  0.16456141  1
  O  O181  1  0.87048391  0.24948674  0.41437543  1
  O  O182  1  0.87185184  0.25198225  0.66164830  1
  O  O183  1  0.87317569  0.25948925  0.91073727  1
  O  O184  1  0.87712972  0.50088676  0.16514069  1
  O  O185  1  0.87302212  0.49800909  0.40975880  1
  O  O186  1  0.87238347  0.50966410  0.66791809  1
  O  O187  1  0.87639465  0.49856611  0.91853535  1
  O  O188  1  0.87757182  0.75799756  0.16220474  1
  O  O189  1  0.87253084  0.74865855  0.41529663  1
  O  O190  1  0.87295724  0.73863244  0.66636104  1
  O  O191  1  0.87786016  0.74645837  0.91361137  1
  O  O192  1  -0.00005109  0.12254720  0.16349667  1
  O  O193  1  -0.00920155  0.12527360  0.41367057  1
  O  O194  1  0.00119136  0.12654221  0.65476414  1
  O  O195  1  -0.00035443  0.12860717  0.91082880  1
  O  O196  1  0.00306006  0.37563186  0.16331798  1
  O  O197  1  -0.00916751  0.37453245  0.41321332  1
  O  O198  1  -0.00075192  0.38120517  0.66047532  1
  O  O199  1  -0.00297833  0.37798229  0.91251305  1
  O  O200  1  0.00839100  0.62751301  0.16479597  1
  O  O201  1  -0.00189883  0.62472094  0.41480149  1
  O  O202  1  -0.00166202  0.62270465  0.65930049  1
  O  O203  1  0.00040663  0.62135781  0.91813656  1
  O  O204  1  -0.00459109  0.87646165  0.16285545  1
  O  O205  1  -0.00672931  0.87474748  0.41650535  1
  O  O206  1  -0.00148188  0.86877096  0.66252700  1
  O  O207  1  -0.00601534  0.86880712  0.91084415  1
  O  O208  1  0.26070680  0.11886309  0.16268558  1
  O  O209  1  0.25759331  0.12275693  0.41667902  1
  O  O210  1  0.25426538  0.12646302  0.65798486  1
  O  O211  1  0.25873539  0.13008972  0.91038685  1
  O  O212  1  0.25304593  0.37671709  0.16999652  1
  O  O213  1  0.26066981  0.37448629  0.41533491  1
  O  O214  1  0.25730818  0.38152262  0.65704831  1
  O  O215  1  0.24902634  0.37981112  0.91612663  1
  O  O216  1  0.25137194  0.62981755  0.16837509  1
  O  O217  1  0.24284449  0.62721806  0.41280596  1
  O  O218  1  0.24575269  0.62179691  0.65356437  1
  O  O219  1  0.24390547  0.61829034  0.91310177  1
  O  O220  1  0.25961415  0.87429716  0.16870316  1
  O  O221  1  0.25755377  0.87523225  0.41348728  1
  O  O222  1  0.25481231  0.86869090  0.65861792  1
  O  O223  1  0.24926667  0.87092839  0.91460667  1
  O  O224  1  0.49887937  0.11763276  0.16546234  1
  O  O225  1  0.50690880  0.12151530  0.41908765  1
  O  O226  1  0.50125675  0.12630426  0.66619936  1
  O  O227  1  0.49153466  0.13119247  0.91133666  1
  O  O228  1  0.49569161  0.37425399  0.17007167  1
  O  O229  1  0.49547210  0.37515486  0.41524525  1
  O  O230  1  0.49645589  0.37994274  0.66255359  1
  O  O231  1  0.50035908  0.37788453  0.91476966  1
  O  O232  1  0.49207962  0.63041567  0.16239231  1
  O  O233  1  0.51170774  0.62831152  0.41510165  1
  O  O234  1  0.50519943  0.62311159  0.65784160  1
  O  O235  1  0.49123181  0.62075544  0.90948677  1
  O  O236  1  0.49161502  0.87359820  0.16639439  1
  O  O237  1  0.50188335  0.87560435  0.41858635  1
  O  O238  1  0.49492694  0.87107473  0.66409140  1
  O  O239  1  0.49519806  0.87145498  0.90986226  1
  O  O240  1  0.74082024  0.12100154  0.15963152  1
  O  O241  1  0.74599532  0.12454597  0.41880284  1
  O  O242  1  0.74075255  0.12693999  0.66085931  1
  O  O243  1  0.74890501  0.12798206  0.91329745  1
  O  O244  1  0.74701640  0.37312644  0.16218997  1
  O  O245  1  0.75432663  0.37458299  0.41275886  1
  O  O246  1  0.74670099  0.37901052  0.66515652  1
  O  O247  1  0.74985783  0.37812216  0.91266969  1
  O  O248  1  0.75089312  0.62823553  0.15932071  1
  O  O249  1  0.74823423  0.62644329  0.41423322  1
  O  O250  1  0.74807551  0.62417389  0.66381303  1
  O  O251  1  0.75911371  0.62108312  0.91509891  1
  O  O252  1  0.75504172  0.87603971  0.16077367  1
  O  O253  1  0.74860783  0.87572777  0.42038891  1
  O  O254  1  0.75028216  0.87018572  0.66861953  1
  O  O255  1  0.75935602  0.87037365  0.90714629  1
  O  O256  1  0.12383055  0.12168875  0.03328392  1
  O  O257  1  0.12909103  0.12105946  0.29343935  1
  O  O258  1  0.12605739  0.12329880  0.52705957  1
  O  O259  1  0.13361671  0.12747342  0.78173277  1
  O  O260  1  0.13390341  0.37560927  0.03557994  1
  O  O261  1  0.13353458  0.37496299  0.29455126  1
  O  O262  1  0.12308623  0.38189210  0.52565697  1
  O  O263  1  0.12625475  0.38194594  0.79924994  1
  O  O264  1  0.12657794  0.62825949  0.05073487  1
  O  O265  1  0.12163995  0.62732516  0.29882077  1
  O  O266  1  0.12476526  0.62297174  0.54285596  1
  O  O267  1  0.12516383  0.61957796  0.79990137  1
  O  O268  1  0.13406515  0.87460947  0.03957265  1
  O  O269  1  0.12143488  0.87539606  0.29106833  1
  O  O270  1  0.12283752  0.86940946  0.53211664  1
  O  O271  1  0.12950061  0.86329822  0.78282908  1
  O  O272  1  0.37475506  0.12005024  0.04679873  1
  O  O273  1  0.38301800  0.11932969  0.30531060  1
  O  O274  1  0.38759331  0.12507605  0.53175057  1
  O  O275  1  0.37545563  0.13035689  0.79272311  1
  O  O276  1  0.37695350  0.37705204  0.03526553  1
  O  O277  1  0.37699184  0.37227034  0.29738366  1
  O  O278  1  0.38097954  0.37894307  0.54387305  1
  O  O279  1  0.37403417  0.38039822  0.80002067  1
  O  O280  1  0.37128152  0.62824083  0.05077379  1
  O  O281  1  0.37736152  0.63627579  0.29632558  1
  O  O282  1  0.37255570  0.62306738  0.52514583  1
  O  O283  1  0.37268041  0.61794592  0.79675952  1
  O  O284  1  0.37239835  0.87551033  0.04942285  1
  O  O285  1  0.37847407  0.87717592  0.30159906  1
  O  O286  1  0.37754007  0.87312815  0.54697523  1
  O  O287  1  0.37015089  0.86381754  0.78183886  1
  O  O288  1  0.62084464  0.11996990  0.04560101  1
  O  O289  1  0.62713841  0.12149802  0.30204968  1
  O  O290  1  0.61935278  0.12556563  0.54910512  1
  O  O291  1  0.62059092  0.13140463  0.78283266  1
  O  O292  1  0.61300431  0.37191898  0.03621842  1
  O  O293  1  0.61809347  0.37002960  0.28975253  1
  O  O294  1  0.62541070  0.38558324  0.53118057  1
  O  O295  1  0.62510325  0.37865323  0.80162908  1
  O  O296  1  0.62289166  0.63310661  0.02714788  1
  O  O297  1  0.62787379  0.63068745  0.29818461  1
  O  O298  1  0.62833847  0.62423620  0.54726844  1
  O  O299  1  0.62534147  0.61461814  0.79372810  1
  O  O300  1  0.61845445  0.87227440  0.03368087  1
  O  O301  1  0.62575030  0.87687855  0.30214731  1
  O  O302  1  0.62497615  0.86638359  0.54230247  1
  O  O303  1  0.61706851  0.86928125  0.77935183  1
  O  O304  1  0.87568207  0.12753309  0.03110546  1
  O  O305  1  0.86774107  0.12230509  0.30553381  1
  O  O306  1  0.86590777  0.12900522  0.53167883  1
  O  O307  1  0.86907489  0.12820060  0.78202121  1
  O  O308  1  0.87234994  0.37859319  0.03245081  1
  O  O309  1  0.87304340  0.37347206  0.29867764  1
  O  O310  1  0.86831723  0.38127595  0.53367973  1
  O  O311  1  0.87746962  0.38186047  0.80124349  1
  O  O312  1  0.88322470  0.62348720  0.03416915  1
  O  O313  1  0.87606379  0.62842231  0.29617294  1
  O  O314  1  0.87420095  0.62368575  0.54825441  1
  O  O315  1  0.88003037  0.62365175  0.80460185  1
  O  O316  1  0.87762153  0.87694796  0.04514110  1
  O  O317  1  0.86925515  0.87755480  0.30290001  1
  O  O318  1  0.86886328  0.86966777  0.53436945  1
  O  O319  1  0.87956915  0.86905236  0.79286692  1
