# generated using pymatgen
data_VFe(PbO3)2
_symmetry_space_group_name_H-M   'P 1'
_cell_length_a   15.39242020
_cell_length_b   15.39017442
_cell_length_c   18.49714322
_cell_angle_alpha   90.00159407
_cell_angle_beta   89.95413952
_cell_angle_gamma   90.01772765
_symmetry_Int_Tables_number   1
_chemical_formula_structural   VFe(PbO3)2
_chemical_formula_sum   'V32 Fe32 Pb64 O192'
_cell_volume   4381.82421957
_cell_formula_units_Z   32
loop_
 _symmetry_equiv_pos_site_id
 _symmetry_equiv_pos_as_xyz
  1  'x, y, z'
loop_
 _atom_site_type_symbol
 _atom_site_label
 _atom_site_symmetry_multiplicity
 _atom_site_fract_x
 _atom_site_fract_y
 _atom_site_fract_z
 _atom_site_occupancy
  V  V0  1  0.12548990  0.37172367  0.14680572  1
  V  V1  1  0.37557155  0.12472509  0.39467369  1
  V  V2  1  0.88058097  0.87535037  0.13994650  1
  V  V3  1  0.62767988  0.37477909  0.64613454  1
  V  V4  1  0.12546589  0.62570144  0.63627369  1
  V  V5  1  0.87206961  0.62465921  0.64172069  1
  V  V6  1  0.12746281  0.62834957  0.88948344  1
  V  V7  1  0.62491355  0.37426182  0.38731363  1
  V  V8  1  0.36982621  0.37197432  0.13977934  1
  V  V9  1  0.12736223  0.12200617  0.14073341  1
  V  V10  1  0.12486378  0.37804986  0.88333937  1
  V  V11  1  0.12310793  0.88033097  0.88822776  1
  V  V12  1  0.62247094  0.12787957  0.38749144  1
  V  V13  1  0.87156670  0.37342749  0.38957677  1
  V  V14  1  0.37697860  0.87715121  0.39385442  1
  V  V15  1  0.63380173  0.62525585  0.90427136  1
  V  V16  1  0.87238340  0.62589803  0.38525241  1
  V  V17  1  0.62402396  0.87931427  0.38604222  1
  V  V18  1  0.37237889  0.62260817  0.14129813  1
  V  V19  1  0.12239227  0.87548536  0.39102061  1
  V  V20  1  0.87640301  0.37467723  0.89185312  1
  V  V21  1  0.62687983  0.87225106  0.64342317  1
  V  V22  1  0.12205219  0.37472749  0.63626950  1
  V  V23  1  0.62053016  0.87455405  0.89435294  1
  V  V24  1  0.37744989  0.62702546  0.89115682  1
  V  V25  1  0.12336184  0.13109877  0.88311998  1
  V  V26  1  0.87124263  0.87427583  0.63925296  1
  V  V27  1  0.37765296  0.62465592  0.63856116  1
  V  V28  1  0.62425690  0.62469020  0.38495532  1
  V  V29  1  0.87272204  0.87368142  0.89203505  1
  V  V30  1  0.62349584  0.62581792  0.64258716  1
  V  V31  1  0.12559159  0.62327496  0.14597339  1
  Fe  Fe32  1  0.12186790  0.87022043  0.63156136  1
  Fe  Fe33  1  0.87925389  0.12637226  0.12984126  1
  Fe  Fe34  1  0.12488349  0.12757843  0.39824296  1
  Fe  Fe35  1  0.37057288  0.37737596  0.87831305  1
  Fe  Fe36  1  0.12345282  0.12245952  0.62662831  1
  Fe  Fe37  1  0.88143852  0.62690928  0.90015154  1
  Fe  Fe38  1  0.62252517  0.12495355  0.12650780  1
  Fe  Fe39  1  0.37632097  0.12504759  0.63985688  1
  Fe  Fe40  1  0.87941665  0.37465115  0.13317466  1
  Fe  Fe41  1  0.62691344  0.12299370  0.88620471  1
  Fe  Fe42  1  0.37173360  0.12291314  0.88064398  1
  Fe  Fe43  1  0.12582624  0.62415216  0.38417671  1
  Fe  Fe44  1  0.62376473  0.37508008  0.12341749  1
  Fe  Fe45  1  0.62151908  0.87529079  0.12944138  1
  Fe  Fe46  1  0.87341347  0.37953868  0.63574289  1
  Fe  Fe47  1  0.37795263  0.37832278  0.64590988  1
  Fe  Fe48  1  0.62426699  0.37708257  0.89533980  1
  Fe  Fe49  1  0.37844502  0.62571557  0.38250598  1
  Fe  Fe50  1  0.62763656  0.12222367  0.64481588  1
  Fe  Fe51  1  0.87897750  0.62260145  0.12774508  1
  Fe  Fe52  1  0.87952393  0.12311775  0.89462637  1
  Fe  Fe53  1  0.62428000  0.62409446  0.12562576  1
  Fe  Fe54  1  0.87214901  0.12887870  0.63320074  1
  Fe  Fe55  1  0.87044530  0.87505571  0.38206348  1
  Fe  Fe56  1  0.12608578  0.87417733  0.13812306  1
  Fe  Fe57  1  0.36964034  0.12594922  0.13102663  1
  Fe  Fe58  1  0.37718434  0.87152545  0.63243245  1
  Fe  Fe59  1  0.37177721  0.87137771  0.88978678  1
  Fe  Fe60  1  0.37991149  0.37418407  0.38422725  1
  Fe  Fe61  1  0.12614909  0.37556276  0.38560713  1
  Fe  Fe62  1  0.36832557  0.87596027  0.13160054  1
  Fe  Fe63  1  0.87086029  0.12252562  0.38835915  1
  Pb  Pb64  1  0.00269156  -0.00030241  0.00337795  1
  Pb  Pb65  1  -0.00957695  0.00388004  0.25781807  1
  Pb  Pb66  1  -0.00438612  0.00574384  0.49821795  1
  Pb  Pb67  1  -0.00115248  0.00540059  0.74236034  1
  Pb  Pb68  1  -0.00695714  0.25186196  0.00439139  1
  Pb  Pb69  1  -0.00138071  0.23694016  0.25744873  1
  Pb  Pb70  1  -0.00217065  0.24519229  0.49812227  1
  Pb  Pb71  1  -0.01074065  0.24317135  0.74549461  1
  Pb  Pb72  1  -0.00173733  0.49761296  0.00443042  1
  Pb  Pb73  1  0.00636813  0.49880005  0.25259778  1
  Pb  Pb74  1  -0.00385296  0.49748880  0.49679466  1
  Pb  Pb75  1  -0.00531128  0.50697524  0.75157621  1
  Pb  Pb76  1  0.00666159  0.75348633  0.00510087  1
  Pb  Pb77  1  -0.00177038  0.75043135  0.25131980  1
  Pb  Pb78  1  0.00317832  0.75325620  0.49695649  1
  Pb  Pb79  1  -0.00562280  0.74314387  0.75270322  1
  Pb  Pb80  1  0.25890022  -0.00071921  -0.00027805  1
  Pb  Pb81  1  0.24999005  -0.00127807  0.24926611  1
  Pb  Pb82  1  0.24388675  -0.00153021  0.50605958  1
  Pb  Pb83  1  0.25209128  -0.00212365  0.73784639  1
  Pb  Pb84  1  0.25684131  0.24673193  -0.00715754  1
  Pb  Pb85  1  0.23825066  0.24930385  0.26241789  1
  Pb  Pb86  1  0.25538754  0.25540239  0.50100830  1
  Pb  Pb87  1  0.25735806  0.24580457  0.74330291  1
  Pb  Pb88  1  0.24787678  0.50056162  -0.00085817  1
  Pb  Pb89  1  0.25118381  0.49593038  0.26025989  1
  Pb  Pb90  1  0.25324851  0.49960559  0.49099034  1
  Pb  Pb91  1  0.25244287  0.49912116  0.74807608  1
  Pb  Pb92  1  0.24706236  0.75991010  0.00564290  1
  Pb  Pb93  1  0.25071617  0.74240380  0.25414686  1
  Pb  Pb94  1  0.25174890  0.75583849  0.49860162  1
  Pb  Pb95  1  0.25504267  0.75880235  0.74769107  1
  Pb  Pb96  1  0.49179291  0.01182819  -0.00279235  1
  Pb  Pb97  1  0.49830653  0.00108294  0.23545488  1
  Pb  Pb98  1  0.49978003  0.01364315  0.50998343  1
  Pb  Pb99  1  0.49008325  0.00713497  0.75269130  1
  Pb  Pb100  1  0.50041775  0.24819249  -0.01296206  1
  Pb  Pb101  1  0.49930757  0.25070887  0.23907637  1
  Pb  Pb102  1  0.49149658  0.25008963  0.51201440  1
  Pb  Pb103  1  0.49887382  0.24251498  0.75451621  1
  Pb  Pb104  1  0.50225488  0.49504036  0.00079070  1
  Pb  Pb105  1  0.49264180  0.49794296  0.24698925  1
  Pb  Pb106  1  0.49351533  0.49528857  0.50025619  1
  Pb  Pb107  1  0.50808576  0.49062321  0.76160628  1
  Pb  Pb108  1  0.50500056  0.75334043  0.00660030  1
  Pb  Pb109  1  0.49781189  0.74914937  0.24151206  1
  Pb  Pb110  1  0.49782151  0.75505041  0.49853759  1
  Pb  Pb111  1  0.49494997  0.75306440  0.75545970  1
  Pb  Pb112  1  0.74456902  0.00743491  0.00359767  1
  Pb  Pb113  1  0.75456543  0.00468892  0.24155972  1
  Pb  Pb114  1  0.74819758  0.00900667  0.50185110  1
  Pb  Pb115  1  0.75135304  0.01179796  0.75830397  1
  Pb  Pb116  1  0.74056092  0.24299546  -0.00126184  1
  Pb  Pb117  1  0.75237161  0.24670147  0.23384171  1
  Pb  Pb118  1  0.74695132  0.24170605  0.50463246  1
  Pb  Pb119  1  0.74897864  0.24395130  0.75608595  1
  Pb  Pb120  1  0.76176078  0.49142344  0.00779013  1
  Pb  Pb121  1  0.74853159  0.49943289  0.23201668  1
  Pb  Pb122  1  0.75103334  0.49421999  0.50067938  1
  Pb  Pb123  1  0.74630508  0.49874984  0.75990721  1
  Pb  Pb124  1  0.74642030  0.75354217  0.00880981  1
  Pb  Pb125  1  0.75027460  0.74981488  0.23778245  1
  Pb  Pb126  1  0.74657770  0.75031555  0.49429050  1
  Pb  Pb127  1  0.75423423  0.74316175  0.75766021  1
  O  O128  1  0.12736323  0.00603827  0.16084729  1
  O  O129  1  0.12749839  -0.00740406  0.41440637  1
  O  O130  1  0.12055037  -0.00400037  0.65798789  1
  O  O131  1  0.12178258  -0.00389865  0.90594464  1
  O  O132  1  0.12794805  0.25232504  0.16742340  1
  O  O133  1  0.12394442  0.25496370  0.42163346  1
  O  O134  1  0.12239807  0.25886698  0.65123401  1
  O  O135  1  0.12563082  0.24804422  0.90514888  1
  O  O136  1  0.12851185  0.49905078  0.16794912  1
  O  O137  1  0.12187206  0.49967393  0.41551432  1
  O  O138  1  0.12500190  0.50654851  0.66619191  1
  O  O139  1  0.12720197  0.50354927  0.91114986  1
  O  O140  1  0.12687248  0.74183135  0.16577188  1
  O  O141  1  0.12452905  0.75420102  0.41267046  1
  O  O142  1  0.12191325  0.74293091  0.66465981  1
  O  O143  1  0.12487018  0.74718560  0.91319003  1
  O  O144  1  0.36708677  0.00184596  0.16276954  1
  O  O145  1  0.37944797  0.00332850  0.41907067  1
  O  O146  1  0.37813993  -0.00441086  0.65976237  1
  O  O147  1  0.36919337  -0.00270260  0.90996786  1
  O  O148  1  0.36903530  0.25637214  0.15895117  1
  O  O149  1  0.38177936  0.24446006  0.41598846  1
  O  O150  1  0.37724956  0.25295073  0.66618988  1
  O  O151  1  0.36844096  0.25049725  0.90494745  1
  O  O152  1  0.37014112  0.49927555  0.16499537  1
  O  O153  1  0.38216295  0.50021948  0.41452827  1
  O  O154  1  0.37607418  0.51021424  0.66479886  1
  O  O155  1  0.36713217  0.50896239  0.91454984  1
  O  O156  1  0.36874584  0.74150089  0.16046023  1
  O  O157  1  0.38039631  0.75420605  0.41317114  1
  O  O158  1  0.37879262  0.74288060  0.66591838  1
  O  O159  1  0.36920008  0.74216439  0.91883935  1
  O  O160  1  0.62459148  -0.00105491  0.15788823  1
  O  O161  1  0.62381897  -0.00262637  0.40987755  1
  O  O162  1  0.63183258  -0.01369703  0.66574670  1
  O  O163  1  0.62878907  -0.00989954  0.91241720  1
  O  O164  1  0.62119253  0.25158924  0.15623344  1
  O  O165  1  0.62762498  0.25422631  0.41187032  1
  O  O166  1  0.62757106  0.25857842  0.66486196  1
  O  O167  1  0.62724105  0.24987267  0.90850771  1
  O  O168  1  0.62065871  0.50012773  0.15336294  1
  O  O169  1  0.62654815  0.49589792  0.41064562  1
  O  O170  1  0.62605118  0.50518000  0.67301790  1
  O  O171  1  0.62464491  0.50908216  0.91918849  1
  O  O172  1  0.62314485  0.74905136  0.15998190  1
  O  O173  1  0.62492201  0.75248783  0.41027444  1
  O  O174  1  0.62807800  0.74874351  0.67282406  1
  O  O175  1  0.62740803  0.75138577  0.91945256  1
  O  O176  1  0.88156926  -0.00339501  0.16143967  1
  O  O177  1  0.87098042  -0.00339337  0.41478447  1
  O  O178  1  0.87078865  -0.01018861  0.65803302  1
  O  O179  1  0.88346438  -0.01108036  0.91714326  1
  O  O180  1  0.88146274  0.25011187  0.16075872  1
  O  O181  1  0.86784864  0.25769057  0.41028808  1
  O  O182  1  0.87297746  0.25520725  0.66399391  1
  O  O183  1  0.88304106  0.25653441  0.91341479  1
  O  O184  1  0.87998832  0.50012995  0.16240841  1
  O  O185  1  0.86823057  0.50035999  0.41368370  1
  O  O186  1  0.87402118  0.50514961  0.66982230  1
  O  O187  1  0.88311179  0.49437469  0.91579235  1
  O  O188  1  0.88124846  0.75263889  0.15933337  1
  O  O189  1  0.86952811  0.74735658  0.41237428  1
  O  O190  1  0.87270316  0.74749646  0.67096682  1
  O  O191  1  0.88091690  0.75857545  0.92089501  1
  O  O192  1  0.00967195  0.12749821  0.16512024  1
  O  O193  1  -0.00426750  0.12560358  0.41592873  1
  O  O194  1  -0.00207690  0.12484813  0.65964866  1
  O  O195  1  0.01129684  0.12289610  0.91661080  1
  O  O196  1  0.00988037  0.37684389  0.16514580  1
  O  O197  1  -0.01143950  0.37826875  0.40910197  1
  O  O198  1  0.00619849  0.38380652  0.66348635  1
  O  O199  1  0.00561192  0.37581551  0.91493224  1
  O  O200  1  0.00739876  0.62227239  0.16305942  1
  O  O201  1  -0.00868297  0.62528302  0.41097850  1
  O  O202  1  -0.00191937  0.62530290  0.66568543  1
  O  O203  1  0.01248894  0.62511765  0.91762171  1
  O  O204  1  -0.00030755  0.87413260  0.16824556  1
  O  O205  1  0.00355693  0.87337617  0.41038448  1
  O  O206  1  -0.01164615  0.86765768  0.66058885  1
  O  O207  1  0.00513643  0.87075442  0.91644266  1
  O  O208  1  0.24307985  0.13030830  0.16818582  1
  O  O209  1  0.25978376  0.12444258  0.41636703  1
  O  O210  1  0.24664343  0.12533986  0.65808957  1
  O  O211  1  0.23797066  0.12165157  0.90793753  1
  O  O212  1  0.24962439  0.37739768  0.17022935  1
  O  O213  1  0.25439928  0.37420524  0.41311661  1
  O  O214  1  0.24073586  0.38219534  0.66185618  1
  O  O215  1  0.24361212  0.37743231  0.91241075  1
  O  O216  1  0.24916044  0.62074914  0.17000384  1
  O  O217  1  0.25235700  0.62587741  0.41139177  1
  O  O218  1  0.25530224  0.62731792  0.65833586  1
  O  O219  1  0.24515031  0.62616962  0.91624699  1
  O  O220  1  0.24763259  0.87218341  0.17177847  1
  O  O221  1  0.24982706  0.87454783  0.41471077  1
  O  O222  1  0.24976333  0.86856327  0.65900852  1
  O  O223  1  0.23929938  0.86955521  0.91107741  1
  O  O224  1  0.49512141  0.12681981  0.15742954  1
  O  O225  1  0.50203328  0.12417948  0.41926680  1
  O  O226  1  0.50408078  0.12337966  0.66888891  1
  O  O227  1  0.49881676  0.12074331  0.90604044  1
  O  O228  1  0.48923366  0.37705765  0.15473829  1
  O  O229  1  0.50997582  0.37402511  0.41395015  1
  O  O230  1  0.50981368  0.38170955  0.67052380  1
  O  O231  1  0.49359641  0.38128566  0.91011223  1
  O  O232  1  0.49089261  0.62370983  0.15715181  1
  O  O233  1  0.50807342  0.62540959  0.41359610  1
  O  O234  1  0.49869763  0.62661039  0.66731466  1
  O  O235  1  0.49157859  0.62660114  0.91512838  1
  O  O236  1  0.49412323  0.87229108  0.15758524  1
  O  O237  1  0.50703279  0.87562033  0.41547046  1
  O  O238  1  0.50991050  0.86801185  0.66294964  1
  O  O239  1  0.50408746  0.86943614  0.90984454  1
  O  O240  1  0.75199400  0.12381958  0.15305465  1
  O  O241  1  0.74214834  0.12549730  0.41522385  1
  O  O242  1  0.75250804  0.12426171  0.67124892  1
  O  O243  1  0.75409644  0.11988842  0.91328340  1
  O  O244  1  0.75029060  0.37536642  0.15324666  1
  O  O245  1  0.74630414  0.37763799  0.41638766  1
  O  O246  1  0.74467064  0.38304093  0.67030148  1
  O  O247  1  0.76061751  0.37852730  0.91222855  1
  O  O248  1  0.75177456  0.62659612  0.15061284  1
  O  O249  1  0.74664520  0.62466740  0.41511851  1
  O  O250  1  0.74865014  0.62585040  0.67083185  1
  O  O251  1  0.74997213  0.62766551  0.91784411  1
  O  O252  1  0.75969972  0.87425876  0.15681688  1
  O  O253  1  0.74014789  0.87381643  0.41183888  1
  O  O254  1  0.75278012  0.86543260  0.67067890  1
  O  O255  1  0.75622733  0.87216674  0.91432889  1
  O  O256  1  0.12815726  0.12691860  0.04969569  1
  O  O257  1  0.12546311  0.13456628  0.29640843  1
  O  O258  1  0.12338155  0.11824096  0.52517549  1
  O  O259  1  0.11828006  0.12646939  0.79188775  1
  O  O260  1  0.13042809  0.37146982  0.05569545  1
  O  O261  1  0.12935564  0.37421998  0.28488122  1
  O  O262  1  0.12020525  0.38452356  0.54532994  1
  O  O263  1  0.12442588  0.37834677  0.79245329  1
  O  O264  1  0.13097951  0.62104181  0.05466511  1
  O  O265  1  0.12354276  0.62269223  0.28432690  1
  O  O266  1  0.12106970  0.62591467  0.54509951  1
  O  O267  1  0.12678097  0.62862370  0.79827990  1
  O  O268  1  0.12438491  0.86937410  0.03804285  1
  O  O269  1  0.12466570  0.87489880  0.29966454  1
  O  O270  1  0.12411680  0.86693946  0.53177225  1
  O  O271  1  0.12064670  0.87422722  0.79724280  1
  O  O272  1  0.36487519  0.12166842  0.03025434  1
  O  O273  1  0.37790391  0.12429977  0.30378224  1
  O  O274  1  0.38808511  0.12970559  0.53819924  1
  O  O275  1  0.37367929  0.12288242  0.77886184  1
  O  O276  1  0.36063782  0.37722272  0.04880187  1
  O  O277  1  0.38141930  0.37803630  0.28445021  1
  O  O278  1  0.38708189  0.37557979  0.54438881  1
  O  O279  1  0.36922715  0.38436184  0.77737600  1
  O  O280  1  0.36536968  0.61813960  0.05040123  1
  O  O281  1  0.37996992  0.62289127  0.28254356  1
  O  O282  1  0.38316490  0.62554213  0.54749339  1
  O  O283  1  0.37571598  0.62886162  0.79976625  1
  O  O284  1  0.36088507  0.87555446  0.03026798  1
  O  O285  1  0.37701573  0.87957215  0.30283173  1
  O  O286  1  0.37913709  0.86544222  0.53220908  1
  O  O287  1  0.37404392  0.86112473  0.78906955  1
  O  O288  1  0.62579575  0.12199939  0.02488460  1
  O  O289  1  0.62130894  0.12760167  0.29662251  1
  O  O290  1  0.62981728  0.12091840  0.54291055  1
  O  O291  1  0.63295441  0.12059567  0.78363133  1
  O  O292  1  0.62375018  0.37604338  0.02170061  1
  O  O293  1  0.62582155  0.37351913  0.29663306  1
  O  O294  1  0.62784197  0.37987364  0.55477426  1
  O  O295  1  0.62884623  0.39003170  0.79412587  1
  O  O296  1  0.61618210  0.63308397  0.02394718  1
  O  O297  1  0.62485825  0.62512220  0.29394989  1
  O  O298  1  0.62430819  0.62509282  0.55180276  1
  O  O299  1  0.62484588  0.62846805  0.81245136  1
  O  O300  1  0.62862872  0.86856369  0.02921079  1
  O  O301  1  0.62349143  0.87737783  0.29525730  1
  O  O302  1  0.63165758  0.86888699  0.55245746  1
  O  O303  1  0.62906578  0.86999479  0.80362986  1
  O  O304  1  0.88835880  0.12375050  0.02870097  1
  O  O305  1  0.87770385  0.12107456  0.28679487  1
  O  O306  1  0.86334889  0.12617305  0.53224972  1
  O  O307  1  0.88262856  0.12442410  0.79296202  1
  O  O308  1  0.88616394  0.37928246  0.03224276  1
  O  O309  1  0.86756993  0.37700135  0.29889099  1
  O  O310  1  0.87013574  0.38429121  0.53636257  1
  O  O311  1  0.87964283  0.37634311  0.80028342  1
  O  O312  1  0.88464508  0.61864608  0.02658420  1
  O  O313  1  0.87158668  0.62556321  0.29411810  1
  O  O314  1  0.87134949  0.62682171  0.55088950  1
  O  O315  1  0.88232537  0.63035742  0.79900908  1
  O  O316  1  0.88700811  0.87684157  0.04860115  1
  O  O317  1  0.87546744  0.87802537  0.28259860  1
  O  O318  1  0.86590432  0.86707640  0.54830658  1
  O  O319  1  0.87551102  0.87277964  0.80072841  1
