# generated using pymatgen
data_VFe(PbO3)2
_symmetry_space_group_name_H-M   'P 1'
_cell_length_a   15.40130883
_cell_length_b   15.39704948
_cell_length_c   18.44214218
_cell_angle_alpha   90.00619309
_cell_angle_beta   89.99026135
_cell_angle_gamma   90.00707871
_symmetry_Int_Tables_number   1
_chemical_formula_structural   VFe(PbO3)2
_chemical_formula_sum   'V32 Fe32 Pb64 O192'
_cell_volume   4373.27199211
_cell_formula_units_Z   32
loop_
 _symmetry_equiv_pos_site_id
 _symmetry_equiv_pos_as_xyz
  1  'x, y, z'
loop_
 _atom_site_type_symbol
 _atom_site_label
 _atom_site_symmetry_multiplicity
 _atom_site_fract_x
 _atom_site_fract_y
 _atom_site_fract_z
 _atom_site_occupancy
  V  V0  1  0.62446336  0.62665381  0.63965527  1
  V  V1  1  0.11795444  0.87884737  0.65189866  1
  V  V2  1  0.37678014  0.37579889  0.13188839  1
  V  V3  1  0.12771156  0.12458826  0.39063326  1
  V  V4  1  0.12543062  0.37698797  0.88446630  1
  V  V5  1  0.37517065  0.87601581  0.38959671  1
  V  V6  1  0.87491327  0.87797733  0.88570388  1
  V  V7  1  0.87420525  0.62436942  0.40409938  1
  V  V8  1  0.87624982  0.37352643  0.63564047  1
  V  V9  1  0.86949831  0.87594027  0.64000156  1
  V  V10  1  0.62183201  0.62754854  0.39643272  1
  V  V11  1  0.87352653  0.62105558  0.14220792  1
  V  V12  1  0.87596279  0.37446540  0.39625394  1
  V  V13  1  0.12707370  0.12633368  0.64959799  1
  V  V14  1  0.62363513  0.87498292  0.39058463  1
  V  V15  1  0.37264334  0.37506100  0.39441013  1
  V  V16  1  0.12745919  0.62556461  0.39801342  1
  V  V17  1  0.62437746  0.62146479  0.13676787  1
  V  V18  1  0.87483785  0.87481765  0.39151475  1
  V  V19  1  0.12303273  0.87202868  0.13301108  1
  V  V20  1  0.37435824  0.12525369  0.39009469  1
  V  V21  1  0.87696537  0.37760732  0.88122215  1
  V  V22  1  0.12517811  0.37440314  0.39502343  1
  V  V23  1  0.37615951  0.12440688  0.65208672  1
  V  V24  1  0.12687159  0.37527073  0.64067487  1
  V  V25  1  0.37541289  0.37658522  0.65369270  1
  V  V26  1  0.61965871  0.87689034  0.64533742  1
  V  V27  1  0.62797999  0.62401716  0.88307973  1
  V  V28  1  0.12566140  0.87552815  0.39134065  1
  V  V29  1  0.87327263  0.37239795  0.13980398  1
  V  V30  1  0.36563304  0.87651007  0.65910791  1
  V  V31  1  0.87349523  0.62301178  0.88544638  1
  Fe  Fe32  1  0.62266053  0.37647526  0.39307081  1
  Fe  Fe33  1  0.37550169  0.62581100  0.38940991  1
  Fe  Fe34  1  0.62967126  0.87307380  0.89216622  1
  Fe  Fe35  1  0.37493671  0.87311238  0.88335929  1
  Fe  Fe36  1  0.37554804  0.63011974  0.65075489  1
  Fe  Fe37  1  0.87699864  0.12287366  0.64746048  1
  Fe  Fe38  1  0.87430473  0.62803622  0.63161426  1
  Fe  Fe39  1  0.62717744  0.37681235  0.13546776  1
  Fe  Fe40  1  0.37527660  0.62050336  0.12931373  1
  Fe  Fe41  1  0.62592227  0.12753338  0.12737009  1
  Fe  Fe42  1  0.62973140  0.37911310  0.87312124  1
  Fe  Fe43  1  0.62950334  0.12642255  0.88107789  1
  Fe  Fe44  1  0.37504665  0.12585329  0.12032652  1
  Fe  Fe45  1  0.12410364  0.62261475  0.13104775  1
  Fe  Fe46  1  0.11972500  0.62514618  0.88254705  1
  Fe  Fe47  1  0.12004275  0.12490394  0.89010383  1
  Fe  Fe48  1  0.12096099  0.87322873  0.87951550  1
  Fe  Fe49  1  0.62235355  0.12454193  0.38791898  1
  Fe  Fe50  1  0.37460602  0.12929412  0.89180402  1
  Fe  Fe51  1  0.62393770  0.37489320  0.64529355  1
  Fe  Fe52  1  0.37565219  0.87188110  0.12313086  1
  Fe  Fe53  1  0.62628663  0.87257445  0.12390591  1
  Fe  Fe54  1  0.87631691  0.12447615  0.38852624  1
  Fe  Fe55  1  0.12302673  0.12749394  0.12641654  1
  Fe  Fe56  1  0.12411075  0.37755199  0.13164818  1
  Fe  Fe57  1  0.12555678  0.62794006  0.64040606  1
  Fe  Fe58  1  0.87555725  0.87137675  0.13224496  1
  Fe  Fe59  1  0.37556745  0.62175513  0.87667850  1
  Fe  Fe60  1  0.87512409  0.12331813  0.13252834  1
  Fe  Fe61  1  0.62437567  0.12280416  0.64553439  1
  Fe  Fe62  1  0.87512141  0.13042579  0.87661483  1
  Fe  Fe63  1  0.37692645  0.37712835  0.87325914  1
  Pb  Pb64  1  -0.00415792  0.01036694  -0.00304572  1
  Pb  Pb65  1  -0.00746707  0.00587592  0.24477779  1
  Pb  Pb66  1  -0.00617290  0.00432327  0.50420774  1
  Pb  Pb67  1  0.00334512  0.00658087  0.76120176  1
  Pb  Pb68  1  -0.00086472  0.24715865  -0.00143585  1
  Pb  Pb69  1  -0.00237362  0.24354001  0.24714301  1
  Pb  Pb70  1  -0.00595996  0.24240850  0.50552560  1
  Pb  Pb71  1  0.00205851  0.24511006  0.75484828  1
  Pb  Pb72  1  0.00886267  0.49818664  0.00090257  1
  Pb  Pb73  1  0.00312523  0.49995490  0.25069160  1
  Pb  Pb74  1  0.00246784  0.50587881  0.50755946  1
  Pb  Pb75  1  0.00308262  0.50726888  0.74593808  1
  Pb  Pb76  1  -0.00075178  0.75021596  -0.00384359  1
  Pb  Pb77  1  0.00325483  0.74959417  0.24806831  1
  Pb  Pb78  1  0.00458441  0.74721173  0.50630243  1
  Pb  Pb79  1  0.00438963  0.74788412  0.75234281  1
  Pb  Pb80  1  0.25321244  -0.00186020  -0.01304981  1
  Pb  Pb81  1  0.25197253  -0.00025719  0.23246577  1
  Pb  Pb82  1  0.25088322  -0.00385491  0.50256272  1
  Pb  Pb83  1  0.24799227  0.01045083  0.76949509  1
  Pb  Pb84  1  0.25019696  0.24731303  -0.00694137  1
  Pb  Pb85  1  0.24902627  0.24919991  0.23643050  1
  Pb  Pb86  1  0.25281894  0.25138609  0.50514052  1
  Pb  Pb87  1  0.25661392  0.24712391  0.76282432  1
  Pb  Pb88  1  0.25058208  0.51151273  -0.00705620  1
  Pb  Pb89  1  0.25354824  0.50451446  0.24518235  1
  Pb  Pb90  1  0.25309794  0.51106143  0.51091696  1
  Pb  Pb91  1  0.25123279  0.50978224  0.75423798  1
  Pb  Pb92  1  0.25381136  0.74694726  -0.01457404  1
  Pb  Pb93  1  0.25754618  0.74172800  0.24270243  1
  Pb  Pb94  1  0.25251493  0.74358999  0.51016151  1
  Pb  Pb95  1  0.24094104  0.74787344  0.75962039  1
  Pb  Pb96  1  0.50228023  0.00394392  -0.01260178  1
  Pb  Pb97  1  0.50264183  0.00102492  0.23134434  1
  Pb  Pb98  1  0.50346285  0.00326132  0.50311254  1
  Pb  Pb99  1  0.48980392  0.00123486  0.76882058  1
  Pb  Pb100  1  0.50518130  0.25176610  -0.01511518  1
  Pb  Pb101  1  0.50805530  0.24291641  0.24313768  1
  Pb  Pb102  1  0.50951143  0.24993083  0.50807275  1
  Pb  Pb103  1  0.50542964  0.24250079  0.75821040  1
  Pb  Pb104  1  0.49507742  0.49758666  -0.01138856  1
  Pb  Pb105  1  0.50177954  0.49310481  0.25117217  1
  Pb  Pb106  1  0.50000197  0.49478791  0.50914912  1
  Pb  Pb107  1  0.49619479  0.50137651  0.75323336  1
  Pb  Pb108  1  0.49346540  0.75820461  -0.00648084  1
  Pb  Pb109  1  0.49352657  0.74878875  0.24030992  1
  Pb  Pb110  1  0.48853017  0.74695331  0.50765824  1
  Pb  Pb111  1  0.50245272  0.76172423  0.76258431  1
  Pb  Pb112  1  0.74758441  0.01500423  -0.00251953  1
  Pb  Pb113  1  0.74601033  0.00179504  0.23899020  1
  Pb  Pb114  1  0.74791358  0.01434322  0.50457015  1
  Pb  Pb115  1  0.74428211  0.00589662  0.75561775  1
  Pb  Pb116  1  0.74036018  0.25025111  -0.00609077  1
  Pb  Pb117  1  0.74158009  0.23558260  0.25199415  1
  Pb  Pb118  1  0.73935419  0.24141598  0.50632530  1
  Pb  Pb119  1  0.74324222  0.24279268  0.74823121  1
  Pb  Pb120  1  0.74672414  0.49335086  -0.00183790  1
  Pb  Pb121  1  0.74464428  0.49286362  0.25825378  1
  Pb  Pb122  1  0.74258943  0.49330853  0.50785299  1
  Pb  Pb123  1  0.75023774  0.49756418  0.74557412  1
  Pb  Pb124  1  0.75367405  0.75720627  0.00239090  1
  Pb  Pb125  1  0.74873055  0.75261857  0.24697938  1
  Pb  Pb126  1  0.75146734  0.75186348  0.50314737  1
  Pb  Pb127  1  0.74582625  0.75571662  0.75351712  1
  O  O128  1  0.12319625  -0.00839200  0.15560916  1
  O  O129  1  0.12744106  0.00020663  0.41972520  1
  O  O130  1  0.12697263  0.00019070  0.67330463  1
  O  O131  1  0.11784382  -0.00353510  0.90814973  1
  O  O132  1  0.12287616  0.25350138  0.16229858  1
  O  O133  1  0.12688705  0.24911954  0.42037656  1
  O  O134  1  0.12638462  0.24613389  0.66688694  1
  O  O135  1  0.11657147  0.26099281  0.90866526  1
  O  O136  1  0.12222602  0.49952446  0.16890536  1
  O  O137  1  0.12734589  0.49891321  0.42280886  1
  O  O138  1  0.12588671  0.49259253  0.65810011  1
  O  O139  1  0.11491257  0.49487057  0.90722860  1
  O  O140  1  0.12242701  0.75165627  0.16205970  1
  O  O141  1  0.12637817  0.75200575  0.42103341  1
  O  O142  1  0.12664361  0.75944056  0.66436116  1
  O  O143  1  0.11945666  0.74884927  0.90857822  1
  O  O144  1  0.37296997  -0.00204712  0.15195071  1
  O  O145  1  0.37325879  0.00031373  0.41938558  1
  O  O146  1  0.37407300  0.00247658  0.67650760  1
  O  O147  1  0.37593952  -0.00022207  0.90536507  1
  O  O148  1  0.37492587  0.25788548  0.15469364  1
  O  O149  1  0.37203376  0.25194370  0.41993104  1
  O  O150  1  0.37017379  0.24398038  0.67088370  1
  O  O151  1  0.37184309  0.25808036  0.90739450  1
  O  O152  1  0.37595219  0.49363441  0.16298812  1
  O  O153  1  0.37236533  0.49343846  0.41775818  1
  O  O154  1  0.37179798  0.49459631  0.66106471  1
  O  O155  1  0.37638386  0.49789657  0.90671711  1
  O  O156  1  0.37538636  0.74720071  0.15899118  1
  O  O157  1  0.37482797  0.75481965  0.41912796  1
  O  O158  1  0.37708911  0.75996874  0.67113119  1
  O  O159  1  0.37615290  0.74491807  0.90050405  1
  O  O160  1  0.62652665  -0.00115474  0.15311990  1
  O  O161  1  0.62271748  -0.00468567  0.41732117  1
  O  O162  1  0.62787984  -0.00844683  0.66715652  1
  O  O163  1  0.62927853  -0.00009337  0.90507650  1
  O  O164  1  0.62698085  0.25336847  0.16331496  1
  O  O165  1  0.62299403  0.25129612  0.42008166  1
  O  O166  1  0.62353916  0.25007083  0.66318894  1
  O  O167  1  0.63339352  0.25568605  0.90173219  1
  O  O168  1  0.62886841  0.50497369  0.16929196  1
  O  O169  1  0.62293171  0.50659018  0.42258640  1
  O  O170  1  0.62616360  0.50909565  0.66072871  1
  O  O171  1  0.63304701  0.50599610  0.90854721  1
  O  O172  1  0.62766616  0.73780088  0.16067286  1
  O  O173  1  0.62248269  0.74732702  0.42071008  1
  O  O174  1  0.62791209  0.75143489  0.66623049  1
  O  O175  1  0.63256036  0.73666716  0.91140341  1
  O  O176  1  0.87612973  -0.00383898  0.16223948  1
  O  O177  1  0.87641685  -0.00546703  0.41657252  1
  O  O178  1  0.87696143  -0.01099700  0.66820749  1
  O  O179  1  0.87723358  -0.00639792  0.89863548  1
  O  O180  1  0.87659986  0.25764275  0.15935917  1
  O  O181  1  0.87926154  0.25695991  0.41735259  1
  O  O182  1  0.88237025  0.25866286  0.66213422  1
  O  O183  1  0.87559486  0.26132999  0.89835514  1
  O  O184  1  0.87390375  0.50397624  0.17004042  1
  O  O185  1  0.87786479  0.49633324  0.42356358  1
  O  O186  1  0.88160324  0.49402758  0.65738319  1
  O  O187  1  0.87540644  0.50183871  0.91199481  1
  O  O188  1  0.87499296  0.74003479  0.16891213  1
  O  O189  1  0.87523035  0.75346187  0.42273351  1
  O  O190  1  0.87655855  0.75860972  0.66260974  1
  O  O191  1  0.87281446  0.74080103  0.90847591  1
  O  O192  1  0.00102583  0.12577140  0.16411493  1
  O  O193  1  0.00538734  0.12405296  0.41873794  1
  O  O194  1  0.00861488  0.12210256  0.66659281  1
  O  O195  1  -0.00582669  0.12821423  0.91215836  1
  O  O196  1  -0.01007359  0.38100095  0.16652946  1
  O  O197  1  0.00130348  0.37650540  0.42146472  1
  O  O198  1  0.00701691  0.37237424  0.66318842  1
  O  O199  1  -0.00670003  0.37936834  0.91056022  1
  O  O200  1  -0.00646886  0.62301262  0.16649581  1
  O  O201  1  0.00262949  0.62595654  0.42285502  1
  O  O202  1  -0.00177243  0.62773428  0.66041190  1
  O  O203  1  -0.00989794  0.62241261  0.90935179  1
  O  O204  1  0.00517429  0.86976913  0.16497803  1
  O  O205  1  0.00197688  0.87407568  0.41807044  1
  O  O206  1  0.00011486  0.87670720  0.66257346  1
  O  O207  1  -0.00981148  0.86608047  0.90951903  1
  O  O208  1  0.24927992  0.12626965  0.15501632  1
  O  O209  1  0.25085720  0.12457603  0.42217044  1
  O  O210  1  0.24827405  0.12167786  0.67420259  1
  O  O211  1  0.24540103  0.12901372  0.90865618  1
  O  O212  1  0.25696762  0.37684353  0.15794264  1
  O  O213  1  0.25255011  0.37332703  0.42304545  1
  O  O214  1  0.24216805  0.36969805  0.66821954  1
  O  O215  1  0.24065547  0.37879739  0.90003421  1
  O  O216  1  0.24941212  0.62211118  0.16173889  1
  O  O217  1  0.24978292  0.62595246  0.42218990  1
  O  O218  1  0.24851107  0.62821372  0.66918496  1
  O  O219  1  0.24721288  0.61879972  0.89955787  1
  O  O220  1  0.24193961  0.87135715  0.15585608  1
  O  O221  1  0.25081480  0.87634398  0.42051254  1
  O  O222  1  0.25007520  0.87920123  0.67356900  1
  O  O223  1  0.24779963  0.87285012  0.90149770  1
  O  O224  1  0.49811299  0.12731910  0.15531969  1
  O  O225  1  0.49316241  0.12506803  0.41885166  1
  O  O226  1  0.49308003  0.12295390  0.66916782  1
  O  O227  1  0.50353154  0.12987513  0.90364666  1
  O  O228  1  0.49522322  0.37810605  0.16065615  1
  O  O229  1  0.49059251  0.37508708  0.42077734  1
  O  O230  1  0.49217683  0.37378299  0.66489930  1
  O  O231  1  0.50404016  0.37895087  0.89478963  1
  O  O232  1  0.50747598  0.62037786  0.15786023  1
  O  O233  1  0.50344807  0.62559007  0.42037265  1
  O  O234  1  0.50943028  0.62864181  0.66679418  1
  O  O235  1  0.51098608  0.62029356  0.89945821  1
  O  O236  1  0.50208444  0.86938834  0.15567452  1
  O  O237  1  0.49801503  0.87513237  0.41956026  1
  O  O238  1  0.50639093  0.87515195  0.66914079  1
  O  O239  1  0.50263102  0.86953168  0.90728144  1
  O  O240  1  0.75107348  0.12671765  0.16227843  1
  O  O241  1  0.75040635  0.12587351  0.41697780  1
  O  O242  1  0.75192311  0.12248867  0.66344554  1
  O  O243  1  0.75515364  0.12490453  0.90706837  1
  O  O244  1  0.75864147  0.38095714  0.16912112  1
  O  O245  1  0.75738356  0.37775322  0.41752317  1
  O  O246  1  0.76014224  0.37773225  0.65352005  1
  O  O247  1  0.75960235  0.38304167  0.90545365  1
  O  O248  1  0.75166495  0.62250322  0.16758365  1
  O  O249  1  0.74342707  0.62587945  0.42129378  1
  O  O250  1  0.74651961  0.62804330  0.66016055  1
  O  O251  1  0.75482155  0.62074936  0.91287792  1
  O  O252  1  0.74928779  0.86714189  0.16206311  1
  O  O253  1  0.74798869  0.87126526  0.41646477  1
  O  O254  1  0.75124038  0.87316094  0.66226482  1
  O  O255  1  0.76052515  0.86765707  0.91270469  1
  O  O256  1  0.11334151  0.13163966  0.02582583  1
  O  O257  1  0.12907889  0.12444329  0.29963204  1
  O  O258  1  0.13048160  0.12227816  0.55844239  1
  O  O259  1  0.11785602  0.12464973  0.78652135  1
  O  O260  1  0.11717537  0.38017577  0.03219366  1
  O  O261  1  0.12693076  0.37498164  0.30448553  1
  O  O262  1  0.12909019  0.36918631  0.54926235  1
  O  O263  1  0.11780254  0.37648633  0.79261647  1
  O  O264  1  0.12248115  0.61566418  0.03089376  1
  O  O265  1  0.12605042  0.62552289  0.30662131  1
  O  O266  1  0.13075768  0.62841102  0.53829253  1
  O  O267  1  0.11656192  0.62747010  0.77918248  1
  O  O268  1  0.11769693  0.86856106  0.04216775  1
  O  O269  1  0.12776356  0.87498643  0.30070035  1
  O  O270  1  0.12733678  0.88337421  0.56053369  1
  O  O271  1  0.11573637  0.86941736  0.77731831  1
  O  O272  1  0.37419178  0.13042283  0.01961932  1
  O  O273  1  0.37237811  0.12512273  0.29929346  1
  O  O274  1  0.37112716  0.12175109  0.56081262  1
  O  O275  1  0.37174145  0.12649845  0.78675244  1
  O  O276  1  0.37836933  0.38055795  0.04062087  1
  O  O277  1  0.37232880  0.37288220  0.30371904  1
  O  O278  1  0.36776971  0.36669834  0.56151424  1
  O  O279  1  0.36731920  0.37618785  0.77024054  1
  O  O280  1  0.37414507  0.61391636  0.02917902  1
  O  O281  1  0.37281709  0.62727077  0.28994408  1
  O  O282  1  0.37370268  0.63327373  0.54758799  1
  O  O283  1  0.37866588  0.61418346  0.77354591  1
  O  O284  1  0.37424495  0.86494979  0.02280386  1
  O  O285  1  0.37496820  0.87597929  0.29851197  1
  O  O286  1  0.37406473  0.88236875  0.56719022  1
  O  O287  1  0.38660470  0.87841342  0.77788041  1
  O  O288  1  0.63464872  0.13133608  0.02605959  1
  O  O289  1  0.62264588  0.12967643  0.28750691  1
  O  O290  1  0.62329979  0.12063231  0.54249676  1
  O  O291  1  0.63122702  0.12816081  0.77662949  1
  O  O292  1  0.63572809  0.37879031  0.03558047  1
  O  O293  1  0.62168472  0.38624286  0.29289886  1
  O  O294  1  0.61924315  0.38125643  0.54161171  1
  O  O295  1  0.63597623  0.38325716  0.77035134  1
  O  O296  1  0.63028782  0.61662418  0.04603535  1
  O  O297  1  0.62236617  0.62668229  0.30544206  1
  O  O298  1  0.62130015  0.62967471  0.54795326  1
  O  O299  1  0.63602563  0.62516928  0.79118004  1
  O  O300  1  0.62993598  0.86478356  0.02288011  1
  O  O301  1  0.62196918  0.87166736  0.29964689  1
  O  O302  1  0.61958114  0.87538643  0.55370182  1
  O  O303  1  0.63291755  0.86285302  0.78897998  1
  O  O304  1  0.87684857  0.12252492  0.03193445  1
  O  O305  1  0.88239280  0.12727569  0.28886372  1
  O  O306  1  0.88266822  0.12025991  0.54436990  1
  O  O307  1  0.88129498  0.12659057  0.77385360  1
  O  O308  1  0.87111090  0.37830267  0.04840071  1
  O  O309  1  0.87933607  0.37849272  0.30538397  1
  O  O310  1  0.88231736  0.37141017  0.54399968  1
  O  O311  1  0.87916203  0.38580214  0.78964572  1
  O  O312  1  0.87333437  0.62055477  0.05136486  1
  O  O313  1  0.87447842  0.62496069  0.31266812  1
  O  O314  1  0.87600174  0.62976268  0.53087147  1
  O  O315  1  0.87201158  0.62065161  0.79336363  1
  O  O316  1  0.87789422  0.86347510  0.03302244  1
  O  O317  1  0.87591554  0.87022146  0.30043256  1
  O  O318  1  0.87202537  0.87817608  0.54833350  1
  O  O319  1  0.87263860  0.86872030  0.79391932  1
