# generated using pymatgen
data_VFe(PbO3)2
_symmetry_space_group_name_H-M   'P 1'
_cell_length_a   15.39339146
_cell_length_b   15.38336217
_cell_length_c   18.49925594
_cell_angle_alpha   90.02002916
_cell_angle_beta   90.06960204
_cell_angle_gamma   90.01498487
_symmetry_Int_Tables_number   1
_chemical_formula_structural   VFe(PbO3)2
_chemical_formula_sum   'V32 Fe32 Pb64 O192'
_cell_volume   4380.65930123
_cell_formula_units_Z   32
loop_
 _symmetry_equiv_pos_site_id
 _symmetry_equiv_pos_as_xyz
  1  'x, y, z'
loop_
 _atom_site_type_symbol
 _atom_site_label
 _atom_site_symmetry_multiplicity
 _atom_site_fract_x
 _atom_site_fract_y
 _atom_site_fract_z
 _atom_site_occupancy
  V  V0  1  0.62272679  0.87403758  0.89104150  1
  V  V1  1  0.87548984  0.62403395  0.64041368  1
  V  V2  1  0.87828123  0.12410230  0.64794765  1
  V  V3  1  0.37209153  0.12878473  0.14292367  1
  V  V4  1  0.14408227  0.62529655  0.88398629  1
  V  V5  1  0.37662619  0.36945539  0.63596912  1
  V  V6  1  0.12302832  0.62531868  0.39105634  1
  V  V7  1  0.62834663  0.87467097  0.63614143  1
  V  V8  1  0.12260273  0.62479383  0.63900757  1
  V  V9  1  0.62362650  0.62503320  0.88783331  1
  V  V10  1  0.37289455  0.87559181  0.38871840  1
  V  V11  1  0.37662555  0.37612056  0.89162849  1
  V  V12  1  0.62808139  0.12412059  0.63950509  1
  V  V13  1  0.12666695  0.12541657  0.64295427  1
  V  V14  1  0.87739614  0.12426716  0.38465690  1
  V  V15  1  0.37596370  0.12456667  0.89076248  1
  V  V16  1  0.63088088  0.62541555  0.14443691  1
  V  V17  1  0.37874677  0.62794319  0.14524707  1
  V  V18  1  0.62433430  0.37583036  0.89144431  1
  V  V19  1  0.62305833  0.37233232  0.38644099  1
  V  V20  1  0.88349472  0.62297500  0.13686060  1
  V  V21  1  0.87117663  0.37864468  0.13382241  1
  V  V22  1  0.37609556  0.87477902  0.88891127  1
  V  V23  1  0.13207805  0.62594215  0.13619204  1
  V  V24  1  0.37476768  0.87582899  0.14237712  1
  V  V25  1  0.87852395  0.62689025  0.38874106  1
  V  V26  1  0.12709291  0.12510024  0.89437940  1
  V  V27  1  0.12208734  0.12556504  0.38436799  1
  V  V28  1  0.62609966  0.37301441  0.63802748  1
  V  V29  1  0.87493799  0.62377974  0.88798849  1
  V  V30  1  0.87460327  0.37446628  0.38781220  1
  V  V31  1  0.12448935  0.37305686  0.64427223  1
  Fe  Fe32  1  0.12303901  0.87679193  0.38836923  1
  Fe  Fe33  1  0.12788015  0.87141570  0.13193983  1
  Fe  Fe34  1  0.87409435  0.37878342  0.88054868  1
  Fe  Fe35  1  0.62906739  0.62452482  0.62664889  1
  Fe  Fe36  1  0.12901552  0.37739596  0.89024583  1
  Fe  Fe37  1  0.37527721  0.12611034  0.63527778  1
  Fe  Fe38  1  0.62506619  0.12552983  0.13069694  1
  Fe  Fe39  1  0.87329967  0.87131725  0.89410467  1
  Fe  Fe40  1  0.87345146  0.12627790  0.89631480  1
  Fe  Fe41  1  0.37070475  0.37376199  0.37735775  1
  Fe  Fe42  1  0.87710039  0.12419411  0.12229462  1
  Fe  Fe43  1  0.87433951  0.87678114  0.64179169  1
  Fe  Fe44  1  0.37201826  0.62497114  0.39110809  1
  Fe  Fe45  1  0.87409134  0.37189031  0.64937016  1
  Fe  Fe46  1  0.62770889  0.62425605  0.39440347  1
  Fe  Fe47  1  0.37632943  0.87960924  0.63203506  1
  Fe  Fe48  1  0.12215201  0.87725863  0.63876356  1
  Fe  Fe49  1  0.37444728  0.62354216  0.63041404  1
  Fe  Fe50  1  0.62289238  0.37873627  0.13624520  1
  Fe  Fe51  1  0.12463325  0.12494838  0.12796880  1
  Fe  Fe52  1  0.37641426  0.38005239  0.14895031  1
  Fe  Fe53  1  0.37364687  0.12449857  0.37681231  1
  Fe  Fe54  1  0.87730771  0.87641493  0.38239612  1
  Fe  Fe55  1  0.12043055  0.37473907  0.38400338  1
  Fe  Fe56  1  0.61939585  0.12516323  0.89749632  1
  Fe  Fe57  1  0.87445610  0.87084526  0.12870864  1
  Fe  Fe58  1  0.38549816  0.62576457  0.88256584  1
  Fe  Fe59  1  0.62091223  0.87209862  0.14617789  1
  Fe  Fe60  1  0.62739057  0.87750552  0.37789692  1
  Fe  Fe61  1  0.62965677  0.12623887  0.38090085  1
  Fe  Fe62  1  0.12390725  0.37929694  0.13197467  1
  Fe  Fe63  1  0.12750424  0.87390436  0.89126490  1
  Pb  Pb64  1  -0.00578184  -0.00382209  -0.00179109  1
  Pb  Pb65  1  -0.00121721  -0.00431791  0.23350658  1
  Pb  Pb66  1  -0.00009947  -0.00820579  0.50282792  1
  Pb  Pb67  1  -0.00146190  -0.00944224  0.76117118  1
  Pb  Pb68  1  -0.00067193  0.25044839  -0.00488111  1
  Pb  Pb69  1  0.00503580  0.25119781  0.23757992  1
  Pb  Pb70  1  -0.00598712  0.25406619  0.50244581  1
  Pb  Pb71  1  -0.00784684  0.24733553  0.76012346  1
  Pb  Pb72  1  0.00529406  0.49655783  -0.00555781  1
  Pb  Pb73  1  0.00517448  0.49690195  0.24965862  1
  Pb  Pb74  1  -0.00617013  0.49602023  0.50267789  1
  Pb  Pb75  1  0.00287477  0.49350532  0.75481843  1
  Pb  Pb76  1  -0.00023243  0.75690387  0.00110394  1
  Pb  Pb77  1  0.00147050  0.76673070  0.25323858  1
  Pb  Pb78  1  -0.00090121  0.76406395  0.50669495  1
  Pb  Pb79  1  0.00136743  0.76165879  0.75795220  1
  Pb  Pb80  1  0.24569050  0.00390360  0.00430347  1
  Pb  Pb81  1  0.24694188  0.00195641  0.24735079  1
  Pb  Pb82  1  0.25755923  0.00102088  0.50152526  1
  Pb  Pb83  1  0.25123474  -0.00634281  0.74842606  1
  Pb  Pb84  1  0.24690194  0.25125436  0.00586262  1
  Pb  Pb85  1  0.24543919  0.25922431  0.24642411  1
  Pb  Pb86  1  0.25265035  0.24813989  0.49102392  1
  Pb  Pb87  1  0.24563956  0.25519822  0.75481074  1
  Pb  Pb88  1  0.26107965  0.48521170  0.01158597  1
  Pb  Pb89  1  0.25005729  0.49349978  0.25460867  1
  Pb  Pb90  1  0.25256382  0.49834845  0.49505402  1
  Pb  Pb91  1  0.25007156  0.49726914  0.74841960  1
  Pb  Pb92  1  0.25135131  0.75568876  0.00110059  1
  Pb  Pb93  1  0.24922527  0.74983007  0.25598211  1
  Pb  Pb94  1  0.25344866  0.76027998  0.50415526  1
  Pb  Pb95  1  0.25285290  0.75272769  0.74220019  1
  Pb  Pb96  1  0.50912564  -0.00261473  0.00913986  1
  Pb  Pb97  1  0.50918103  0.00814827  0.25212336  1
  Pb  Pb98  1  0.49679280  0.00339962  0.49202986  1
  Pb  Pb99  1  0.50554738  0.00485280  0.74728066  1
  Pb  Pb100  1  0.50265441  0.25284056  0.00763790  1
  Pb  Pb101  1  0.50139498  0.24792741  0.24652414  1
  Pb  Pb102  1  0.49353825  0.24132635  0.49045812  1
  Pb  Pb103  1  0.50799450  0.24433147  0.75177029  1
  Pb  Pb104  1  0.49830723  0.49111194  0.00763503  1
  Pb  Pb105  1  0.49909473  0.50768215  0.25900654  1
  Pb  Pb106  1  0.49291325  0.50859705  0.49782439  1
  Pb  Pb107  1  0.49612104  0.50631884  0.74277784  1
  Pb  Pb108  1  0.50668718  0.75536493  0.00521918  1
  Pb  Pb109  1  0.50115878  0.74065404  0.26268693  1
  Pb  Pb110  1  0.50091408  0.74710331  0.49573681  1
  Pb  Pb111  1  0.49543340  0.74314777  0.73966232  1
  Pb  Pb112  1  0.75137332  0.00440880  0.00084440  1
  Pb  Pb113  1  0.75056117  -0.00145851  0.23612270  1
  Pb  Pb114  1  0.75116851  -0.00417829  0.49239554  1
  Pb  Pb115  1  0.75555447  0.00607764  0.76088948  1
  Pb  Pb116  1  0.75069692  0.24485190  -0.00109417  1
  Pb  Pb117  1  0.74342041  0.24128104  0.24036162  1
  Pb  Pb118  1  0.75708801  0.25632467  0.50229250  1
  Pb  Pb119  1  0.74926053  0.23620023  0.76341810  1
  Pb  Pb120  1  0.74387626  0.49824853  0.00013668  1
  Pb  Pb121  1  0.74405452  0.50631614  0.25544666  1
  Pb  Pb122  1  0.74920372  0.49952860  0.50180116  1
  Pb  Pb123  1  0.75220967  0.49618290  0.74872784  1
  Pb  Pb124  1  0.74754662  0.75763257  0.00531386  1
  Pb  Pb125  1  0.75228139  0.76182059  0.25293249  1
  Pb  Pb126  1  0.74773250  0.75393801  0.49467550  1
  Pb  Pb127  1  0.75676761  0.75424014  0.75097180  1
  O  O128  1  0.12767379  -0.00246646  0.15517393  1
  O  O129  1  0.11860696  0.00992721  0.40994957  1
  O  O130  1  0.12035717  0.00926374  0.66768284  1
  O  O131  1  0.13106503  0.00466095  0.91358127  1
  O  O132  1  0.12333312  0.25322138  0.15568584  1
  O  O133  1  0.11879544  0.24288079  0.41305178  1
  O  O134  1  0.12266324  0.24543489  0.67189234  1
  O  O135  1  0.13265231  0.24692247  0.91344080  1
  O  O136  1  0.12452927  0.51014658  0.16447532  1
  O  O137  1  0.11853914  0.50591675  0.41693345  1
  O  O138  1  0.12531004  0.50054387  0.66665961  1
  O  O139  1  0.12722693  0.51463412  0.91365957  1
  O  O140  1  0.12487085  0.73959412  0.16313439  1
  O  O141  1  0.12028929  0.74115995  0.41613950  1
  O  O142  1  0.12244171  0.74143805  0.66091762  1
  O  O143  1  0.12479938  0.73571576  0.91446264  1
  O  O144  1  0.37009352  -0.00696394  0.16164181  1
  O  O145  1  0.37057901  -0.00267329  0.41006956  1
  O  O146  1  0.37561956  0.00278538  0.66733964  1
  O  O147  1  0.37471283  -0.00567947  0.91485057  1
  O  O148  1  0.37324685  0.24542066  0.15809306  1
  O  O149  1  0.37292179  0.24969739  0.40881393  1
  O  O150  1  0.37498049  0.25231867  0.66714412  1
  O  O151  1  0.37515315  0.25390609  0.91616739  1
  O  O152  1  0.37332166  0.51279300  0.16901605  1
  O  O153  1  0.37339236  0.49609306  0.41180374  1
  O  O154  1  0.37662061  0.49205727  0.66000276  1
  O  O155  1  0.37892906  0.49519743  0.91299933  1
  O  O156  1  0.37379193  0.74666961  0.17025900  1
  O  O157  1  0.37078447  0.75689148  0.41434948  1
  O  O158  1  0.37626518  0.75139026  0.65716504  1
  O  O159  1  0.38111301  0.75718494  0.91298093  1
  O  O160  1  0.62191733  0.00078541  0.15962767  1
  O  O161  1  0.62844068  0.00144596  0.41088510  1
  O  O162  1  0.62956546  0.00036402  0.66685247  1
  O  O163  1  0.62018852  -0.00833262  0.91599773  1
  O  O164  1  0.62336713  0.25155089  0.15998664  1
  O  O165  1  0.63101673  0.25570355  0.41320505  1
  O  O166  1  0.62628073  0.25019255  0.66794413  1
  O  O167  1  0.61756642  0.25889149  0.91603113  1
  O  O168  1  0.62247605  0.50777985  0.17054975  1
  O  O169  1  0.63031204  0.48794236  0.41550514  1
  O  O170  1  0.62575593  0.49210113  0.65649412  1
  O  O171  1  0.62104059  0.49709254  0.91277888  1
  O  O172  1  0.62033799  0.73980761  0.16933519  1
  O  O173  1  0.62678514  0.75348474  0.41260203  1
  O  O174  1  0.62855318  0.75658138  0.65362106  1
  O  O175  1  0.62078304  0.75266242  0.91520994  1
  O  O176  1  0.87630633  -0.00208673  0.14787094  1
  O  O177  1  0.87821480  0.00805766  0.40601487  1
  O  O178  1  0.87431376  0.00634729  0.67209130  1
  O  O179  1  0.87485500  -0.00248014  0.91419696  1
  O  O180  1  0.87599587  0.26314372  0.14934261  1
  O  O181  1  0.87701332  0.24927266  0.41590968  1
  O  O182  1  0.87467081  0.24215915  0.67266474  1
  O  O183  1  0.87545656  0.25693088  0.91237354  1
  O  O184  1  0.87157576  0.50657700  0.16792346  1
  O  O185  1  0.87683157  0.49958533  0.41554161  1
  O  O186  1  0.87519172  0.50596226  0.66703837  1
  O  O187  1  0.86413183  0.50578781  0.91316375  1
  O  O188  1  0.87271437  0.73634240  0.16034606  1
  O  O189  1  0.87752428  0.74233212  0.41069176  1
  O  O190  1  0.87638370  0.74181452  0.66608903  1
  O  O191  1  0.86593709  0.73872518  0.91585186  1
  O  O192  1  -0.00141916  0.12781503  0.15561449  1
  O  O193  1  -0.00470582  0.12897272  0.41434141  1
  O  O194  1  -0.00159769  0.12655705  0.67043455  1
  O  O195  1  0.00959214  0.12652679  0.90969428  1
  O  O196  1  -0.00860541  0.38656941  0.15799886  1
  O  O197  1  -0.00418810  0.37410479  0.41870291  1
  O  O198  1  0.00466100  0.37358941  0.67098615  1
  O  O199  1  0.00146939  0.38318372  0.90823001  1
  O  O200  1  -0.00040687  0.62022448  0.15295318  1
  O  O201  1  -0.00424129  0.62102145  0.41771163  1
  O  O202  1  0.00053910  0.62034505  0.66612597  1
  O  O203  1  -0.01144090  0.62173815  0.90437448  1
  O  O204  1  0.00103407  0.86652222  0.15574619  1
  O  O205  1  -0.00096691  0.87519751  0.41805547  1
  O  O206  1  -0.00115307  0.87581498  0.67259254  1
  O  O207  1  0.00230647  0.86869554  0.91453110  1
  O  O208  1  0.25330897  0.12270176  0.16373937  1
  O  O209  1  0.24013349  0.12600658  0.40412091  1
  O  O210  1  0.24269438  0.12663485  0.66455260  1
  O  O211  1  0.25533362  0.12477306  0.91945065  1
  O  O212  1  0.24719622  0.38098084  0.16431664  1
  O  O213  1  0.24472416  0.37394392  0.41103146  1
  O  O214  1  0.25061989  0.37231556  0.66657515  1
  O  O215  1  0.25831124  0.37808295  0.91669766  1
  O  O216  1  0.24901662  0.62726106  0.16354130  1
  O  O217  1  0.24015289  0.62357198  0.41201530  1
  O  O218  1  0.24319552  0.62229260  0.65869696  1
  O  O219  1  0.25677338  0.62842093  0.89969156  1
  O  O220  1  0.25577524  0.86690353  0.16742011  1
  O  O221  1  0.25019107  0.87623678  0.41470003  1
  O  O222  1  0.24814132  0.87652096  0.66342712  1
  O  O223  1  0.25785302  0.87045072  0.91236285  1
  O  O224  1  0.49163161  0.12125130  0.16079243  1
  O  O225  1  0.50107017  0.12552326  0.40696459  1
  O  O226  1  0.50560108  0.12598401  0.66429671  1
  O  O227  1  0.49086258  0.12459180  0.92051861  1
  O  O228  1  0.50122951  0.37927125  0.17009970  1
  O  O229  1  0.50682048  0.37101182  0.40164767  1
  O  O230  1  0.50457755  0.37026125  0.66157059  1
  O  O231  1  0.49706533  0.37597570  0.91824802  1
  O  O232  1  0.49749621  0.62623497  0.16741980  1
  O  O233  1  0.49984692  0.62443725  0.41538022  1
  O  O234  1  0.50425279  0.62324071  0.65598575  1
  O  O235  1  0.50665468  0.62495078  0.91764426  1
  O  O236  1  0.48790927  0.87036929  0.16962362  1
  O  O237  1  0.49255759  0.87703505  0.40629173  1
  O  O238  1  0.51083544  0.87988155  0.65862692  1
  O  O239  1  0.49926626  0.87508931  0.91742914  1
  O  O240  1  0.75340322  0.12821050  0.15195926  1
  O  O241  1  0.76087817  0.12901730  0.41073829  1
  O  O242  1  0.75206588  0.12525092  0.67158636  1
  O  O243  1  0.74474678  0.12635968  0.91697374  1
  O  O244  1  0.75555511  0.38395950  0.16145283  1
  O  O245  1  0.75290094  0.37281715  0.41739576  1
  O  O246  1  0.74179540  0.37269147  0.66605752  1
  O  O247  1  0.74116865  0.37649181  0.90866287  1
  O  O248  1  0.74695139  0.62299133  0.16270331  1
  O  O249  1  0.76093522  0.62063632  0.41410265  1
  O  O250  1  0.75538256  0.62377443  0.66116924  1
  O  O251  1  0.74133053  0.62454084  0.91838080  1
  O  O252  1  0.75038655  0.86686297  0.15901836  1
  O  O253  1  0.75414477  0.87562101  0.41113995  1
  O  O254  1  0.74563699  0.87712893  0.66732680  1
  O  O255  1  0.73950855  0.87236592  0.91368866  1
  O  O256  1  0.13421210  0.12688496  0.02795664  1
  O  O257  1  0.11609281  0.12811006  0.29315110  1
  O  O258  1  0.12309336  0.12695431  0.55234610  1
  O  O259  1  0.13373791  0.12627701  0.80313127  1
  O  O260  1  0.13015460  0.38625709  0.03040756  1
  O  O261  1  0.11704015  0.37900025  0.28391184  1
  O  O262  1  0.12443985  0.37121651  0.55316369  1
  O  O263  1  0.13741597  0.38050340  0.78969605  1
  O  O264  1  0.13502802  0.62563730  0.04506365  1
  O  O265  1  0.11840406  0.62411581  0.29968221  1
  O  O266  1  0.11833985  0.62093926  0.54870936  1
  O  O267  1  0.13128818  0.62480843  0.79250101  1
  O  O268  1  0.13446138  0.86148835  0.03057714  1
  O  O269  1  0.11891673  0.86755824  0.28814966  1
  O  O270  1  0.11603035  0.87705902  0.53782757  1
  O  O271  1  0.12391871  0.87139290  0.79020974  1
  O  O272  1  0.37050694  0.12088431  0.05145792  1
  O  O273  1  0.37387391  0.11939490  0.27728920  1
  O  O274  1  0.37346246  0.12421425  0.53520863  1
  O  O275  1  0.37559831  0.12503338  0.79953635  1
  O  O276  1  0.37497392  0.38827545  0.04572395  1
  O  O277  1  0.36409133  0.37506116  0.27606447  1
  O  O278  1  0.37394435  0.36782015  0.54482347  1
  O  O279  1  0.37803594  0.37369189  0.80066678  1
  O  O280  1  0.37763417  0.62866552  0.05399610  1
  O  O281  1  0.37794094  0.63131494  0.29056966  1
  O  O282  1  0.37436754  0.62040502  0.52976087  1
  O  O283  1  0.38928162  0.62504897  0.78273099  1
  O  O284  1  0.37404889  0.86979069  0.05077352  1
  O  O285  1  0.36654601  0.87279759  0.29769471  1
  O  O286  1  0.36879276  0.88322667  0.53214673  1
  O  O287  1  0.37842392  0.87575714  0.79773803  1
  O  O288  1  0.61695674  0.12509164  0.02844373  1
  O  O289  1  0.62851185  0.12883954  0.28045622  1
  O  O290  1  0.63000831  0.12537598  0.54863115  1
  O  O291  1  0.62043224  0.12879169  0.79559626  1
  O  O292  1  0.61830093  0.38278239  0.03597272  1
  O  O293  1  0.63391191  0.37467803  0.29542053  1
  O  O294  1  0.62761085  0.36610236  0.54736662  1
  O  O295  1  0.61794434  0.37472040  0.80037805  1
  O  O296  1  0.62510816  0.62410188  0.05305754  1
  O  O297  1  0.62396573  0.61758273  0.29306829  1
  O  O298  1  0.63116453  0.62156993  0.52623223  1
  O  O299  1  0.62481618  0.62614657  0.79637574  1
  O  O300  1  0.61250935  0.86690896  0.04402632  1
  O  O301  1  0.62966110  0.87559984  0.27662580  1
  O  O302  1  0.63257581  0.88206739  0.54517182  1
  O  O303  1  0.61993577  0.87288659  0.80036314  1
  O  O304  1  0.87888557  0.12962088  0.02061725  1
  O  O305  1  0.87887381  0.12914972  0.29385983  1
  O  O306  1  0.87652054  0.12403729  0.55703652  1
  O  O307  1  0.86825270  0.12694214  0.79352898  1
  O  O308  1  0.86980764  0.38865070  0.04262648  1
  O  O309  1  0.87504785  0.37421129  0.29699712  1
  O  O310  1  0.87534369  0.36693106  0.54868497  1
  O  O311  1  0.87378395  0.38116785  0.77884016  1
  O  O312  1  0.87392980  0.61963988  0.04609483  1
  O  O313  1  0.88000558  0.62473123  0.29764073  1
  O  O314  1  0.87845674  0.62310314  0.54951083  1
  O  O315  1  0.86526494  0.62486602  0.79643943  1
  O  O316  1  0.87399783  0.86235305  0.02623729  1
  O  O317  1  0.88010443  0.86758591  0.28202656  1
  O  O318  1  0.88211654  0.87828097  0.54182533  1
  O  O319  1  0.87381269  0.86527186  0.79151185  1
