# generated using pymatgen
data_VFe(PbO3)2
_symmetry_space_group_name_H-M   'P 1'
_cell_length_a   15.40179526
_cell_length_b   15.40060716
_cell_length_c   18.50010892
_cell_angle_alpha   89.94091948
_cell_angle_beta   89.97625627
_cell_angle_gamma   90.01003582
_symmetry_Int_Tables_number   1
_chemical_formula_structural   VFe(PbO3)2
_chemical_formula_sum   'V32 Fe32 Pb64 O192'
_cell_volume   4388.16752801
_cell_formula_units_Z   32
loop_
 _symmetry_equiv_pos_site_id
 _symmetry_equiv_pos_as_xyz
  1  'x, y, z'
loop_
 _atom_site_type_symbol
 _atom_site_label
 _atom_site_symmetry_multiplicity
 _atom_site_fract_x
 _atom_site_fract_y
 _atom_site_fract_z
 _atom_site_occupancy
  V  V0  1  0.62368718  0.11876684  0.14681803  1
  V  V1  1  0.11599121  0.87539919  0.90069547  1
  V  V2  1  0.12657437  0.37524644  0.88926729  1
  V  V3  1  0.87207806  0.62265419  0.13565364  1
  V  V4  1  0.37657166  0.12517809  0.13711930  1
  V  V5  1  0.12135221  0.61658627  0.38269354  1
  V  V6  1  0.87321205  0.12123467  0.89450364  1
  V  V7  1  0.37298588  0.12533721  0.64329808  1
  V  V8  1  0.87640616  0.12656842  0.64282105  1
  V  V9  1  0.62281288  0.87498546  0.88973800  1
  V  V10  1  0.12324947  0.37187095  0.38532893  1
  V  V11  1  0.62622382  0.37484175  0.63979195  1
  V  V12  1  0.62528171  0.86356420  0.15490017  1
  V  V13  1  0.62529056  0.36857807  0.14211784  1
  V  V14  1  0.12616281  0.86280866  0.38076017  1
  V  V15  1  0.62399399  0.37700055  0.88909931  1
  V  V16  1  0.62671892  0.12824290  0.63726448  1
  V  V17  1  0.37126613  0.87434834  0.63975232  1
  V  V18  1  0.12625289  0.87656620  0.64611934  1
  V  V19  1  0.62324425  0.62766830  0.88746326  1
  V  V20  1  0.87786108  0.37618574  0.38768389  1
  V  V21  1  0.87836729  0.37412885  0.64721766  1
  V  V22  1  0.62406272  0.12388567  0.89000313  1
  V  V23  1  0.87551311  0.62518595  0.64541542  1
  V  V24  1  0.12525269  0.37538289  0.65020998  1
  V  V25  1  0.12294295  0.12162593  0.38505149  1
  V  V26  1  0.12598113  0.62501980  0.64818038  1
  V  V27  1  0.37282755  0.37678062  0.64358413  1
  V  V28  1  0.12445469  0.37340388  0.12774917  1
  V  V29  1  0.37766992  0.62658814  0.89458306  1
  V  V30  1  0.37702562  0.87517215  0.89485399  1
  V  V31  1  0.62429212  0.61799452  0.14864812  1
  Fe  Fe32  1  0.36938961  0.37485995  0.38111279  1
  Fe  Fe33  1  0.37994688  0.12244798  0.88598944  1
  Fe  Fe34  1  0.37709560  0.37416349  0.13289518  1
  Fe  Fe35  1  0.36945658  0.87738516  0.37866009  1
  Fe  Fe36  1  0.62516976  0.87614777  0.37617249  1
  Fe  Fe37  1  0.86972362  0.62698904  0.88540895  1
  Fe  Fe38  1  0.12447306  0.12741015  0.64357521  1
  Fe  Fe39  1  0.87122054  0.87423987  0.14140498  1
  Fe  Fe40  1  0.12574196  0.12611614  0.12260033  1
  Fe  Fe41  1  0.37073347  0.62586115  0.63690808  1
  Fe  Fe42  1  0.86850142  0.87519723  0.88437803  1
  Fe  Fe43  1  0.12629733  0.62618273  0.89976233  1
  Fe  Fe44  1  0.88134168  0.87494989  0.37821132  1
  Fe  Fe45  1  0.37739309  0.37474400  0.89175185  1
  Fe  Fe46  1  0.62665553  0.87739374  0.62944483  1
  Fe  Fe47  1  0.62715527  0.12913787  0.37845288  1
  Fe  Fe48  1  0.62338633  0.37636150  0.37988588  1
  Fe  Fe49  1  0.87932697  0.12746656  0.37862952  1
  Fe  Fe50  1  0.37036394  0.62538218  0.37917748  1
  Fe  Fe51  1  0.88035798  0.87741580  0.64361602  1
  Fe  Fe52  1  0.88149499  0.62501488  0.38412055  1
  Fe  Fe53  1  0.87210260  0.37496348  0.12578454  1
  Fe  Fe54  1  0.12608263  0.12280176  0.89796332  1
  Fe  Fe55  1  0.12427428  0.62269150  0.12246722  1
  Fe  Fe56  1  0.37656553  0.62243794  0.13977840  1
  Fe  Fe57  1  0.37249444  0.12752257  0.38181464  1
  Fe  Fe58  1  0.12439538  0.87562002  0.12422136  1
  Fe  Fe59  1  0.87113419  0.12617259  0.13802845  1
  Fe  Fe60  1  0.87300490  0.37405150  0.89510061  1
  Fe  Fe61  1  0.37819353  0.87551273  0.14032202  1
  Fe  Fe62  1  0.62298931  0.62373722  0.63351506  1
  Fe  Fe63  1  0.62757460  0.62286777  0.37931185  1
  Pb  Pb64  1  -0.01790310  -0.00206569  0.01366136  1
  Pb  Pb65  1  -0.00377580  0.00016015  0.23620479  1
  Pb  Pb66  1  -0.00514956  -0.00248046  0.49791649  1
  Pb  Pb67  1  0.00764513  0.00463387  0.75925589  1
  Pb  Pb68  1  -0.00291523  0.24579560  0.00142299  1
  Pb  Pb69  1  -0.00487352  0.24420859  0.23653833  1
  Pb  Pb70  1  0.00701344  0.24297557  0.50306722  1
  Pb  Pb71  1  0.00547944  0.24687643  0.76193855  1
  Pb  Pb72  1  0.00063381  0.50289546  -0.00595829  1
  Pb  Pb73  1  -0.00325657  0.50037191  0.23911260  1
  Pb  Pb74  1  0.00028722  0.49880267  0.50150978  1
  Pb  Pb75  1  -0.00579712  0.50509734  0.76406746  1
  Pb  Pb76  1  -0.00445743  0.74687031  -0.00072257  1
  Pb  Pb77  1  -0.00280841  0.75194190  0.23850070  1
  Pb  Pb78  1  -0.01401186  0.75884423  0.50627309  1
  Pb  Pb79  1  0.00038793  0.74205646  0.76091315  1
  Pb  Pb80  1  0.24501434  -0.00133245  0.00374975  1
  Pb  Pb81  1  0.24864555  -0.00442850  0.23929228  1
  Pb  Pb82  1  0.24719614  0.00494392  0.49542745  1
  Pb  Pb83  1  0.24834584  0.01041235  0.75944906  1
  Pb  Pb84  1  0.25180182  0.24579696  -0.00546641  1
  Pb  Pb85  1  0.25904640  0.25056911  0.24525233  1
  Pb  Pb86  1  0.24590519  0.24777023  0.49916538  1
  Pb  Pb87  1  0.25799877  0.24857555  0.76042486  1
  Pb  Pb88  1  0.26188287  0.50299033  0.00570069  1
  Pb  Pb89  1  0.25512557  0.49751630  0.24040608  1
  Pb  Pb90  1  0.25703301  0.50383704  0.49887018  1
  Pb  Pb91  1  0.24658949  0.50373022  0.75947639  1
  Pb  Pb92  1  0.24970391  0.75542189  0.00978298  1
  Pb  Pb93  1  0.24966674  0.74655690  0.23395656  1
  Pb  Pb94  1  0.25880504  0.74432090  0.49892917  1
  Pb  Pb95  1  0.24031076  0.74832687  0.76200294  1
  Pb  Pb96  1  0.49888962  -0.00885553  0.00688739  1
  Pb  Pb97  1  0.49847161  -0.00605487  0.25780640  1
  Pb  Pb98  1  0.50501419  -0.00329631  0.48592358  1
  Pb  Pb99  1  0.49663300  0.00581918  0.74604019  1
  Pb  Pb100  1  0.49729024  0.25035966  -0.00029250  1
  Pb  Pb101  1  0.49742677  0.24337060  0.25519011  1
  Pb  Pb102  1  0.49757510  0.25265463  0.48778756  1
  Pb  Pb103  1  0.49294989  0.25263479  0.75369113  1
  Pb  Pb104  1  0.49363898  0.50146209  0.00832091  1
  Pb  Pb105  1  0.49360952  0.49216855  0.25380738  1
  Pb  Pb106  1  0.49934161  0.50803513  0.48865930  1
  Pb  Pb107  1  0.49641037  0.49666066  0.74730429  1
  Pb  Pb108  1  0.49316162  0.74879856  0.01086368  1
  Pb  Pb109  1  0.48628680  0.74622523  0.25732594  1
  Pb  Pb110  1  0.50551556  0.74948169  0.48540833  1
  Pb  Pb111  1  0.50467384  0.74787719  0.74074889  1
  Pb  Pb112  1  0.75450550  -0.00221229  0.01017550  1
  Pb  Pb113  1  0.75294060  -0.00629228  0.25566052  1
  Pb  Pb114  1  0.75021494  -0.00716954  0.48639673  1
  Pb  Pb115  1  0.75337469  -0.00567877  0.74737890  1
  Pb  Pb116  1  0.75280438  0.24574950  0.00441872  1
  Pb  Pb117  1  0.74930084  0.24764939  0.25043307  1
  Pb  Pb118  1  0.75011215  0.24818258  0.49118340  1
  Pb  Pb119  1  0.75459765  0.25630453  0.75557793  1
  Pb  Pb120  1  0.75207865  0.49692224  -0.00167832  1
  Pb  Pb121  1  0.74495831  0.49661369  0.25408831  1
  Pb  Pb122  1  0.74104232  0.51338347  0.49751540  1
  Pb  Pb123  1  0.75779046  0.49929139  0.75526609  1
  Pb  Pb124  1  0.75209601  0.75516536  0.00100607  1
  Pb  Pb125  1  0.75447914  0.73587682  0.25914592  1
  Pb  Pb126  1  0.74347334  0.75630169  0.48881638  1
  Pb  Pb127  1  0.75381065  0.75517995  0.74518905  1
  O  O128  1  0.12745782  0.00280673  0.15190101  1
  O  O129  1  0.12315255  0.00800140  0.40592594  1
  O  O130  1  0.12550827  -0.00415622  0.66921710  1
  O  O131  1  0.13261308  -0.00831569  0.91391253  1
  O  O132  1  0.12636239  0.25608176  0.15176594  1
  O  O133  1  0.12324144  0.25118344  0.41353327  1
  O  O134  1  0.12349053  0.25743092  0.67305742  1
  O  O135  1  0.12410709  0.25565971  0.91374184  1
  O  O136  1  0.12184181  0.49280858  0.15433631  1
  O  O137  1  0.12134191  0.50002288  0.41008097  1
  O  O138  1  0.12571183  0.49748011  0.67526087  1
  O  O139  1  0.12576590  0.49252552  0.91199714  1
  O  O140  1  0.12272633  0.74753504  0.14945000  1
  O  O141  1  0.12628750  0.74926900  0.39147303  1
  O  O142  1  0.12670279  0.75190078  0.67369531  1
  O  O143  1  0.12988773  0.75740488  0.91901429  1
  O  O144  1  0.38147566  0.00859533  0.16084384  1
  O  O145  1  0.36645421  0.00182718  0.41263162  1
  O  O146  1  0.36966851  -0.00280142  0.66752788  1
  O  O147  1  0.38362118  -0.00800395  0.91402571  1
  O  O148  1  0.37866373  0.24671651  0.15817182  1
  O  O149  1  0.36746892  0.25135935  0.41738767  1
  O  O150  1  0.37297788  0.25140357  0.66982601  1
  O  O151  1  0.38096663  0.24844631  0.91457255  1
  O  O152  1  0.37777605  0.49670265  0.16351764  1
  O  O153  1  0.36547463  0.50073939  0.41154740  1
  O  O154  1  0.37114457  0.49682672  0.66853112  1
  O  O155  1  0.38060153  0.50612624  0.91408668  1
  O  O156  1  0.38026105  0.74854768  0.16181995  1
  O  O157  1  0.36597226  0.75153273  0.41074050  1
  O  O158  1  0.36912255  0.75898303  0.66325502  1
  O  O159  1  0.38422123  0.74819306  0.91904413  1
  O  O160  1  0.62324307  0.00537614  0.16543591  1
  O  O161  1  0.62682381  0.00278122  0.40605320  1
  O  O162  1  0.62578552  0.00709778  0.66157336  1
  O  O163  1  0.62107179  -0.00645664  0.91459021  1
  O  O164  1  0.62314145  0.25331056  0.16157354  1
  O  O165  1  0.62932010  0.25442008  0.41353291  1
  O  O166  1  0.62631725  0.25046816  0.66981720  1
  O  O167  1  0.62373304  0.24895131  0.91353496  1
  O  O168  1  0.62886415  0.50066485  0.16312191  1
  O  O169  1  0.62752535  0.49812708  0.41353665  1
  O  O170  1  0.62637567  0.49453983  0.66631451  1
  O  O171  1  0.62657602  0.49695718  0.90860547  1
  O  O172  1  0.62711309  0.74651746  0.16974751  1
  O  O173  1  0.62628894  0.74986916  0.40253846  1
  O  O174  1  0.62473761  0.75119326  0.66114437  1
  O  O175  1  0.62220981  0.75396070  0.91502867  1
  O  O176  1  0.86885175  0.00132236  0.16389835  1
  O  O177  1  0.88479853  0.00089678  0.40908605  1
  O  O178  1  0.87761587  0.00979817  0.66553531  1
  O  O179  1  0.86842539  0.00141443  0.91785022  1
  O  O180  1  0.87129207  0.25375433  0.15796844  1
  O  O181  1  0.88263937  0.25931152  0.41384530  1
  O  O182  1  0.87765165  0.24812668  0.67277902  1
  O  O183  1  0.86927220  0.24084537  0.91504257  1
  O  O184  1  0.87144385  0.50303228  0.15658157  1
  O  O185  1  0.88712017  0.49407435  0.41578853  1
  O  O186  1  0.87859149  0.50090530  0.67163261  1
  O  O187  1  0.86871538  0.50153245  0.91409663  1
  O  O188  1  0.87129953  0.74149932  0.15984932  1
  O  O189  1  0.88343994  0.75125236  0.41542482  1
  O  O190  1  0.88084468  0.74323348  0.66379942  1
  O  O191  1  0.86935962  0.75216454  0.91570720  1
  O  O192  1  0.00132674  0.12829949  0.15151836  1
  O  O193  1  0.00651909  0.13201211  0.41231569  1
  O  O194  1  -0.00480304  0.12806724  0.67260371  1
  O  O195  1  -0.01002016  0.12093517  0.91460897  1
  O  O196  1  0.00331366  0.37469845  0.15108343  1
  O  O197  1  0.00485234  0.37500147  0.42016151  1
  O  O198  1  0.00381783  0.37676218  0.67519412  1
  O  O199  1  0.00469133  0.37287974  0.91171892  1
  O  O200  1  -0.00793458  0.62134773  0.15204522  1
  O  O201  1  0.01115848  0.62596583  0.41862308  1
  O  O202  1  0.00124527  0.62290942  0.67520949  1
  O  O203  1  -0.00322549  0.62764054  0.91374350  1
  O  O204  1  -0.00035219  0.87580669  0.15318434  1
  O  O205  1  0.01483658  0.87620945  0.41473525  1
  O  O206  1  0.01044062  0.87388690  0.67167182  1
  O  O207  1  -0.00083532  0.87592123  0.91103372  1
  O  O208  1  0.25840411  0.12720912  0.15209201  1
  O  O209  1  0.23990078  0.12979435  0.41371616  1
  O  O210  1  0.25141076  0.12670461  0.67221912  1
  O  O211  1  0.25519662  0.12243360  0.91232297  1
  O  O212  1  0.24395454  0.37594765  0.15235446  1
  O  O213  1  0.23869770  0.37512886  0.41433753  1
  O  O214  1  0.24547379  0.37505933  0.67276820  1
  O  O215  1  0.24610594  0.37465359  0.91214550  1
  O  O216  1  0.24742410  0.62157855  0.15328841  1
  O  O217  1  0.23527382  0.62451967  0.41101858  1
  O  O218  1  0.24695523  0.62486596  0.67489297  1
  O  O219  1  0.26211842  0.62755304  0.91507011  1
  O  O220  1  0.25042603  0.87665311  0.15567431  1
  O  O221  1  0.23627169  0.87932967  0.41321515  1
  O  O222  1  0.24616318  0.87658891  0.67392641  1
  O  O223  1  0.26330204  0.87045955  0.91533301  1
  O  O224  1  0.50073595  0.12977597  0.16698994  1
  O  O225  1  0.49945088  0.12887766  0.40948857  1
  O  O226  1  0.49929626  0.12607184  0.66375547  1
  O  O227  1  0.50662960  0.12135861  0.91856100  1
  O  O228  1  0.50750052  0.37915523  0.16213355  1
  O  O229  1  0.49655910  0.37625303  0.40740148  1
  O  O230  1  0.49916711  0.37374310  0.66504769  1
  O  O231  1  0.50942078  0.37560747  0.91617192  1
  O  O232  1  0.50897445  0.62273957  0.16728696  1
  O  O233  1  0.49789164  0.62397217  0.40308712  1
  O  O234  1  0.49622769  0.62467833  0.66325659  1
  O  O235  1  0.50332915  0.62465010  0.91959367  1
  O  O236  1  0.50665873  0.87706193  0.16994741  1
  O  O237  1  0.49652292  0.87646036  0.40472730  1
  O  O238  1  0.48946536  0.87890639  0.65692254  1
  O  O239  1  0.50379477  0.87181661  0.92065976  1
  O  O240  1  0.74061567  0.13054356  0.16386423  1
  O  O241  1  0.75539452  0.12941777  0.40967763  1
  O  O242  1  0.75589632  0.12920267  0.66457361  1
  O  O243  1  0.74627548  0.12127268  0.91832946  1
  O  O244  1  0.74440599  0.37677542  0.16156490  1
  O  O245  1  0.76313394  0.37750739  0.40702811  1
  O  O246  1  0.75292742  0.37350474  0.66937245  1
  O  O247  1  0.73892958  0.37079458  0.91641784  1
  O  O248  1  0.75164753  0.62370920  0.16599870  1
  O  O249  1  0.75625122  0.62327315  0.41098287  1
  O  O250  1  0.75844814  0.62231805  0.66008703  1
  O  O251  1  0.74001263  0.62699486  0.91555066  1
  O  O252  1  0.74310521  0.87600145  0.17045568  1
  O  O253  1  0.75405445  0.87589687  0.40204331  1
  O  O254  1  0.75239573  0.87685511  0.66196823  1
  O  O255  1  0.73923679  0.87542887  0.91343279  1
  O  O256  1  0.12661063  0.12610140  0.02103511  1
  O  O257  1  0.12481269  0.12651506  0.29403165  1
  O  O258  1  0.12237574  0.13122916  0.54426498  1
  O  O259  1  0.11773485  0.12112212  0.79485560  1
  O  O260  1  0.12452634  0.37436402  0.03653099  1
  O  O261  1  0.12134514  0.37180666  0.29469360  1
  O  O262  1  0.12459912  0.37732925  0.55949117  1
  O  O263  1  0.12710018  0.37385006  0.79740086  1
  O  O264  1  0.12431907  0.62130672  0.02104053  1
  O  O265  1  0.11608327  0.61316684  0.29173826  1
  O  O266  1  0.12537232  0.62505607  0.55755737  1
  O  O267  1  0.12973089  0.63066529  0.79721285  1
  O  O268  1  0.13351687  0.87741470  0.02158253  1
  O  O269  1  0.12661168  0.87874481  0.29001808  1
  O  O270  1  0.12856474  0.87286023  0.55559171  1
  O  O271  1  0.12840705  0.87269397  0.80815842  1
  O  O272  1  0.38500818  0.12357124  0.04580930  1
  O  O273  1  0.37088474  0.13626388  0.28190857  1
  O  O274  1  0.36768485  0.12558967  0.55270830  1
  O  O275  1  0.38053131  0.12211364  0.78498108  1
  O  O276  1  0.38095331  0.38260746  0.03112963  1
  O  O277  1  0.36503756  0.37284161  0.28024058  1
  O  O278  1  0.36726641  0.37688671  0.55288398  1
  O  O279  1  0.38134051  0.37162099  0.79087972  1
  O  O280  1  0.38471302  0.61785184  0.03740209  1
  O  O281  1  0.37017857  0.62567256  0.27836177  1
  O  O282  1  0.35814009  0.62636017  0.53745424  1
  O  O283  1  0.38088784  0.62925402  0.80347353  1
  O  O284  1  0.38690834  0.87352003  0.03867216  1
  O  O285  1  0.37101769  0.87875403  0.27777044  1
  O  O286  1  0.36007819  0.87616770  0.54945060  1
  O  O287  1  0.38039264  0.87159667  0.80399262  1
  O  O288  1  0.62038904  0.12322669  0.05515596  1
  O  O289  1  0.62459869  0.13716195  0.27798040  1
  O  O290  1  0.62908022  0.13309590  0.54780848  1
  O  O291  1  0.62496475  0.12281441  0.79880730  1
  O  O292  1  0.62570871  0.37269305  0.05047848  1
  O  O293  1  0.63004420  0.38002633  0.27995023  1
  O  O294  1  0.62854604  0.37257491  0.54958312  1
  O  O295  1  0.62420322  0.37361170  0.79766277  1
  O  O296  1  0.62804263  0.62462991  0.05747201  1
  O  O297  1  0.63816004  0.61770715  0.27835697  1
  O  O298  1  0.62744729  0.62011907  0.53392209  1
  O  O299  1  0.62137262  0.62959035  0.79616718  1
  O  O300  1  0.62463335  0.87156319  0.06271573  1
  O  O301  1  0.62324770  0.88412682  0.27449763  1
  O  O302  1  0.62668781  0.87758017  0.53013594  1
  O  O303  1  0.61977855  0.87481024  0.79861761  1
  O  O304  1  0.86759769  0.11627679  0.03534549  1
  O  O305  1  0.88020553  0.13432177  0.27862619  1
  O  O306  1  0.88149430  0.13114378  0.55214098  1
  O  O307  1  0.87060798  0.12012160  0.80308802  1
  O  O308  1  0.86654769  0.37090815  0.02475040  1
  O  O309  1  0.88483130  0.37716226  0.29650460  1
  O  O310  1  0.88208523  0.37411378  0.55688540  1
  O  O311  1  0.86582601  0.37472170  0.79361626  1
  O  O312  1  0.86427316  0.62546607  0.04433889  1
  O  O313  1  0.88287707  0.62543899  0.28452936  1
  O  O314  1  0.88742015  0.62011308  0.55471105  1
  O  O315  1  0.87366802  0.62337804  0.78474413  1
  O  O316  1  0.86454676  0.88118781  0.03870763  1
  O  O317  1  0.88591455  0.87303815  0.27753267  1
  O  O318  1  0.89350419  0.87747885  0.54311606  1
  O  O319  1  0.86625640  0.87702744  0.78357821  1
