# generated using pymatgen
data_VFe(PbO3)2
_symmetry_space_group_name_H-M   'P 1'
_cell_length_a   15.38410117
_cell_length_b   15.38359843
_cell_length_c   18.52337233
_cell_angle_alpha   90.02630268
_cell_angle_beta   89.98024795
_cell_angle_gamma   89.99242217
_symmetry_Int_Tables_number   1
_chemical_formula_structural   VFe(PbO3)2
_chemical_formula_sum   'V32 Fe32 Pb64 O192'
_cell_volume   4383.79304252
_cell_formula_units_Z   32
loop_
 _symmetry_equiv_pos_site_id
 _symmetry_equiv_pos_as_xyz
  1  'x, y, z'
loop_
 _atom_site_type_symbol
 _atom_site_label
 _atom_site_symmetry_multiplicity
 _atom_site_fract_x
 _atom_site_fract_y
 _atom_site_fract_z
 _atom_site_occupancy
  V  V0  1  0.62707241  0.87418209  0.39271942  1
  V  V1  1  0.37539382  0.87781626  0.39205269  1
  V  V2  1  0.13508881  0.62922208  0.38820788  1
  V  V3  1  0.12415927  0.37348033  0.14475671  1
  V  V4  1  0.62462327  0.87661763  0.13430731  1
  V  V5  1  0.12408455  0.62380818  0.88962836  1
  V  V6  1  0.62437721  0.37343579  0.14362180  1
  V  V7  1  0.37442073  0.62327859  0.88787623  1
  V  V8  1  0.87790683  0.87602326  0.39086385  1
  V  V9  1  0.12516802  0.87286707  0.63974121  1
  V  V10  1  0.37552014  0.87455915  0.13628335  1
  V  V11  1  0.87589525  0.87293235  0.63889682  1
  V  V12  1  0.37992024  0.62594778  0.63789277  1
  V  V13  1  0.87117770  0.87537833  0.13870386  1
  V  V14  1  0.12483516  0.87591005  0.88643155  1
  V  V15  1  0.37661359  0.12385111  0.64166274  1
  V  V16  1  0.37565441  0.12370803  0.39030504  1
  V  V17  1  0.62897405  0.62556768  0.63838676  1
  V  V18  1  0.12078173  0.87653659  0.14185631  1
  V  V19  1  0.87661071  0.12561159  0.14334067  1
  V  V20  1  0.37771352  0.37546993  0.39091296  1
  V  V21  1  0.37492036  0.37560762  0.13861357  1
  V  V22  1  0.12777283  0.12267931  0.39392437  1
  V  V23  1  0.12695981  0.62570827  0.63594818  1
  V  V24  1  0.87471712  0.62702606  0.38959203  1
  V  V25  1  0.62664389  0.12822004  0.88356823  1
  V  V26  1  0.12284328  0.37557479  0.88571170  1
  V  V27  1  0.87267224  0.37501303  0.88671473  1
  V  V28  1  0.87494017  0.37401854  0.14422060  1
  V  V29  1  0.62304343  0.37228370  0.63670048  1
  V  V30  1  0.37360967  0.62362476  0.14479224  1
  V  V31  1  0.62297789  0.12389712  0.39569435  1
  Fe  Fe32  1  0.87420980  0.37899608  0.62420736  1
  Fe  Fe33  1  0.12553394  0.87366354  0.38671708  1
  Fe  Fe34  1  0.62425147  0.37640252  0.88171487  1
  Fe  Fe35  1  0.87390459  0.11912674  0.39867176  1
  Fe  Fe36  1  0.62541903  0.87367940  0.87909948  1
  Fe  Fe37  1  0.62445265  0.87425303  0.64292306  1
  Fe  Fe38  1  0.37282102  0.12733387  0.88165460  1
  Fe  Fe39  1  0.12500436  0.62332260  0.13898167  1
  Fe  Fe40  1  0.87539220  0.87563835  0.88294484  1
  Fe  Fe41  1  0.37248802  0.87285502  0.64636233  1
  Fe  Fe42  1  0.37876797  0.62835681  0.38317851  1
  Fe  Fe43  1  0.62267052  0.12431597  0.63358565  1
  Fe  Fe44  1  0.37341514  0.12750171  0.13540003  1
  Fe  Fe45  1  0.87578382  0.62616956  0.63579640  1
  Fe  Fe46  1  0.62342360  0.62769901  0.38463568  1
  Fe  Fe47  1  0.12574314  0.12260417  0.63814632  1
  Fe  Fe48  1  0.12738130  0.37505617  0.39718207  1
  Fe  Fe49  1  0.62672472  0.12491483  0.13524222  1
  Fe  Fe50  1  0.87419074  0.37316785  0.39218417  1
  Fe  Fe51  1  0.62332402  0.37441396  0.38423399  1
  Fe  Fe52  1  0.87589053  0.12813371  0.88033053  1
  Fe  Fe53  1  0.87841426  0.62233506  0.13888732  1
  Fe  Fe54  1  0.37419930  0.37783579  0.64061301  1
  Fe  Fe55  1  0.62732911  0.62522580  0.13990707  1
  Fe  Fe56  1  0.12451031  0.12652753  0.13771462  1
  Fe  Fe57  1  0.62726573  0.62146253  0.88207503  1
  Fe  Fe58  1  0.12481560  0.37559722  0.62509010  1
  Fe  Fe59  1  0.87335473  0.12511764  0.62629406  1
  Fe  Fe60  1  0.12312950  0.12697770  0.87751109  1
  Fe  Fe61  1  0.87806632  0.62277939  0.88263823  1
  Fe  Fe62  1  0.37284478  0.87264375  0.88184401  1
  Fe  Fe63  1  0.37223373  0.37727054  0.88120382  1
  Pb  Pb64  1  0.00244122  0.00679628  -0.00661042  1
  Pb  Pb65  1  -0.00399197  0.00667643  0.25701591  1
  Pb  Pb66  1  0.00496646  0.00937844  0.50801840  1
  Pb  Pb67  1  -0.00497238  0.01087638  0.74816710  1
  Pb  Pb68  1  0.00518935  0.24525824  -0.00348932  1
  Pb  Pb69  1  -0.00933431  0.25295224  0.26225510  1
  Pb  Pb70  1  -0.00439661  0.24991853  0.49984938  1
  Pb  Pb71  1  0.00010017  0.24897627  0.73226668  1
  Pb  Pb72  1  -0.00311075  0.50576867  0.00387384  1
  Pb  Pb73  1  0.00138331  0.49099110  0.25763508  1
  Pb  Pb74  1  -0.00148782  0.49555558  0.49770240  1
  Pb  Pb75  1  -0.01016717  0.50243259  0.74050801  1
  Pb  Pb76  1  -0.00594444  0.74312180  -0.00031415  1
  Pb  Pb77  1  0.00542951  0.75044725  0.25051607  1
  Pb  Pb78  1  -0.00434100  0.74325047  0.50265137  1
  Pb  Pb79  1  -0.00989038  0.74955780  0.75316080  1
  Pb  Pb80  1  0.25271227  0.01044087  -0.00417793  1
  Pb  Pb81  1  0.24613836  -0.00150668  0.24858833  1
  Pb  Pb82  1  0.24802146  0.00344881  0.50625058  1
  Pb  Pb83  1  0.25154191  0.01191850  0.75485061  1
  Pb  Pb84  1  0.25237707  0.24138372  -0.00393752  1
  Pb  Pb85  1  0.24532921  0.25153996  0.25216730  1
  Pb  Pb86  1  0.25096594  0.25429924  0.50699524  1
  Pb  Pb87  1  0.24910010  0.25091387  0.74549376  1
  Pb  Pb88  1  0.24295296  0.50287237  0.00095614  1
  Pb  Pb89  1  0.24598133  0.49470899  0.25587571  1
  Pb  Pb90  1  0.25744000  0.48854088  0.50583279  1
  Pb  Pb91  1  0.24883920  0.49278773  0.74639910  1
  Pb  Pb92  1  0.24357986  0.74681093  0.00044668  1
  Pb  Pb93  1  0.25019796  0.75356034  0.25100415  1
  Pb  Pb94  1  0.26203050  0.75951565  0.50524075  1
  Pb  Pb95  1  0.24964153  0.75256061  0.75280699  1
  Pb  Pb96  1  0.49638341  0.00451627  -0.01067618  1
  Pb  Pb97  1  0.50172414  0.00216937  0.24386015  1
  Pb  Pb98  1  0.50500182  -0.00519237  0.51083018  1
  Pb  Pb99  1  0.50142954  -0.00530963  0.74911068  1
  Pb  Pb100  1  0.49545776  0.24913765  -0.00661313  1
  Pb  Pb101  1  0.50466596  0.25188947  0.24869391  1
  Pb  Pb102  1  0.49881705  0.24480085  0.50396243  1
  Pb  Pb103  1  0.48959187  0.25446859  0.75177849  1
  Pb  Pb104  1  0.50621640  0.50062793  -0.00287826  1
  Pb  Pb105  1  0.50202959  0.50924400  0.25399107  1
  Pb  Pb106  1  0.50366885  0.50411143  0.49565871  1
  Pb  Pb107  1  0.51066596  0.49899926  0.75448721  1
  Pb  Pb108  1  0.50724607  0.74926490  -0.00715739  1
  Pb  Pb109  1  0.50133814  0.74355429  0.25251248  1
  Pb  Pb110  1  0.50044270  0.75952189  0.50418324  1
  Pb  Pb111  1  0.50229853  0.75716673  0.75388319  1
  Pb  Pb112  1  0.75015720  0.00056719  -0.00961654  1
  Pb  Pb113  1  0.75688333  0.00801444  0.25459262  1
  Pb  Pb114  1  0.73749086  -0.00399839  0.50906783  1
  Pb  Pb115  1  0.75229278  -0.00046194  0.74489309  1
  Pb  Pb116  1  0.74284804  0.24605660  -0.00084665  1
  Pb  Pb117  1  0.75266229  0.25595841  0.25919254  1
  Pb  Pb118  1  0.75592252  0.25059620  0.49821250  1
  Pb  Pb119  1  0.75774396  0.24447561  0.73932872  1
  Pb  Pb120  1  0.74693089  0.51191220  0.00053399  1
  Pb  Pb121  1  0.74833005  0.49427724  0.25308453  1
  Pb  Pb122  1  0.75244742  0.49649553  0.49522515  1
  Pb  Pb123  1  0.74342083  0.50046391  0.74868866  1
  Pb  Pb124  1  0.75119278  0.74501440  -0.00916920  1
  Pb  Pb125  1  0.74575283  0.74264006  0.24907018  1
  Pb  Pb126  1  0.75316468  0.74736772  0.50360553  1
  Pb  Pb127  1  0.75322500  0.75596952  0.75549345  1
  O  O128  1  0.12750389  -0.00585428  0.16472270  1
  O  O129  1  0.12902364  0.00058802  0.41712713  1
  O  O130  1  0.12346514  -0.01182929  0.66338743  1
  O  O131  1  0.12597260  -0.00663756  0.90668051  1
  O  O132  1  0.12484832  0.25612475  0.16964926  1
  O  O133  1  0.13048833  0.24044533  0.41497779  1
  O  O134  1  0.12600525  0.25030556  0.65275734  1
  O  O135  1  0.12288557  0.25802777  0.90580877  1
  O  O136  1  0.12547141  0.49281763  0.16961855  1
  O  O137  1  0.12402849  0.51507821  0.41356953  1
  O  O138  1  0.12683608  0.50926511  0.65550344  1
  O  O139  1  0.12465080  0.49917111  0.91686082  1
  O  O140  1  0.12685303  0.75674305  0.16551085  1
  O  O141  1  0.12378511  0.74432011  0.41590671  1
  O  O142  1  0.12181719  0.75200519  0.66603322  1
  O  O143  1  0.12480365  0.74899044  0.91444251  1
  O  O144  1  0.37349836  -0.00841974  0.16208204  1
  O  O145  1  0.37614868  -0.00313912  0.41720384  1
  O  O146  1  0.37474732  0.00434066  0.66315626  1
  O  O147  1  0.37267568  -0.00048398  0.90934428  1
  O  O148  1  0.37453872  0.25730509  0.16599133  1
  O  O149  1  0.37510686  0.24725792  0.41674140  1
  O  O150  1  0.37421115  0.24624709  0.66220685  1
  O  O151  1  0.37222122  0.25277527  0.91267104  1
  O  O152  1  0.37584325  0.49666708  0.16888250  1
  O  O153  1  0.37697657  0.49437569  0.40915671  1
  O  O154  1  0.36750478  0.51123156  0.66205034  1
  O  O155  1  0.36918361  0.50663245  0.91402270  1
  O  O156  1  0.37509512  0.75539067  0.16366985  1
  O  O157  1  0.37654925  0.75821618  0.41448165  1
  O  O158  1  0.37168260  0.73910387  0.66926792  1
  O  O159  1  0.37177248  0.74108961  0.91519128  1
  O  O160  1  0.62584447  -0.00498466  0.16535218  1
  O  O161  1  0.62032586  -0.00152889  0.42085616  1
  O  O162  1  0.62327446  0.00083676  0.66654208  1
  O  O163  1  0.62601847  0.00898576  0.90481730  1
  O  O164  1  0.62717154  0.25346465  0.16738580  1
  O  O165  1  0.62010214  0.24128478  0.41430748  1
  O  O166  1  0.62146108  0.25648095  0.65664040  1
  O  O167  1  0.62677295  0.24816294  0.91145695  1
  O  O168  1  0.62728490  0.49229931  0.16531616  1
  O  O169  1  0.62210857  0.50092209  0.41110933  1
  O  O170  1  0.62071432  0.50377363  0.66207468  1
  O  O171  1  0.62563204  0.49843877  0.91804233  1
  O  O172  1  0.62642297  0.75833820  0.16286719  1
  O  O173  1  0.62426040  0.75544396  0.41556790  1
  O  O174  1  0.62043500  0.74058751  0.66034909  1
  O  O175  1  0.62365854  0.74679055  0.90947345  1
  O  O176  1  0.87785017  -0.00387180  0.16923279  1
  O  O177  1  0.87470832  -0.01151332  0.41775626  1
  O  O178  1  0.87387980  -0.00823769  0.65609307  1
  O  O179  1  0.87675564  0.00227103  0.91196559  1
  O  O180  1  0.87765560  0.24964851  0.17219162  1
  O  O181  1  0.87537489  0.24552325  0.41377696  1
  O  O182  1  0.87244466  0.25324608  0.65071380  1
  O  O183  1  0.88057197  0.25803812  0.91335512  1
  O  O184  1  0.87651310  0.49347987  0.16831458  1
  O  O185  1  0.87397085  0.50960433  0.40650556  1
  O  O186  1  0.87351713  0.50138294  0.65895502  1
  O  O187  1  0.88093938  0.49086779  0.91374037  1
  O  O188  1  0.87820805  0.76093690  0.16330298  1
  O  O189  1  0.87145186  0.75415553  0.41734773  1
  O  O190  1  0.87707565  0.75317414  0.66529220  1
  O  O191  1  0.87909259  0.74969388  0.91340155  1
  O  O192  1  -0.00180725  0.12361339  0.17218206  1
  O  O193  1  0.00980964  0.12025307  0.41377617  1
  O  O194  1  -0.00270673  0.12004694  0.65731180  1
  O  O195  1  0.00162546  0.12670580  0.91253452  1
  O  O196  1  0.00373458  0.37353200  0.16965142  1
  O  O197  1  0.00139328  0.37731196  0.41405318  1
  O  O198  1  0.00089441  0.37903912  0.65021452  1
  O  O199  1  0.00512546  0.37721503  0.91496550  1
  O  O200  1  0.00164896  0.62580491  0.17205640  1
  O  O201  1  -0.00615576  0.63150484  0.41143057  1
  O  O202  1  0.00821974  0.62863609  0.66020093  1
  O  O203  1  0.00396096  0.62166755  0.91646710  1
  O  O204  1  0.00203308  0.87713621  0.16305367  1
  O  O205  1  -0.00541449  0.86997764  0.41068958  1
  O  O206  1  -0.00098450  0.87227680  0.66168796  1
  O  O207  1  0.00888262  0.87337837  0.91306407  1
  O  O208  1  0.24920762  0.12561416  0.16888395  1
  O  O209  1  0.25240824  0.12020994  0.41900675  1
  O  O210  1  0.25547400  0.12234220  0.66257936  1
  O  O211  1  0.24510582  0.12627198  0.91061190  1
  O  O212  1  0.24791824  0.37589218  0.16719683  1
  O  O213  1  0.25949318  0.37342640  0.41594352  1
  O  O214  1  0.24691832  0.37841463  0.66307638  1
  O  O215  1  0.24000802  0.37909849  0.91081955  1
  O  O216  1  0.25216363  0.62513624  0.16961339  1
  O  O217  1  0.25013312  0.62960662  0.40449488  1
  O  O218  1  0.24388388  0.63067720  0.66290759  1
  O  O219  1  0.24950481  0.62456810  0.91673708  1
  O  O220  1  0.25249534  0.87347690  0.16190671  1
  O  O221  1  0.25618211  0.87520249  0.41545026  1
  O  O222  1  0.24164632  0.86953614  0.66479910  1
  O  O223  1  0.24257152  0.86961880  0.91400349  1
  O  O224  1  0.49981619  0.12439381  0.16551178  1
  O  O225  1  0.49844123  0.12115310  0.41968463  1
  O  O226  1  0.49432053  0.12661909  0.66521397  1
  O  O227  1  0.50613578  0.12868492  0.90604349  1
  O  O228  1  0.50337285  0.37370719  0.16236726  1
  O  O229  1  0.49442812  0.36996285  0.41498728  1
  O  O230  1  0.50394928  0.37988552  0.66199102  1
  O  O231  1  0.49797142  0.37726904  0.91160059  1
  O  O232  1  0.49812526  0.62570945  0.16648124  1
  O  O233  1  0.49912571  0.62843353  0.41797981  1
  O  O234  1  0.49527440  0.62299397  0.65709285  1
  O  O235  1  0.49192275  0.62177670  0.90996112  1
  O  O236  1  0.49659115  0.87595986  0.15900513  1
  O  O237  1  0.49716225  0.87634607  0.41688915  1
  O  O238  1  0.49785203  0.87068094  0.66769937  1
  O  O239  1  0.49929334  0.87379305  0.91039561  1
  O  O240  1  0.75515075  0.12353016  0.17009564  1
  O  O241  1  0.73992585  0.11839486  0.41407669  1
  O  O242  1  0.74921244  0.12466347  0.65710280  1
  O  O243  1  0.74679427  0.12973489  0.90995404  1
  O  O244  1  0.74917460  0.37190743  0.16853584  1
  O  O245  1  0.74643919  0.37322875  0.41386736  1
  O  O246  1  0.74056261  0.38097193  0.65666506  1
  O  O247  1  0.75788004  0.37383071  0.90802268  1
  O  O248  1  0.75327062  0.62615205  0.16873241  1
  O  O249  1  0.75463297  0.63057728  0.41245119  1
  O  O250  1  0.74376187  0.62450406  0.65679002  1
  O  O251  1  0.75355021  0.62084984  0.91038417  1
  O  O252  1  0.75455195  0.87838336  0.15927903  1
  O  O253  1  0.75077993  0.87578044  0.41744972  1
  O  O254  1  0.75620100  0.86971340  0.66059929  1
  O  O255  1  0.74866674  0.87591833  0.91299799  1
  O  O256  1  0.12224407  0.12821713  0.03824727  1
  O  O257  1  0.13120280  0.12064150  0.30244769  1
  O  O258  1  0.12820499  0.11004840  0.53734501  1
  O  O259  1  0.12374718  0.11973733  0.77663597  1
  O  O260  1  0.12391849  0.37376129  0.05419818  1
  O  O261  1  0.13199479  0.37971442  0.29593289  1
  O  O262  1  0.13531145  0.38083624  0.52247430  1
  O  O263  1  0.12120727  0.38112504  0.79484799  1
  O  O264  1  0.12784702  0.62106635  0.03923544  1
  O  O265  1  0.12659284  0.63036771  0.29655880  1
  O  O266  1  0.12799531  0.63105685  0.54504799  1
  O  O267  1  0.12392259  0.62230395  0.79885206  1
  O  O268  1  0.12256272  0.87496448  0.05137163  1
  O  O269  1  0.13042491  0.87257242  0.28751369  1
  O  O270  1  0.12635325  0.87084258  0.54821651  1
  O  O271  1  0.12612918  0.87198327  0.79560375  1
  O  O272  1  0.36949761  0.12645378  0.03526345  1
  O  O273  1  0.37618154  0.12330539  0.29956166  1
  O  O274  1  0.37708144  0.12479841  0.54989331  1
  O  O275  1  0.36923924  0.13039412  0.78187364  1
  O  O276  1  0.37273826  0.37708294  0.04797375  1
  O  O277  1  0.37678425  0.37175097  0.29988726  1
  O  O278  1  0.36760574  0.37813381  0.53986341  1
  O  O279  1  0.37001762  0.37430920  0.78026322  1
  O  O280  1  0.37325292  0.62304022  0.05390586  1
  O  O281  1  0.38630643  0.62965352  0.28338608  1
  O  O282  1  0.37380391  0.63065266  0.54624765  1
  O  O283  1  0.37130123  0.62415228  0.79717362  1
  O  O284  1  0.37410032  0.87334986  0.04582147  1
  O  O285  1  0.37677161  0.87848695  0.30116579  1
  O  O286  1  0.37187800  0.86332439  0.54533400  1
  O  O287  1  0.37134882  0.86578963  0.78129585  1
  O  O288  1  0.63079645  0.13092263  0.03671019  1
  O  O289  1  0.61869526  0.11896490  0.30447515  1
  O  O290  1  0.61671185  0.11796407  0.53381607  1
  O  O291  1  0.62882136  0.13203826  0.79281429  1
  O  O292  1  0.62811676  0.37165335  0.05264586  1
  O  O293  1  0.62669030  0.36811935  0.28454509  1
  O  O294  1  0.62080038  0.37671636  0.54529229  1
  O  O295  1  0.62507928  0.38607004  0.78216982  1
  O  O296  1  0.62659234  0.61883034  0.03997904  1
  O  O297  1  0.62037658  0.63228285  0.28347798  1
  O  O298  1  0.62382769  0.62246627  0.54689829  1
  O  O299  1  0.62496117  0.61337913  0.78172270  1
  O  O300  1  0.62414152  0.87747255  0.04340682  1
  O  O301  1  0.62613896  0.87865223  0.30184192  1
  O  O302  1  0.62177111  0.88096850  0.54082835  1
  O  O303  1  0.62843762  0.86889269  0.77790472  1
  O  O304  1  0.87696708  0.12618903  0.05230616  1
  O  O305  1  0.87677273  0.11155290  0.29666925  1
  O  O306  1  0.88091613  0.12132120  0.52407781  1
  O  O307  1  0.87449565  0.12850649  0.78064248  1
  O  O308  1  0.87559045  0.36993533  0.05376202  1
  O  O309  1  0.87623853  0.36979245  0.28939461  1
  O  O310  1  0.87064157  0.38106151  0.52260698  1
  O  O311  1  0.87791708  0.37600446  0.79548543  1
  O  O312  1  0.88223975  0.62181603  0.03868320  1
  O  O313  1  0.87361712  0.63465434  0.29861853  1
  O  O314  1  0.87523790  0.63531010  0.53540594  1
  O  O315  1  0.88423047  0.62436477  0.78215415  1
  O  O316  1  0.87562636  0.87878203  0.04823924  1
  O  O317  1  0.87290637  0.87540170  0.29954869  1
  O  O318  1  0.87742338  0.86750474  0.54770059  1
  O  O319  1  0.87203602  0.86863438  0.78279671  1
