# generated using pymatgen
data_VFe(PbO3)2
_symmetry_space_group_name_H-M   'P 1'
_cell_length_a   15.40495931
_cell_length_b   15.39593255
_cell_length_c   18.48684843
_cell_angle_alpha   89.97073471
_cell_angle_beta   89.97236719
_cell_angle_gamma   89.99204636
_symmetry_Int_Tables_number   1
_chemical_formula_structural   VFe(PbO3)2
_chemical_formula_sum   'V32 Fe32 Pb64 O192'
_cell_volume   4384.59338833
_cell_formula_units_Z   32
loop_
 _symmetry_equiv_pos_site_id
 _symmetry_equiv_pos_as_xyz
  1  'x, y, z'
loop_
 _atom_site_type_symbol
 _atom_site_label
 _atom_site_symmetry_multiplicity
 _atom_site_fract_x
 _atom_site_fract_y
 _atom_site_fract_z
 _atom_site_occupancy
  V  V0  1  0.87202132  0.37448422  0.64031323  1
  V  V1  1  0.37532990  0.37352836  0.63998082  1
  V  V2  1  0.12250442  0.12607187  0.89414616  1
  V  V3  1  0.12018624  0.62523611  0.89323719  1
  V  V4  1  0.87582299  0.12300468  0.89447401  1
  V  V5  1  0.61052982  0.62135290  0.88494675  1
  V  V6  1  0.87753179  0.37526076  0.89919914  1
  V  V7  1  0.62410088  0.37298507  0.90508592  1
  V  V8  1  0.36289139  0.62433193  0.88894343  1
  V  V9  1  0.12443629  0.87570146  0.89291030  1
  V  V10  1  0.62460028  0.62415360  0.13747309  1
  V  V11  1  0.12450632  0.37483423  0.38681923  1
  V  V12  1  0.37467392  0.62510107  0.63883853  1
  V  V13  1  0.12497689  0.37511275  0.89180811  1
  V  V14  1  0.87395242  0.87626199  0.38508609  1
  V  V15  1  0.37237133  0.62634318  0.13913407  1
  V  V16  1  0.87560514  0.62513970  0.88894015  1
  V  V17  1  0.62455849  0.87620603  0.38623773  1
  V  V18  1  0.12388564  0.37645242  0.13911583  1
  V  V19  1  0.62516844  0.37399923  0.38314830  1
  V  V20  1  0.62203600  0.11727986  0.90791131  1
  V  V21  1  0.37476454  0.87572160  0.38213131  1
  V  V22  1  0.37412506  0.87451335  0.64198989  1
  V  V23  1  0.37770053  0.12481413  0.64295514  1
  V  V24  1  0.87118792  0.62542475  0.63900869  1
  V  V25  1  0.87702507  0.62412288  0.13804017  1
  V  V26  1  0.12517634  0.62549796  0.63792988  1
  V  V27  1  0.87228397  0.12684142  0.64212888  1
  V  V28  1  0.87227920  0.37461032  0.38788117  1
  V  V29  1  0.87637004  0.12555608  0.13296677  1
  V  V30  1  0.62347781  0.12541006  0.64649586  1
  V  V31  1  0.62263950  0.37286061  0.64416733  1
  Fe  Fe32  1  0.88034605  0.87368030  0.89153410  1
  Fe  Fe33  1  0.87390721  0.62634874  0.38564387  1
  Fe  Fe34  1  0.12522493  0.62163175  0.14105504  1
  Fe  Fe35  1  0.87672388  0.37654715  0.13263209  1
  Fe  Fe36  1  0.12537638  0.87710181  0.63446606  1
  Fe  Fe37  1  0.12489850  0.87511140  0.37664721  1
  Fe  Fe38  1  0.12836673  0.12394676  0.63662883  1
  Fe  Fe39  1  0.12346160  0.12440926  0.37705611  1
  Fe  Fe40  1  0.87302790  0.87304056  0.13209918  1
  Fe  Fe41  1  0.37148039  0.87139295  0.89566107  1
  Fe  Fe42  1  0.62797151  0.12403463  0.37960941  1
  Fe  Fe43  1  0.37668251  0.37514251  0.37685021  1
  Fe  Fe44  1  0.37691843  0.87153386  0.13063960  1
  Fe  Fe45  1  0.62913658  0.37722198  0.12746492  1
  Fe  Fe46  1  0.62772752  0.87216787  0.12658787  1
  Fe  Fe47  1  0.62033048  0.62334617  0.64066315  1
  Fe  Fe48  1  0.62301788  0.87719031  0.64099369  1
  Fe  Fe49  1  0.12239942  0.62616482  0.38053577  1
  Fe  Fe50  1  0.37532347  0.37750568  0.13689137  1
  Fe  Fe51  1  0.87256838  0.12442873  0.38198557  1
  Fe  Fe52  1  0.37477778  0.12484883  0.12864967  1
  Fe  Fe53  1  0.12500986  0.37297567  0.63443788  1
  Fe  Fe54  1  0.37254538  0.12559992  0.89825948  1
  Fe  Fe55  1  0.12408392  0.12788897  0.13724453  1
  Fe  Fe56  1  0.62665364  0.86906298  0.89796642  1
  Fe  Fe57  1  0.37670086  0.62572866  0.38219598  1
  Fe  Fe58  1  0.87250264  0.87707557  0.63732523  1
  Fe  Fe59  1  0.37171813  0.37906220  0.89782043  1
  Fe  Fe60  1  0.37749287  0.12413006  0.37709947  1
  Fe  Fe61  1  0.62745116  0.12557716  0.11899039  1
  Fe  Fe62  1  0.62789933  0.62616749  0.38555827  1
  Fe  Fe63  1  0.12399120  0.87343066  0.14254098  1
  Pb  Pb64  1  0.01506505  -0.00286404  0.01100720  1
  Pb  Pb65  1  0.00443364  -0.00133578  0.24377179  1
  Pb  Pb66  1  0.00525326  0.00050117  0.49326133  1
  Pb  Pb67  1  -0.00151127  -0.00588747  0.74749268  1
  Pb  Pb68  1  0.00352667  0.24829412  0.00703093  1
  Pb  Pb69  1  -0.00177428  0.24074438  0.24984508  1
  Pb  Pb70  1  0.00845192  0.24550635  0.49819315  1
  Pb  Pb71  1  0.00308460  0.25081010  0.74793578  1
  Pb  Pb72  1  -0.00038328  0.50028208  0.00645999  1
  Pb  Pb73  1  0.00055220  0.50643924  0.25204313  1
  Pb  Pb74  1  0.00370585  0.49705693  0.49686391  1
  Pb  Pb75  1  -0.00065574  0.50146422  0.74677595  1
  Pb  Pb76  1  0.00500941  0.75615371  0.00966700  1
  Pb  Pb77  1  0.00543430  0.75097778  0.24870581  1
  Pb  Pb78  1  0.00249487  0.75690388  0.49422792  1
  Pb  Pb79  1  -0.00559827  0.75627449  0.74828402  1
  Pb  Pb80  1  0.25377557  0.00050492  0.00614118  1
  Pb  Pb81  1  0.25181716  0.00397696  0.23747745  1
  Pb  Pb82  1  0.23829751  0.00653428  0.49267014  1
  Pb  Pb83  1  0.25642688  0.00130671  0.75510421  1
  Pb  Pb84  1  0.25075768  0.24348266  0.00549543  1
  Pb  Pb85  1  0.26033740  0.24091976  0.24470752  1
  Pb  Pb86  1  0.24693078  0.24542433  0.49183189  1
  Pb  Pb87  1  0.25533242  0.24879127  0.75228340  1
  Pb  Pb88  1  0.24205388  0.50399512  0.00735385  1
  Pb  Pb89  1  0.25925704  0.49902990  0.25258986  1
  Pb  Pb90  1  0.25257810  0.50079786  0.49088580  1
  Pb  Pb91  1  0.25351423  0.49435215  0.74978586  1
  Pb  Pb92  1  0.23526589  0.75364602  0.01194093  1
  Pb  Pb93  1  0.24267597  0.75204809  0.24767652  1
  Pb  Pb94  1  0.24485760  0.75389339  0.49089785  1
  Pb  Pb95  1  0.25284666  0.75358426  0.75035853  1
  Pb  Pb96  1  0.48714942  -0.00896586  0.00459796  1
  Pb  Pb97  1  0.50344335  0.00484199  0.23025491  1
  Pb  Pb98  1  0.50389123  -0.00224940  0.49443125  1
  Pb  Pb99  1  0.48998926  -0.00228592  0.76316611  1
  Pb  Pb100  1  0.48391371  0.25153957  0.01060824  1
  Pb  Pb101  1  0.50338447  0.24588685  0.23224613  1
  Pb  Pb102  1  0.49582594  0.24626606  0.48900544  1
  Pb  Pb103  1  0.48912684  0.24408006  0.76344407  1
  Pb  Pb104  1  0.49560675  0.48947702  0.01310870  1
  Pb  Pb105  1  0.49665466  0.49869794  0.24878081  1
  Pb  Pb106  1  0.50250891  0.50488045  0.49488016  1
  Pb  Pb107  1  0.49121784  0.49141249  0.75538660  1
  Pb  Pb108  1  0.49735534  0.75901230  0.00294198  1
  Pb  Pb109  1  0.50259886  0.74356368  0.24748892  1
  Pb  Pb110  1  0.50814430  0.74741325  0.49875619  1
  Pb  Pb111  1  0.50444828  0.76045090  0.75515659  1
  Pb  Pb112  1  0.75692819  -0.01505477  0.00379773  1
  Pb  Pb113  1  0.74583319  0.00724043  0.23940143  1
  Pb  Pb114  1  0.75020322  -0.00817026  0.50206423  1
  Pb  Pb115  1  0.74576663  -0.00780271  0.75816097  1
  Pb  Pb116  1  0.75118799  0.25114493  0.00630979  1
  Pb  Pb117  1  0.74689421  0.24472606  0.24029951  1
  Pb  Pb118  1  0.75021173  0.24581720  0.49553188  1
  Pb  Pb119  1  0.74483920  0.24736730  0.75924288  1
  Pb  Pb120  1  0.75347744  0.49772247  0.00472355  1
  Pb  Pb121  1  0.75116899  0.50558279  0.24843503  1
  Pb  Pb122  1  0.74438716  0.50910560  0.50079844  1
  Pb  Pb123  1  0.74522539  0.49853240  0.75376631  1
  Pb  Pb124  1  0.75470371  0.75389495  0.00025640  1
  Pb  Pb125  1  0.75038371  0.74370440  0.24844676  1
  Pb  Pb126  1  0.74909424  0.75770336  0.50317027  1
  Pb  Pb127  1  0.74235990  0.76336825  0.75592008  1
  O  O128  1  0.12154285  0.00104712  0.15805125  1
  O  O129  1  0.12383195  -0.00189483  0.40769578  1
  O  O130  1  0.12538506  0.00134895  0.66892209  1
  O  O131  1  0.12232099  -0.00301586  0.91492140  1
  O  O132  1  0.12307011  0.25950164  0.16138950  1
  O  O133  1  0.12264764  0.25481409  0.40949753  1
  O  O134  1  0.12460362  0.24833016  0.66944257  1
  O  O135  1  0.12302857  0.25540246  0.91511933  1
  O  O136  1  0.12294342  0.49447557  0.16672857  1
  O  O137  1  0.12181758  0.49428935  0.41107300  1
  O  O138  1  0.12476922  0.50333905  0.66459048  1
  O  O139  1  0.12425931  0.49766616  0.91627676  1
  O  O140  1  0.12368563  0.74547903  0.16382037  1
  O  O141  1  0.12411949  0.75271968  0.41126441  1
  O  O142  1  0.12535877  0.74548586  0.66509506  1
  O  O143  1  0.12425768  0.75071000  0.91655261  1
  O  O144  1  0.37632645  -0.00164525  0.15111160  1
  O  O145  1  0.38064242  -0.00867588  0.40953887  1
  O  O146  1  0.37691221  -0.00223460  0.66896741  1
  O  O147  1  0.37265578  -0.00156859  0.91868538  1
  O  O148  1  0.37519133  0.25193549  0.15340406  1
  O  O149  1  0.37688317  0.25193128  0.40917390  1
  O  O150  1  0.37772531  0.25003073  0.67136345  1
  O  O151  1  0.37631868  0.25386688  0.91750685  1
  O  O152  1  0.37775934  0.50709460  0.16242416  1
  O  O153  1  0.37544100  0.49740769  0.41350244  1
  O  O154  1  0.37315158  0.49849445  0.66588305  1
  O  O155  1  0.37324539  0.51153856  0.91983543  1
  O  O156  1  0.37947495  0.74189302  0.16139235  1
  O  O157  1  0.38035922  0.75916817  0.41193578  1
  O  O158  1  0.37237134  0.75359235  0.66406366  1
  O  O159  1  0.37228930  0.73710961  0.91479412  1
  O  O160  1  0.62939588  0.00070796  0.14598283  1
  O  O161  1  0.62604471  -0.00629714  0.41162688  1
  O  O162  1  0.62332192  0.00636199  0.67404551  1
  O  O163  1  0.63191968  0.00224449  0.91267747  1
  O  O164  1  0.62980084  0.25051534  0.14775336  1
  O  O165  1  0.62779792  0.25740462  0.41024504  1
  O  O166  1  0.62292575  0.25025490  0.67889835  1
  O  O167  1  0.62885826  0.26000210  0.91673058  1
  O  O168  1  0.62710564  0.50795392  0.16069436  1
  O  O169  1  0.62883560  0.49140761  0.41148345  1
  O  O170  1  0.62386697  0.49426096  0.67126535  1
  O  O171  1  0.62900990  0.51408984  0.91986239  1
  O  O172  1  0.62704944  0.74115926  0.16143047  1
  O  O173  1  0.62629489  0.75811174  0.41288778  1
  O  O174  1  0.62270259  0.74878891  0.66900162  1
  O  O175  1  0.63010954  0.73185631  0.91394128  1
  O  O176  1  0.87554437  0.00687999  0.15417547  1
  O  O177  1  0.87046586  -0.00693328  0.41091039  1
  O  O178  1  0.86944609  0.01013150  0.66433343  1
  O  O179  1  0.87968606  0.00720559  0.91429973  1
  O  O180  1  0.87569117  0.24611684  0.15633155  1
  O  O181  1  0.87448658  0.25833820  0.41582257  1
  O  O182  1  0.87060191  0.24937240  0.67016430  1
  O  O183  1  0.87980667  0.25159247  0.91982944  1
  O  O184  1  0.87395592  0.50622830  0.16388587  1
  O  O185  1  0.87491535  0.48996209  0.41497484  1
  O  O186  1  0.87535840  0.49901724  0.66769451  1
  O  O187  1  0.88370175  0.50266725  0.91791401  1
  O  O188  1  0.87242292  0.74057574  0.15969401  1
  O  O189  1  0.87030481  0.75865962  0.41211431  1
  O  O190  1  0.87562494  0.74101923  0.66011568  1
  O  O191  1  0.88410567  0.74075074  0.91143124  1
  O  O192  1  -0.00591019  0.12815637  0.15960473  1
  O  O193  1  -0.00250519  0.12546650  0.41167189  1
  O  O194  1  -0.01077192  0.12836810  0.66238365  1
  O  O195  1  -0.00077403  0.12862180  0.92025249  1
  O  O196  1  0.00370474  0.37748321  0.16439482  1
  O  O197  1  -0.00133648  0.37402219  0.41219325  1
  O  O198  1  -0.00546433  0.37346998  0.66617577  1
  O  O199  1  0.00715527  0.37671137  0.91917474  1
  O  O200  1  -0.00629315  0.62222597  0.15888261  1
  O  O201  1  -0.00191397  0.62446674  0.41611234  1
  O  O202  1  -0.00307798  0.62144119  0.66401213  1
  O  O203  1  0.00193572  0.62258449  0.91914012  1
  O  O204  1  -0.00547761  0.87235483  0.16288472  1
  O  O205  1  -0.00772034  0.87542101  0.40436631  1
  O  O206  1  -0.00173082  0.87563032  0.66492650  1
  O  O207  1  0.00778031  0.87333577  0.91838157  1
  O  O208  1  0.24973321  0.12742585  0.15593401  1
  O  O209  1  0.25089784  0.12496033  0.40779638  1
  O  O210  1  0.25763359  0.12541196  0.66748215  1
  O  O211  1  0.24122538  0.12639295  0.91683801  1
  O  O212  1  0.24321062  0.37967244  0.16016604  1
  O  O213  1  0.24286975  0.37474123  0.40613781  1
  O  O214  1  0.25392431  0.37259472  0.66482053  1
  O  O215  1  0.24032139  0.37774227  0.91753701  1
  O  O216  1  0.25664787  0.62310102  0.16094981  1
  O  O217  1  0.24942633  0.62539708  0.41159282  1
  O  O218  1  0.25171299  0.62516114  0.66617849  1
  O  O219  1  0.24673662  0.62340287  0.91683262  1
  O  O220  1  0.25343697  0.86927351  0.15965549  1
  O  O221  1  0.25783291  0.87438920  0.40152649  1
  O  O222  1  0.25597429  0.87691600  0.66610010  1
  O  O223  1  0.24007316  0.87291706  0.91726465  1
  O  O224  1  0.50297766  0.12646665  0.14515061  1
  O  O225  1  0.50331384  0.12409755  0.41203326  1
  O  O226  1  0.49943158  0.12610782  0.67715749  1
  O  O227  1  0.50699082  0.12571884  0.91515386  1
  O  O228  1  0.50429782  0.38015566  0.15633550  1
  O  O229  1  0.50852956  0.37548468  0.40510690  1
  O  O230  1  0.49854174  0.37418517  0.67276490  1
  O  O231  1  0.50591174  0.38513637  0.91733981  1
  O  O232  1  0.50267378  0.62395290  0.15913519  1
  O  O233  1  0.50247216  0.62523087  0.41601823  1
  O  O234  1  0.49061907  0.62442015  0.66853181  1
  O  O235  1  0.49694104  0.62348705  0.89334764  1
  O  O236  1  0.50358244  0.86949691  0.15651068  1
  O  O237  1  0.50430210  0.87529536  0.41080107  1
  O  O238  1  0.49240486  0.87560530  0.66919427  1
  O  O239  1  0.50034547  0.86897363  0.91484400  1
  O  O240  1  0.75618823  0.12627492  0.15302388  1
  O  O241  1  0.74930127  0.12653365  0.41745628  1
  O  O242  1  0.74949219  0.12989212  0.67375341  1
  O  O243  1  0.76226640  0.13090454  0.91791064  1
  O  O244  1  0.75211379  0.37927110  0.15858060  1
  O  O245  1  0.75113711  0.37406632  0.41052266  1
  O  O246  1  0.74840425  0.37413365  0.67182892  1
  O  O247  1  0.75222921  0.38200535  0.91960140  1
  O  O248  1  0.74984697  0.62348475  0.15987839  1
  O  O249  1  0.75105989  0.62413083  0.41993112  1
  O  O250  1  0.75680841  0.61891757  0.66265019  1
  O  O251  1  0.76397519  0.62059674  0.91011317  1
  O  O252  1  0.74981346  0.87103423  0.16006519  1
  O  O253  1  0.74683354  0.87589451  0.41175861  1
  O  O254  1  0.74947460  0.87678998  0.67137449  1
  O  O255  1  0.75497048  0.87065556  0.91463258  1
  O  O256  1  0.11847867  0.12930437  0.03486379  1
  O  O257  1  0.12027463  0.12908827  0.27645531  1
  O  O258  1  0.12916613  0.12336982  0.53601849  1
  O  O259  1  0.11990313  0.12594183  0.80283687  1
  O  O260  1  0.12276175  0.37934040  0.04701292  1
  O  O261  1  0.12052585  0.37631713  0.29638969  1
  O  O262  1  0.12142301  0.37048973  0.53541974  1
  O  O263  1  0.12345668  0.37508398  0.80054072  1
  O  O264  1  0.13097169  0.62209578  0.03902593  1
  O  O265  1  0.11797499  0.62447677  0.27986543  1
  O  O266  1  0.12598423  0.62590054  0.54692904  1
  O  O267  1  0.12215670  0.62586689  0.80224222  1
  O  O268  1  0.12022942  0.86791855  0.03888776  1
  O  O269  1  0.12198392  0.86937560  0.27609577  1
  O  O270  1  0.12644615  0.87634643  0.53470933  1
  O  O271  1  0.12324666  0.87435367  0.80148205  1
  O  O272  1  0.37069045  0.12802430  0.02461075  1
  O  O273  1  0.37657193  0.12609641  0.27692269  1
  O  O274  1  0.38233105  0.12702250  0.55212268  1
  O  O275  1  0.37778405  0.12329117  0.79563167  1
  O  O276  1  0.38034943  0.38154830  0.03280308  1
  O  O277  1  0.37460791  0.38394784  0.27644103  1
  O  O278  1  0.37853896  0.37169169  0.54926671  1
  O  O279  1  0.37244608  0.38424791  0.79645173  1
  O  O280  1  0.37275657  0.62517902  0.04765369  1
  O  O281  1  0.38155601  0.62227820  0.28255669  1
  O  O282  1  0.37486053  0.62481984  0.54779046  1
  O  O283  1  0.35666336  0.62156588  0.79733050  1
  O  O284  1  0.37819025  0.86859474  0.02743098  1
  O  O285  1  0.38115960  0.87446826  0.29144107  1
  O  O286  1  0.37575718  0.87667595  0.55165938  1
  O  O287  1  0.36972621  0.87472885  0.79407641  1
  O  O288  1  0.63633961  0.13322067  0.01564654  1
  O  O289  1  0.63404714  0.12461952  0.27983051  1
  O  O290  1  0.62281322  0.12771978  0.55564108  1
  O  O291  1  0.63507055  0.13390481  0.81639343  1
  O  O292  1  0.62785096  0.38908540  0.02423700  1
  O  O293  1  0.62908435  0.37419476  0.29232031  1
  O  O294  1  0.62193944  0.37018572  0.55345193  1
  O  O295  1  0.62898467  0.38564777  0.81325670  1
  O  O296  1  0.62502269  0.62525687  0.04643397  1
  O  O297  1  0.63053486  0.62883325  0.28563550  1
  O  O298  1  0.62113608  0.61900830  0.54051372  1
  O  O299  1  0.62921345  0.61778188  0.79368597  1
  O  O300  1  0.63020684  0.86305789  0.02363879  1
  O  O301  1  0.62499581  0.87604868  0.29559536  1
  O  O302  1  0.62670867  0.87966822  0.54106621  1
  O  O303  1  0.62783477  0.86632774  0.79465628  1
  O  O304  1  0.87923566  0.12792262  0.04133858  1
  O  O305  1  0.87011115  0.12961049  0.28247925  1
  O  O306  1  0.86690937  0.13128194  0.55136446  1
  O  O307  1  0.87708494  0.12692913  0.80318033  1
  O  O308  1  0.88099029  0.38301560  0.03213850  1
  O  O309  1  0.87359056  0.37399131  0.29704991  1
  O  O310  1  0.87032218  0.37445559  0.54965022  1
  O  O311  1  0.87762577  0.37568162  0.80781373  1
  O  O312  1  0.87569907  0.62130862  0.04628919  1
  O  O313  1  0.86867335  0.62204457  0.28581564  1
  O  O314  1  0.87241796  0.62061494  0.54795949  1
  O  O315  1  0.88050864  0.62107141  0.79734645  1
  O  O316  1  0.87309519  0.86966402  0.02979482  1
  O  O317  1  0.86919021  0.87593013  0.29425156  1
  O  O318  1  0.86527961  0.87685024  0.53757573  1
  O  O319  1  0.88028032  0.87368926  0.79034275  1
