# generated using pymatgen
data_VFe(PbO3)2
_symmetry_space_group_name_H-M   'P 1'
_cell_length_a   15.38635496
_cell_length_b   15.38637505
_cell_length_c   18.50356299
_cell_angle_alpha   90.00423493
_cell_angle_beta   90.00351180
_cell_angle_gamma   90.00778573
_symmetry_Int_Tables_number   1
_chemical_formula_structural   VFe(PbO3)2
_chemical_formula_sum   'V32 Fe32 Pb64 O192'
_cell_volume   4380.53766251
_cell_formula_units_Z   32
loop_
 _symmetry_equiv_pos_site_id
 _symmetry_equiv_pos_as_xyz
  1  'x, y, z'
loop_
 _atom_site_type_symbol
 _atom_site_label
 _atom_site_symmetry_multiplicity
 _atom_site_fract_x
 _atom_site_fract_y
 _atom_site_fract_z
 _atom_site_occupancy
  V  V0  1  0.12350862  0.12436752  0.88550950  1
  V  V1  1  0.37751908  0.87685042  0.13559571  1
  V  V2  1  0.37416806  0.87383426  0.39342654  1
  V  V3  1  0.62359078  0.62811838  0.13103756  1
  V  V4  1  0.12573325  0.62579001  0.38491519  1
  V  V5  1  0.87300885  0.37679596  0.64204950  1
  V  V6  1  0.87593694  0.12585692  0.64010090  1
  V  V7  1  0.62520785  0.87429713  0.39300406  1
  V  V8  1  0.87714049  0.37404246  0.89302095  1
  V  V9  1  0.37545438  0.87310031  0.64559006  1
  V  V10  1  0.62657601  0.12425991  0.39309735  1
  V  V11  1  0.12390781  0.12323010  0.39336667  1
  V  V12  1  0.62683679  0.62483210  0.65102818  1
  V  V13  1  0.37366434  0.87757796  0.88215407  1
  V  V14  1  0.62492675  0.12352019  0.13345427  1
  V  V15  1  0.12594351  0.12287990  0.13670213  1
  V  V16  1  0.37600966  0.37671514  0.64527753  1
  V  V17  1  0.87455168  0.87311945  0.64441903  1
  V  V18  1  0.37620232  0.12700507  0.13877635  1
  V  V19  1  0.62501873  0.37412197  0.88637778  1
  V  V20  1  0.12441705  0.61736672  0.89761135  1
  V  V21  1  0.62384720  0.12626008  0.64878900  1
  V  V22  1  0.12512456  0.87433711  0.38836312  1
  V  V23  1  0.87244798  0.12470760  0.89212546  1
  V  V24  1  0.62430310  0.62471537  0.38866799  1
  V  V25  1  0.12309039  0.87359350  0.89278692  1
  V  V26  1  0.12557388  0.87096765  0.64248028  1
  V  V27  1  0.62551616  0.37680486  0.64347804  1
  V  V28  1  0.87413729  0.12327635  0.39172637  1
  V  V29  1  0.37352864  0.62502360  0.64470017  1
  V  V30  1  0.12330082  0.62477301  0.64431868  1
  V  V31  1  0.87397822  0.37367156  0.38920896  1
  Fe  Fe32  1  0.87770032  0.87598286  0.89154697  1
  Fe  Fe33  1  0.12194778  0.37076476  0.89361099  1
  Fe  Fe34  1  0.87545692  0.87738793  0.38651908  1
  Fe  Fe35  1  0.87242716  0.87915416  0.12657220  1
  Fe  Fe36  1  0.37656242  0.12205095  0.39060554  1
  Fe  Fe37  1  0.37618385  0.37547768  0.38624295  1
  Fe  Fe38  1  0.37290247  0.62590305  0.89574037  1
  Fe  Fe39  1  0.62555980  0.12710471  0.87910211  1
  Fe  Fe40  1  0.87466401  0.62452992  0.89055798  1
  Fe  Fe41  1  0.87457041  0.62646401  0.38244139  1
  Fe  Fe42  1  0.87635977  0.62276288  0.64315977  1
  Fe  Fe43  1  0.87280174  0.12646746  0.12930796  1
  Fe  Fe44  1  0.37645150  0.62811848  0.38543449  1
  Fe  Fe45  1  0.12096710  0.12416667  0.63690833  1
  Fe  Fe46  1  0.62475873  0.87190676  0.65070423  1
  Fe  Fe47  1  0.12441637  0.37835254  0.63717715  1
  Fe  Fe48  1  0.87357639  0.37159527  0.13142135  1
  Fe  Fe49  1  0.87347820  0.62433676  0.12907838  1
  Fe  Fe50  1  0.12922913  0.87931680  0.13117798  1
  Fe  Fe51  1  0.37272815  0.37298050  0.88329790  1
  Fe  Fe52  1  0.62553757  0.87688980  0.87613458  1
  Fe  Fe53  1  0.62646346  0.37451505  0.38529974  1
  Fe  Fe54  1  0.62123042  0.87723427  0.13154745  1
  Fe  Fe55  1  0.37386306  0.12448941  0.87473261  1
  Fe  Fe56  1  0.12486563  0.37431685  0.38615494  1
  Fe  Fe57  1  0.37774430  0.62695538  0.12369942  1
  Fe  Fe58  1  0.37683223  0.37317906  0.12795960  1
  Fe  Fe59  1  0.37252234  0.12398503  0.64630415  1
  Fe  Fe60  1  0.12817012  0.37315468  0.12622696  1
  Fe  Fe61  1  0.12736504  0.62806411  0.12424265  1
  Fe  Fe62  1  0.62608239  0.62446705  0.88216886  1
  Fe  Fe63  1  0.62338295  0.37604609  0.13303313  1
  Pb  Pb64  1  -0.00494147  -0.00053252  0.00385543  1
  Pb  Pb65  1  -0.00691113  -0.00755233  0.24360120  1
  Pb  Pb66  1  0.00424505  0.00297275  0.50205102  1
  Pb  Pb67  1  -0.00616387  -0.00826802  0.75372036  1
  Pb  Pb68  1  -0.00700769  0.24601772  0.00411745  1
  Pb  Pb69  1  0.00532697  0.25672356  0.24334694  1
  Pb  Pb70  1  0.01003417  0.25151076  0.50549089  1
  Pb  Pb71  1  0.00975959  0.25619954  0.75142279  1
  Pb  Pb72  1  -0.00886725  0.49857545  0.00740254  1
  Pb  Pb73  1  0.00480057  0.50157789  0.23360207  1
  Pb  Pb74  1  0.00309060  0.49678856  0.49858466  1
  Pb  Pb75  1  0.00723497  0.49563289  0.75778237  1
  Pb  Pb76  1  -0.00450923  0.74221721  0.00505038  1
  Pb  Pb77  1  -0.00348014  0.75079363  0.23440790  1
  Pb  Pb78  1  -0.00732612  0.74437653  0.49713671  1
  Pb  Pb79  1  -0.01089630  0.74831935  0.76091096  1
  Pb  Pb80  1  0.24597592  -0.00143931  -0.00357555  1
  Pb  Pb81  1  0.25759325  0.00705685  0.25190437  1
  Pb  Pb82  1  0.25264870  0.01040996  0.50893918  1
  Pb  Pb83  1  0.24821730  0.00467183  0.74856571  1
  Pb  Pb84  1  0.25326155  0.25569216  -0.00566502  1
  Pb  Pb85  1  0.25273325  0.26505882  0.25158991  1
  Pb  Pb86  1  0.25145404  0.24799608  0.50061263  1
  Pb  Pb87  1  0.24956232  0.25278153  0.74876413  1
  Pb  Pb88  1  0.25235525  0.48863343  0.00029755  1
  Pb  Pb89  1  0.25414274  0.49955830  0.23484108  1
  Pb  Pb90  1  0.24942462  0.49475437  0.49554702  1
  Pb  Pb91  1  0.25696270  0.49480513  0.75995528  1
  Pb  Pb92  1  0.24422058  0.74956204  0.00328587  1
  Pb  Pb93  1  0.25190084  0.74341808  0.24057654  1
  Pb  Pb94  1  0.24879051  0.75092159  0.49925258  1
  Pb  Pb95  1  0.25245675  0.74134766  0.75906390  1
  Pb  Pb96  1  0.50825104  0.00158248  -0.01086805  1
  Pb  Pb97  1  0.49642704  0.00700045  0.25157629  1
  Pb  Pb98  1  0.49764098  0.00060226  0.50874082  1
  Pb  Pb99  1  0.50842644  0.00045757  0.75506829  1
  Pb  Pb100  1  0.49578308  0.25328238  -0.00862134  1
  Pb  Pb101  1  0.49792626  0.26146408  0.25150699  1
  Pb  Pb102  1  0.49388297  0.24877972  0.50082792  1
  Pb  Pb103  1  0.49208688  0.25004173  0.75517246  1
  Pb  Pb104  1  0.49213209  0.49881521  -0.00516538  1
  Pb  Pb105  1  0.49159762  0.49725890  0.24187288  1
  Pb  Pb106  1  0.49791998  0.49749430  0.49682040  1
  Pb  Pb107  1  0.49509820  0.50357685  0.76009258  1
  Pb  Pb108  1  0.50164568  0.74782668  -0.00932645  1
  Pb  Pb109  1  0.49735056  0.74370498  0.24654781  1
  Pb  Pb110  1  0.50964399  0.75701738  0.50702654  1
  Pb  Pb111  1  0.50009193  0.73749422  0.76096570  1
  Pb  Pb112  1  0.74595322  -0.00944697  -0.00327059  1
  Pb  Pb113  1  0.75507484  -0.00758154  0.24472250  1
  Pb  Pb114  1  0.74284854  -0.01016492  0.50719162  1
  Pb  Pb115  1  0.74756650  -0.00351640  0.75648365  1
  Pb  Pb116  1  0.74664403  0.25846312  0.00378266  1
  Pb  Pb117  1  0.74594366  0.25571680  0.24467944  1
  Pb  Pb118  1  0.75171812  0.24878744  0.50175901  1
  Pb  Pb119  1  0.74963924  0.24628679  0.75407171  1
  Pb  Pb120  1  0.75050549  0.49798257  -0.00015244  1
  Pb  Pb121  1  0.75186407  0.50291697  0.24143395  1
  Pb  Pb122  1  0.75627365  0.50748426  0.50104899  1
  Pb  Pb123  1  0.75020396  0.50689700  0.75830969  1
  Pb  Pb124  1  0.75006315  0.75484592  -0.01167397  1
  Pb  Pb125  1  0.76077533  0.75224152  0.24215208  1
  Pb  Pb126  1  0.75541564  0.74637486  0.50351454  1
  Pb  Pb127  1  0.75912394  0.74629129  0.76174121  1
  O  O128  1  0.13246067  0.00695691  0.16629623  1
  O  O129  1  0.12398855  0.00095671  0.41713891  1
  O  O130  1  0.12263216  -0.00852724  0.66522104  1
  O  O131  1  0.12355445  0.00460544  0.91342889  1
  O  O132  1  0.13190648  0.23903624  0.16103333  1
  O  O133  1  0.12206517  0.24278003  0.41529498  1
  O  O134  1  0.12115067  0.25289175  0.66305788  1
  O  O135  1  0.12205926  0.23972039  0.91040772  1
  O  O136  1  0.12783358  0.50063871  0.15107563  1
  O  O137  1  0.12299565  0.50713101  0.40965063  1
  O  O138  1  0.12566627  0.50627902  0.66954353  1
  O  O139  1  0.12327577  0.50239079  0.91315526  1
  O  O140  1  0.12908448  0.75450141  0.15884603  1
  O  O141  1  0.12528383  0.74735937  0.41458625  1
  O  O142  1  0.12584694  0.74430241  0.67157949  1
  O  O143  1  0.12588689  0.75877710  0.91135621  1
  O  O144  1  0.37752647  0.00040657  0.16591745  1
  O  O145  1  0.37547115  -0.00511127  0.42392488  1
  O  O146  1  0.37168464  -0.00971274  0.66535628  1
  O  O147  1  0.37115982  -0.00432061  0.90530733  1
  O  O148  1  0.37576087  0.24207802  0.15796336  1
  O  O149  1  0.37581279  0.24739751  0.41940437  1
  O  O150  1  0.37696804  0.25775586  0.66191666  1
  O  O151  1  0.37328089  0.24689677  0.90686495  1
  O  O152  1  0.37829710  0.50111084  0.15189748  1
  O  O153  1  0.37660858  0.50377225  0.41706824  1
  O  O154  1  0.37561581  0.50001796  0.67053868  1
  O  O155  1  0.37424574  0.49793931  0.91103695  1
  O  O156  1  0.37849710  0.75829947  0.15573118  1
  O  O157  1  0.37555588  0.75331892  0.42217569  1
  O  O158  1  0.37310910  0.74948954  0.67170978  1
  O  O159  1  0.36956048  0.76270072  0.91123381  1
  O  O160  1  0.61773335  0.00874164  0.16361243  1
  O  O161  1  0.62598463  0.00180178  0.42140028  1
  O  O162  1  0.62808909  0.00711376  0.66522682  1
  O  O163  1  0.62388076  0.00210883  0.90569515  1
  O  O164  1  0.61955701  0.23845529  0.16072313  1
  O  O165  1  0.62761522  0.24171037  0.41670095  1
  O  O166  1  0.62773783  0.25037128  0.66909262  1
  O  O167  1  0.63014832  0.25533179  0.90979683  1
  O  O168  1  0.62183384  0.50887352  0.15719219  1
  O  O169  1  0.62745274  0.50676486  0.41092389  1
  O  O170  1  0.62510746  0.49903023  0.67159783  1
  O  O171  1  0.62772830  0.49044608  0.90954104  1
  O  O172  1  0.62325007  0.74609758  0.15771229  1
  O  O173  1  0.62580702  0.74893134  0.41945124  1
  O  O174  1  0.62248218  0.74158805  0.66856443  1
  O  O175  1  0.62484581  0.75285114  0.90181947  1
  O  O176  1  0.87408090  0.00468956  0.16321975  1
  O  O177  1  0.87452300  0.00409700  0.41965030  1
  O  O178  1  0.87662817  -0.00376764  0.66479712  1
  O  O179  1  0.88009686  0.00863019  0.90901031  1
  O  O180  1  0.87428078  0.24660876  0.16424218  1
  O  O181  1  0.87463911  0.25008981  0.41982694  1
  O  O182  1  0.87341779  0.25418610  0.66456957  1
  O  O183  1  0.87674427  0.24982158  0.91507576  1
  O  O184  1  0.87365834  0.49838449  0.16061995  1
  O  O185  1  0.87312848  0.49376120  0.41052060  1
  O  O186  1  0.87179799  0.49356830  0.66741254  1
  O  O187  1  0.87682108  0.49288339  0.91190348  1
  O  O188  1  0.87187281  0.75232450  0.15301625  1
  O  O189  1  0.87389619  0.75091325  0.41742518  1
  O  O190  1  0.87624447  0.75318907  0.66821329  1
  O  O191  1  0.87741534  0.75026256  0.91296117  1
  O  O192  1  0.01005965  0.12325394  0.15695423  1
  O  O193  1  0.00095110  0.12284135  0.41765850  1
  O  O194  1  -0.00701043  0.12377994  0.66586829  1
  O  O195  1  0.00200973  0.12551063  0.91524956  1
  O  O196  1  0.00276011  0.36960909  0.15619395  1
  O  O197  1  -0.00734329  0.37363685  0.41526155  1
  O  O198  1  -0.00863013  0.37765855  0.66588501  1
  O  O199  1  -0.00683850  0.37206771  0.91621354  1
  O  O200  1  0.00146063  0.62700155  0.15517378  1
  O  O201  1  0.00570911  0.62668577  0.40997416  1
  O  O202  1  0.00646850  0.62435989  0.66606503  1
  O  O203  1  0.00603047  0.62847500  0.91496184  1
  O  O204  1  0.00123800  0.88127094  0.15559878  1
  O  O205  1  0.00533865  0.87515368  0.41565224  1
  O  O206  1  -0.00130385  0.87120560  0.66885740  1
  O  O207  1  0.00785224  0.88094632  0.91453485  1
  O  O208  1  0.25621162  0.12085221  0.16371973  1
  O  O209  1  0.24352077  0.12195109  0.41572592  1
  O  O210  1  0.24522272  0.12440446  0.66532036  1
  O  O211  1  0.24222536  0.12185150  0.90336585  1
  O  O212  1  0.25241564  0.37101716  0.15917360  1
  O  O213  1  0.24900549  0.37413740  0.41746960  1
  O  O214  1  0.25574298  0.37862264  0.66204349  1
  O  O215  1  0.24761609  0.37308673  0.90951112  1
  O  O216  1  0.25388060  0.62988310  0.15412108  1
  O  O217  1  0.24310430  0.62714656  0.41298130  1
  O  O218  1  0.24778250  0.62437373  0.67095563  1
  O  O219  1  0.24186008  0.63096226  0.91474985  1
  O  O220  1  0.26162698  0.87961429  0.16323079  1
  O  O221  1  0.24822623  0.87412395  0.42074929  1
  O  O222  1  0.24992247  0.86945043  0.66932585  1
  O  O223  1  0.24809676  0.88086650  0.91152582  1
  O  O224  1  0.49546061  0.12258840  0.16371813  1
  O  O225  1  0.50859781  0.12132891  0.41886457  1
  O  O226  1  0.50611184  0.12604022  0.66409340  1
  O  O227  1  0.49942979  0.12708805  0.90235830  1
  O  O228  1  0.49961901  0.37123730  0.16223526  1
  O  O229  1  0.50366063  0.37403955  0.41946177  1
  O  O230  1  0.50024983  0.37713324  0.66861150  1
  O  O231  1  0.50681418  0.37171636  0.90303310  1
  O  O232  1  0.50439142  0.62932236  0.15922476  1
  O  O233  1  0.50864241  0.62874558  0.41582348  1
  O  O234  1  0.49858567  0.62239468  0.67077190  1
  O  O235  1  0.50213301  0.62594473  0.91101144  1
  O  O236  1  0.49413197  0.87856917  0.16461648  1
  O  O237  1  0.50090317  0.87515371  0.42281184  1
  O  O238  1  0.49117961  0.87254787  0.66784284  1
  O  O239  1  0.49161890  0.87766483  0.90016734  1
  O  O240  1  0.74091766  0.12358785  0.15160105  1
  O  O241  1  0.74720330  0.12321159  0.42087894  1
  O  O242  1  0.75439606  0.12582122  0.66912004  1
  O  O243  1  0.75647021  0.12781400  0.90831685  1
  O  O244  1  0.74700455  0.37176517  0.16367983  1
  O  O245  1  0.75556838  0.37191424  0.41670077  1
  O  O246  1  0.75205471  0.37455945  0.66935230  1
  O  O247  1  0.75309658  0.37267090  0.91245387  1
  O  O248  1  0.74193857  0.62548493  0.15558061  1
  O  O249  1  0.74402828  0.62706915  0.41673007  1
  O  O250  1  0.74597697  0.62340887  0.66891063  1
  O  O251  1  0.74880655  0.62120073  0.91159750  1
  O  O252  1  0.74538198  0.88059108  0.15975523  1
  O  O253  1  0.74620423  0.87671334  0.41951243  1
  O  O254  1  0.75822184  0.87388716  0.66594196  1
  O  O255  1  0.75024185  0.88033619  0.90558968  1
  O  O256  1  0.13084925  0.12061929  0.04542228  1
  O  O257  1  0.12202473  0.12159339  0.30295642  1
  O  O258  1  0.11994212  0.12172821  0.53665367  1
  O  O259  1  0.11701376  0.12303622  0.79397921  1
  O  O260  1  0.13276212  0.36936126  0.02501452  1
  O  O261  1  0.12642612  0.36606823  0.28677986  1
  O  O262  1  0.11499261  0.38146833  0.53684225  1
  O  O263  1  0.11336450  0.37602712  0.79111369  1
  O  O264  1  0.12396236  0.63689918  0.02314729  1
  O  O265  1  0.12839122  0.62897262  0.29440160  1
  O  O266  1  0.12629497  0.62541774  0.55351506  1
  O  O267  1  0.12416091  0.62351918  0.80511162  1
  O  O268  1  0.13589428  0.88417036  0.03140636  1
  O  O269  1  0.12874734  0.87543596  0.29790290  1
  O  O270  1  0.12522992  0.86740598  0.55165193  1
  O  O271  1  0.12344682  0.87704055  0.80112841  1
  O  O272  1  0.37651666  0.12207275  0.04789442  1
  O  O273  1  0.37783278  0.11581373  0.29114766  1
  O  O274  1  0.37307143  0.11845111  0.54461944  1
  O  O275  1  0.37306855  0.12851753  0.77270632  1
  O  O276  1  0.37612104  0.36851304  0.02653455  1
  O  O277  1  0.37692070  0.37211889  0.28570301  1
  O  O278  1  0.38082040  0.38281942  0.55395929  1
  O  O279  1  0.37236361  0.37547128  0.78108617  1
  O  O280  1  0.38072254  0.63104020  0.02243204  1
  O  O281  1  0.38036907  0.63307292  0.28625224  1
  O  O282  1  0.37374889  0.62581627  0.55408465  1
  O  O283  1  0.37237591  0.62815810  0.79240588  1
  O  O284  1  0.37732522  0.88158338  0.04475013  1
  O  O285  1  0.37541523  0.87441709  0.30264019  1
  O  O286  1  0.37351380  0.86927463  0.55435329  1
  O  O287  1  0.36780613  0.87397871  0.79099186  1
  O  O288  1  0.61759488  0.12220325  0.04184934  1
  O  O289  1  0.62774228  0.12074010  0.30267379  1
  O  O290  1  0.62974422  0.12905518  0.55747077  1
  O  O291  1  0.63130675  0.12485085  0.77834019  1
  O  O292  1  0.62865426  0.36980624  0.03284498  1
  O  O293  1  0.62373432  0.36681902  0.28623300  1
  O  O294  1  0.62789125  0.37711226  0.55272909  1
  O  O295  1  0.63134516  0.37350326  0.79490579  1
  O  O296  1  0.62074547  0.62825845  0.03983231  1
  O  O297  1  0.62472880  0.63083082  0.29826151  1
  O  O298  1  0.62484043  0.62055331  0.55966101  1
  O  O299  1  0.62282058  0.61913156  0.78084793  1
  O  O300  1  0.62152783  0.88751375  0.03203852  1
  O  O301  1  0.62220005  0.87474948  0.30234434  1
  O  O302  1  0.62319361  0.87468354  0.54953974  1
  O  O303  1  0.62529745  0.88443196  0.77296842  1
  O  O304  1  0.88217144  0.12608147  0.02958654  1
  O  O305  1  0.87286709  0.12567474  0.30128320  1
  O  O306  1  0.87348698  0.12514243  0.54881208  1
  O  O307  1  0.87835964  0.12919931  0.80058527  1
  O  O308  1  0.86990471  0.37320857  0.03049353  1
  O  O309  1  0.87309308  0.36723835  0.29880714  1
  O  O310  1  0.87208626  0.37756017  0.55081966  1
  O  O311  1  0.87694396  0.37191149  0.80163623  1
  O  O312  1  0.88017180  0.61800301  0.02768493  1
  O  O313  1  0.86738426  0.62997704  0.28371966  1
  O  O314  1  0.87071152  0.62432112  0.54276849  1
  O  O315  1  0.87360018  0.63013588  0.78687659  1
  O  O316  1  0.87112521  0.88677072  0.02513165  1
  O  O317  1  0.87089936  0.88163959  0.28691861  1
  O  O318  1  0.87764356  0.87218876  0.55306939  1
  O  O319  1  0.88450975  0.87327826  0.78926296  1
