# generated using pymatgen
data_VFe(PbO3)2
_symmetry_space_group_name_H-M   'P 1'
_cell_length_a   15.37682266
_cell_length_b   15.39152437
_cell_length_c   18.51247059
_cell_angle_alpha   89.99963352
_cell_angle_beta   90.02991049
_cell_angle_gamma   89.99724444
_symmetry_Int_Tables_number   1
_chemical_formula_structural   VFe(PbO3)2
_chemical_formula_sum   'V32 Fe32 Pb64 O192'
_cell_volume   4381.39654778
_cell_formula_units_Z   32
loop_
 _symmetry_equiv_pos_site_id
 _symmetry_equiv_pos_as_xyz
  1  'x, y, z'
loop_
 _atom_site_type_symbol
 _atom_site_label
 _atom_site_symmetry_multiplicity
 _atom_site_fract_x
 _atom_site_fract_y
 _atom_site_fract_z
 _atom_site_occupancy
  V  V0  1  0.87740397  0.87648658  0.13545804  1
  V  V1  1  0.12366848  0.12491378  0.63945081  1
  V  V2  1  0.12507929  0.87274793  0.38500998  1
  V  V3  1  0.37572067  0.87388542  0.64645021  1
  V  V4  1  0.87529347  0.87320572  0.64321954  1
  V  V5  1  0.87608561  0.87407975  0.89079517  1
  V  V6  1  0.62670203  0.87821564  0.88868463  1
  V  V7  1  0.62387754  0.12341091  0.13813924  1
  V  V8  1  0.12515033  0.62292072  0.38969597  1
  V  V9  1  0.87522860  0.37497019  0.38664923  1
  V  V10  1  0.62620269  0.87371587  0.64177983  1
  V  V11  1  0.37373953  0.62908725  0.88767430  1
  V  V12  1  0.12498494  0.37533682  0.64030989  1
  V  V13  1  0.87571821  0.12500293  0.89182587  1
  V  V14  1  0.12971732  0.12574576  0.89726369  1
  V  V15  1  0.12506782  0.37689881  0.38484672  1
  V  V16  1  0.37309479  0.62609609  0.64637296  1
  V  V17  1  0.37411051  0.62510808  0.38729242  1
  V  V18  1  0.62410465  0.87610787  0.14058284  1
  V  V19  1  0.12027501  0.37444106  0.89784861  1
  V  V20  1  0.37803511  0.12793984  0.88621575  1
  V  V21  1  0.87506754  0.87484618  0.38591245  1
  V  V22  1  0.87781395  0.12334216  0.64167619  1
  V  V23  1  0.87387594  0.62210432  0.89298029  1
  V  V24  1  0.62603722  0.62600610  0.64252533  1
  V  V25  1  0.37449349  0.37524801  0.39170364  1
  V  V26  1  0.12360078  0.87484728  0.64467847  1
  V  V27  1  0.37849037  0.62639899  0.13106719  1
  V  V28  1  0.37839852  0.12393721  0.13840521  1
  V  V29  1  0.37466524  0.87357564  0.38872428  1
  V  V30  1  0.62642615  0.12568402  0.39283421  1
  V  V31  1  0.37172575  0.37659041  0.88965245  1
  Fe  Fe32  1  0.87299792  0.37384843  0.12444894  1
  Fe  Fe33  1  0.12783214  0.87591831  0.12840458  1
  Fe  Fe34  1  0.87495887  0.12511893  0.38025609  1
  Fe  Fe35  1  0.62426745  0.37638351  0.38756044  1
  Fe  Fe36  1  0.37903435  0.87593877  0.13086840  1
  Fe  Fe37  1  0.37489045  0.87842455  0.88760563  1
  Fe  Fe38  1  0.87489971  0.37208060  0.89598679  1
  Fe  Fe39  1  0.87693852  0.62752433  0.63740247  1
  Fe  Fe40  1  0.12607859  0.12316628  0.13418110  1
  Fe  Fe41  1  0.87627507  0.62566830  0.38254416  1
  Fe  Fe42  1  0.62595149  0.37533935  0.63655401  1
  Fe  Fe43  1  0.12737173  0.37417508  0.12999412  1
  Fe  Fe44  1  0.12667540  0.62647371  0.12426313  1
  Fe  Fe45  1  0.62646164  0.12286275  0.64283817  1
  Fe  Fe46  1  0.62612290  0.12296580  0.87844798  1
  Fe  Fe47  1  0.12583128  0.62693955  0.63951163  1
  Fe  Fe48  1  0.62423032  0.37211260  0.88298373  1
  Fe  Fe49  1  0.62423932  0.87511990  0.38525475  1
  Fe  Fe50  1  0.12381318  0.87736706  0.89565667  1
  Fe  Fe51  1  0.87106320  0.12236925  0.14000131  1
  Fe  Fe52  1  0.62203808  0.37279875  0.13318833  1
  Fe  Fe53  1  0.37154923  0.12358627  0.63340481  1
  Fe  Fe54  1  0.87211728  0.62685417  0.12995442  1
  Fe  Fe55  1  0.37473571  0.12482699  0.39089834  1
  Fe  Fe56  1  0.12597927  0.62308319  0.89724084  1
  Fe  Fe57  1  0.62184466  0.62671707  0.12495185  1
  Fe  Fe58  1  0.62391575  0.62523293  0.89592810  1
  Fe  Fe59  1  0.37692525  0.37443132  0.13217747  1
  Fe  Fe60  1  0.62394136  0.62556069  0.38488590  1
  Fe  Fe61  1  0.12500850  0.12652359  0.38251460  1
  Fe  Fe62  1  0.87811368  0.37750443  0.63655314  1
  Fe  Fe63  1  0.37371478  0.37817253  0.63690046  1
  Pb  Pb64  1  0.00021347  0.01093833  0.00858432  1
  Pb  Pb65  1  0.00628281  0.01068621  0.24772739  1
  Pb  Pb66  1  0.00088801  0.00061565  0.49179143  1
  Pb  Pb67  1  0.00686228  -0.00554075  0.75638900  1
  Pb  Pb68  1  0.00256402  0.24227755  0.01032645  1
  Pb  Pb69  1  0.00047318  0.24760545  0.23779304  1
  Pb  Pb70  1  -0.00384441  0.25425195  0.49438552  1
  Pb  Pb71  1  -0.00547121  0.25610423  0.75526135  1
  Pb  Pb72  1  -0.00772616  0.50423180  0.00661439  1
  Pb  Pb73  1  -0.00423086  0.50188668  0.23361086  1
  Pb  Pb74  1  -0.00832229  0.50318226  0.50157100  1
  Pb  Pb75  1  -0.00051058  0.50451341  0.75198736  1
  Pb  Pb76  1  0.00258934  0.74616394  0.00163889  1
  Pb  Pb77  1  -0.00344625  0.74193890  0.24161341  1
  Pb  Pb78  1  0.00021268  0.73990643  0.50338348  1
  Pb  Pb79  1  0.00816378  0.74087399  0.75824932  1
  Pb  Pb80  1  0.24989466  -0.00761720  0.00367260  1
  Pb  Pb81  1  0.24967982  0.00551823  0.24711534  1
  Pb  Pb82  1  0.25310091  0.00323964  0.49778726  1
  Pb  Pb83  1  0.24882221  -0.00853259  0.75791411  1
  Pb  Pb84  1  0.24996080  0.25414831  0.00721980  1
  Pb  Pb85  1  0.24901049  0.24378302  0.24640599  1
  Pb  Pb86  1  0.25602256  0.24800488  0.49909611  1
  Pb  Pb87  1  0.25389801  0.24906110  0.74636750  1
  Pb  Pb88  1  0.24882254  0.49166537  0.00487651  1
  Pb  Pb89  1  0.24910754  0.49886621  0.23817857  1
  Pb  Pb90  1  0.25224907  0.49584564  0.50257889  1
  Pb  Pb91  1  0.24188583  0.50962941  0.75621847  1
  Pb  Pb92  1  0.24182977  0.75640901  -0.00091329  1
  Pb  Pb93  1  0.24958232  0.75334120  0.23650885  1
  Pb  Pb94  1  0.24291556  0.74478053  0.50128870  1
  Pb  Pb95  1  0.24614697  0.76175753  0.76252586  1
  Pb  Pb96  1  0.49598499  -0.00299023  -0.00137467  1
  Pb  Pb97  1  0.49724419  0.00139910  0.25455601  1
  Pb  Pb98  1  0.50235535  0.01365138  0.50792557  1
  Pb  Pb99  1  0.49911242  0.00520988  0.74904295  1
  Pb  Pb100  1  0.50431605  0.25641296  -0.00274344  1
  Pb  Pb101  1  0.50292885  0.25612170  0.25241004  1
  Pb  Pb102  1  0.50894774  0.25249314  0.50736054  1
  Pb  Pb103  1  0.50570158  0.25059456  0.74048415  1
  Pb  Pb104  1  0.50744321  0.49305958  -0.00168407  1
  Pb  Pb105  1  0.51167627  0.49909188  0.24486996  1
  Pb  Pb106  1  0.50102857  0.49355658  0.50112783  1
  Pb  Pb107  1  0.51149583  0.49712858  0.75316034  1
  Pb  Pb108  1  0.49863880  0.75010423  -0.00080754  1
  Pb  Pb109  1  0.50927111  0.74914668  0.24962769  1
  Pb  Pb110  1  0.50142708  0.74962335  0.49714930  1
  Pb  Pb111  1  0.50375318  0.74607548  0.75854760  1
  Pb  Pb112  1  0.75677156  0.00596489  0.00205771  1
  Pb  Pb113  1  0.74767402  -0.00403047  0.25269731  1
  Pb  Pb114  1  0.74567409  0.00607462  0.50093158  1
  Pb  Pb115  1  0.74874993  0.00273933  0.75312238  1
  Pb  Pb116  1  0.74616438  0.25504678  -0.00251342  1
  Pb  Pb117  1  0.75365077  0.25518835  0.24400980  1
  Pb  Pb118  1  0.74868884  0.26019912  0.50430142  1
  Pb  Pb119  1  0.74692202  0.26179458  0.75227806  1
  Pb  Pb120  1  0.74485944  0.48891942  0.00061965  1
  Pb  Pb121  1  0.74697451  0.50146497  0.23610409  1
  Pb  Pb122  1  0.75004236  0.49941983  0.49575887  1
  Pb  Pb123  1  0.75863944  0.48628654  0.75465540  1
  Pb  Pb124  1  0.75058943  0.74390573  0.00373381  1
  Pb  Pb125  1  0.74658059  0.73659268  0.24939889  1
  Pb  Pb126  1  0.75380772  0.74504923  0.49454720  1
  Pb  Pb127  1  0.74529321  0.74090286  0.75662771  1
  O  O128  1  0.12608851  -0.00184597  0.16132138  1
  O  O129  1  0.12565259  -0.00697838  0.41140494  1
  O  O130  1  0.12388530  -0.00260936  0.66784628  1
  O  O131  1  0.12359553  0.00914502  0.91577855  1
  O  O132  1  0.12913250  0.24828312  0.16091089  1
  O  O133  1  0.12633748  0.25795734  0.41060857  1
  O  O134  1  0.12358898  0.25163898  0.66509637  1
  O  O135  1  0.12331267  0.24788548  0.91966978  1
  O  O136  1  0.12831083  0.50256443  0.15664071  1
  O  O137  1  0.12467868  0.49863635  0.41574048  1
  O  O138  1  0.12369336  0.49438375  0.66402198  1
  O  O139  1  0.12889169  0.49081694  0.91527360  1
  O  O140  1  0.12701624  0.75074341  0.15694877  1
  O  O141  1  0.12657542  0.74980194  0.41628310  1
  O  O142  1  0.12611381  0.75761291  0.66822023  1
  O  O143  1  0.12626788  0.74998463  0.91251173  1
  O  O144  1  0.38100138  0.00592981  0.16414792  1
  O  O145  1  0.37188202  -0.00985649  0.41378180  1
  O  O146  1  0.37231478  -0.00563299  0.66585932  1
  O  O147  1  0.37179608  0.01107678  0.91135797  1
  O  O148  1  0.37849680  0.24041826  0.16210579  1
  O  O149  1  0.37209934  0.25749562  0.41328335  1
  O  O150  1  0.37089413  0.25065736  0.66207307  1
  O  O151  1  0.37161458  0.24517908  0.91306428  1
  O  O152  1  0.37760763  0.50816184  0.15637355  1
  O  O153  1  0.37301323  0.49938524  0.41608046  1
  O  O154  1  0.37574669  0.50998333  0.67008056  1
  O  O155  1  0.37354962  0.49266218  0.90901050  1
  O  O156  1  0.37821541  0.74579778  0.15790877  1
  O  O157  1  0.37132913  0.75143512  0.41530229  1
  O  O158  1  0.37444733  0.74705189  0.67294853  1
  O  O159  1  0.37597140  0.74593457  0.90632127  1
  O  O160  1  0.62173912  0.00180921  0.16740423  1
  O  O161  1  0.62539525  0.00326172  0.41600764  1
  O  O162  1  0.62655935  -0.01029976  0.66572413  1
  O  O163  1  0.62744474  -0.00416018  0.91293238  1
  O  O164  1  0.62235732  0.23981397  0.16105311  1
  O  O165  1  0.62460563  0.24506504  0.41665903  1
  O  O166  1  0.62696141  0.24848913  0.66028623  1
  O  O167  1  0.62478878  0.24499250  0.90882191  1
  O  O168  1  0.62057047  0.50166642  0.15375236  1
  O  O169  1  0.62354975  0.50077480  0.41608735  1
  O  O170  1  0.62415438  0.51023573  0.66090605  1
  O  O171  1  0.62068580  0.49804020  0.91127293  1
  O  O172  1  0.62071804  0.75734725  0.15681364  1
  O  O173  1  0.62340483  0.75153528  0.41837523  1
  O  O174  1  0.62353861  0.75243707  0.67024843  1
  O  O175  1  0.62546964  0.76259480  0.91617031  1
  O  O176  1  0.86806714  -0.01010780  0.16563481  1
  O  O177  1  0.87648256  -0.00605453  0.41207089  1
  O  O178  1  0.87948943  -0.00236131  0.67097429  1
  O  O179  1  0.87509009  -0.00080346  0.91542579  1
  O  O180  1  0.87118302  0.24914003  0.15736283  1
  O  O181  1  0.87572653  0.25508665  0.41105273  1
  O  O182  1  0.87973299  0.23968125  0.66329376  1
  O  O183  1  0.87695183  0.24003429  0.91417397  1
  O  O184  1  0.87260152  0.50022499  0.15449056  1
  O  O185  1  0.87754939  0.49444173  0.41035509  1
  O  O186  1  0.87764418  0.50285070  0.66623779  1
  O  O187  1  0.87509174  0.50615333  0.90916363  1
  O  O188  1  0.86924743  0.76057946  0.16083808  1
  O  O189  1  0.87774072  0.75758847  0.41214005  1
  O  O190  1  0.87674210  0.75580219  0.67011663  1
  O  O191  1  0.87341432  0.75609951  0.91366625  1
  O  O192  1  -0.00163906  0.12119059  0.16123287  1
  O  O193  1  -0.00031760  0.12448221  0.41242985  1
  O  O194  1  0.00036926  0.12106853  0.67142597  1
  O  O195  1  -0.00182763  0.12358342  0.91798259  1
  O  O196  1  -0.00008899  0.37449683  0.15337467  1
  O  O197  1  -0.00189448  0.37545386  0.41040151  1
  O  O198  1  0.00686819  0.37282230  0.66813326  1
  O  O199  1  0.00520512  0.37250949  0.91543458  1
  O  O200  1  -0.00047992  0.62913621  0.15551792  1
  O  O201  1  0.00334364  0.62611419  0.41437023  1
  O  O202  1  0.00226952  0.62839684  0.67181827  1
  O  O203  1  -0.00737463  0.62745946  0.91497622  1
  O  O204  1  -0.00701768  0.87483191  0.15171810  1
  O  O205  1  -0.00082401  0.87442955  0.41155092  1
  O  O206  1  0.00387412  0.87577088  0.66832506  1
  O  O207  1  -0.00890886  0.87731651  0.91335575  1
  O  O208  1  0.25898527  0.12200574  0.15767892  1
  O  O209  1  0.24781922  0.12450209  0.41808176  1
  O  O210  1  0.24253453  0.12332316  0.66456335  1
  O  O211  1  0.24825996  0.12812678  0.91394540  1
  O  O212  1  0.25462626  0.37427442  0.16437808  1
  O  O213  1  0.25112688  0.37905814  0.41501370  1
  O  O214  1  0.24175505  0.37665385  0.66717405  1
  O  O215  1  0.25202807  0.36831921  0.91572930  1
  O  O216  1  0.25798501  0.62703682  0.15487298  1
  O  O217  1  0.25079969  0.62471282  0.41834007  1
  O  O218  1  0.25416547  0.62651354  0.66800741  1
  O  O219  1  0.26033454  0.61899164  0.91404413  1
  O  O220  1  0.25506603  0.87652522  0.15873889  1
  O  O221  1  0.25105313  0.87169391  0.41445658  1
  O  O222  1  0.24566313  0.87494294  0.66912654  1
  O  O223  1  0.25214565  0.87949533  0.91656803  1
  O  O224  1  0.50327002  0.12258931  0.16640290  1
  O  O225  1  0.50531282  0.12426366  0.41712722  1
  O  O226  1  0.49717943  0.11963631  0.66316528  1
  O  O227  1  0.49405975  0.12402819  0.90495130  1
  O  O228  1  0.49810002  0.37116405  0.16659939  1
  O  O229  1  0.49262262  0.37534358  0.41504156  1
  O  O230  1  0.49942949  0.37989952  0.66431279  1
  O  O231  1  0.49122648  0.36886183  0.90764152  1
  O  O232  1  0.49568930  0.62859226  0.15748054  1
  O  O233  1  0.49279538  0.62621276  0.41697681  1
  O  O234  1  0.50123938  0.63052856  0.66983903  1
  O  O235  1  0.48952407  0.62309555  0.91448831  1
  O  O236  1  0.50467180  0.87881665  0.16483223  1
  O  O237  1  0.49106379  0.87211512  0.41234092  1
  O  O238  1  0.50445332  0.87274359  0.66628931  1
  O  O239  1  0.50579315  0.87961725  0.90857779  1
  O  O240  1  0.73982717  0.11966450  0.16273652  1
  O  O241  1  0.74686981  0.12426152  0.41568914  1
  O  O242  1  0.76158683  0.11680510  0.66236068  1
  O  O243  1  0.75602663  0.12041968  0.90932564  1
  O  O244  1  0.74719401  0.37308839  0.15856711  1
  O  O245  1  0.75619925  0.37419217  0.41166164  1
  O  O246  1  0.75298753  0.37541111  0.66472147  1
  O  O247  1  0.74858492  0.37319540  0.91385043  1
  O  O248  1  0.74591916  0.63079104  0.15554250  1
  O  O249  1  0.75209116  0.62642949  0.41330947  1
  O  O250  1  0.74327161  0.63231755  0.66261435  1
  O  O251  1  0.75606902  0.63119600  0.91373277  1
  O  O252  1  0.74269595  0.87776240  0.16245801  1
  O  O253  1  0.75697645  0.87564755  0.41069404  1
  O  O254  1  0.74667655  0.87300689  0.66659228  1
  O  O255  1  0.75183679  0.87800263  0.91551277  1
  O  O256  1  0.11660892  0.12631387  0.03272654  1
  O  O257  1  0.12798690  0.12121543  0.28223081  1
  O  O258  1  0.12037624  0.12376856  0.54866261  1
  O  O259  1  0.12399544  0.12856225  0.80626565  1
  O  O260  1  0.13635517  0.37185180  0.02902218  1
  O  O261  1  0.12742459  0.38042240  0.29424962  1
  O  O262  1  0.12430233  0.37458257  0.54954971  1
  O  O263  1  0.12489294  0.36996116  0.80644392  1
  O  O264  1  0.12393293  0.62443540  0.02277589  1
  O  O265  1  0.12679446  0.62529061  0.29902326  1
  O  O266  1  0.12440430  0.63393291  0.53991219  1
  O  O267  1  0.12406552  0.61877348  0.79476462  1
  O  O268  1  0.13116268  0.87590029  0.02659455  1
  O  O269  1  0.12565623  0.86985119  0.29427402  1
  O  O270  1  0.12461591  0.87545452  0.55402070  1
  O  O271  1  0.12979955  0.88233910  0.79334979  1
  O  O272  1  0.38328556  0.12216035  0.04719123  1
  O  O273  1  0.37403569  0.12029420  0.29160622  1
  O  O274  1  0.37293155  0.11925309  0.53242251  1
  O  O275  1  0.37184474  0.12899704  0.79505884  1
  O  O276  1  0.37471755  0.36912485  0.03201402  1
  O  O277  1  0.37411153  0.37759266  0.30094495  1
  O  O278  1  0.36942207  0.38344073  0.53731640  1
  O  O279  1  0.36647868  0.37292284  0.79879803  1
  O  O280  1  0.37909911  0.62794998  0.03988641  1
  O  O281  1  0.37399117  0.62529298  0.29696623  1
  O  O282  1  0.37569769  0.62723626  0.55568341  1
  O  O283  1  0.37450820  0.62355486  0.79619649  1
  O  O284  1  0.38375179  0.88259736  0.03023405  1
  O  O285  1  0.37380326  0.87266142  0.29780372  1
  O  O286  1  0.37289122  0.86967218  0.55580008  1
  O  O287  1  0.36446659  0.87649761  0.78674186  1
  O  O288  1  0.62192677  0.11997618  0.04694434  1
  O  O289  1  0.62577271  0.12528672  0.30190666  1
  O  O290  1  0.62463441  0.11483965  0.54133475  1
  O  O291  1  0.62709303  0.11496654  0.77799577  1
  O  O292  1  0.61823762  0.36922027  0.03130939  1
  O  O293  1  0.61749222  0.37265922  0.28757766  1
  O  O294  1  0.62598395  0.37058015  0.53415342  1
  O  O295  1  0.63069397  0.37714847  0.78117829  1
  O  O296  1  0.62011330  0.63307488  0.02313519  1
  O  O297  1  0.62048620  0.63215513  0.28441360  1
  O  O298  1  0.62067493  0.63229517  0.55189764  1
  O  O299  1  0.62153598  0.63672887  0.79484715  1
  O  O300  1  0.62194234  0.88259365  0.04937263  1
  O  O301  1  0.62090565  0.87522498  0.28616154  1
  O  O302  1  0.62591429  0.87219147  0.55095893  1
  O  O303  1  0.63112435  0.87608100  0.79750484  1
  O  O304  1  0.87498827  0.11350604  0.03838872  1
  O  O305  1  0.87219482  0.12155783  0.28080587  1
  O  O306  1  0.88194217  0.11976223  0.55081777  1
  O  O307  1  0.88068816  0.12254407  0.80082542  1
  O  O308  1  0.86936213  0.37865316  0.02207806  1
  O  O309  1  0.87396508  0.37416485  0.29596906  1
  O  O310  1  0.87951426  0.37310017  0.53663364  1
  O  O311  1  0.87293685  0.36917753  0.79317478  1
  O  O312  1  0.87760181  0.63045929  0.02922413  1
  O  O313  1  0.87649861  0.63346886  0.28260694  1
  O  O314  1  0.88446781  0.62767290  0.53708870  1
  O  O315  1  0.87518865  0.63007490  0.80098200  1
  O  O316  1  0.86850067  0.87834880  0.04414753  1
  O  O317  1  0.87612490  0.87505665  0.29518759  1
  O  O318  1  0.87554870  0.87594331  0.55257580  1
  O  O319  1  0.87386075  0.87526708  0.79974099  1
