# generated using pymatgen
data_VFe(PbO3)2
_symmetry_space_group_name_H-M   'P 1'
_cell_length_a   15.36862823
_cell_length_b   15.39075754
_cell_length_c   18.54486028
_cell_angle_alpha   90.01258096
_cell_angle_beta   90.02779609
_cell_angle_gamma   89.98661567
_symmetry_Int_Tables_number   1
_chemical_formula_structural   VFe(PbO3)2
_chemical_formula_sum   'V32 Fe32 Pb64 O192'
_cell_volume   4386.50464713
_cell_formula_units_Z   32
loop_
 _symmetry_equiv_pos_site_id
 _symmetry_equiv_pos_as_xyz
  1  'x, y, z'
loop_
 _atom_site_type_symbol
 _atom_site_label
 _atom_site_symmetry_multiplicity
 _atom_site_fract_x
 _atom_site_fract_y
 _atom_site_fract_z
 _atom_site_occupancy
  V  V0  1  0.12528145  0.87505817  0.88925767  1
  V  V1  1  0.12731883  0.62498244  0.38805027  1
  V  V2  1  0.62036421  0.37641243  0.38856418  1
  V  V3  1  0.62623647  0.37489839  0.88979842  1
  V  V4  1  0.12509571  0.87220050  0.63922196  1
  V  V5  1  0.87661716  0.37319862  0.14091194  1
  V  V6  1  0.12779295  0.87566216  0.38667854  1
  V  V7  1  0.62492921  0.37685950  0.63883979  1
  V  V8  1  0.12330988  0.37587356  0.64209163  1
  V  V9  1  0.62861238  0.37221906  0.13975091  1
  V  V10  1  0.12289346  0.86895823  0.13525667  1
  V  V11  1  0.37687344  0.12283670  0.89201205  1
  V  V12  1  0.37401007  0.12606289  0.38873547  1
  V  V13  1  0.37416972  0.37409618  0.13698827  1
  V  V14  1  0.37633704  0.62501078  0.38653693  1
  V  V15  1  0.62328340  0.62757494  0.63857107  1
  V  V16  1  0.87471636  0.12711072  0.14259774  1
  V  V17  1  0.37681340  0.37565779  0.88961010  1
  V  V18  1  0.12966976  0.37464308  0.39054889  1
  V  V19  1  0.37475611  0.12375184  0.64118998  1
  V  V20  1  0.37577610  0.37542112  0.63925180  1
  V  V21  1  0.87507671  0.62398548  0.63664001  1
  V  V22  1  0.62435619  0.12691822  0.38850310  1
  V  V23  1  0.87361309  0.87329104  0.63635242  1
  V  V24  1  0.12516317  0.12428594  0.14241609  1
  V  V25  1  0.12303757  0.37287618  0.13844526  1
  V  V26  1  0.87530672  0.37503968  0.88659781  1
  V  V27  1  0.87534599  0.87559494  0.89284288  1
  V  V28  1  0.62824331  0.12363801  0.89366111  1
  V  V29  1  0.62466725  0.62939194  0.14504757  1
  V  V30  1  0.12283069  0.62576231  0.89165100  1
  V  V31  1  0.62492214  0.87432261  0.89495898  1
  Fe  Fe32  1  0.62188257  0.12341825  0.63207089  1
  Fe  Fe33  1  0.37347152  0.62284551  0.63779182  1
  Fe  Fe34  1  0.12365512  0.12398242  0.87805703  1
  Fe  Fe35  1  0.87721168  0.12445460  0.38970458  1
  Fe  Fe36  1  0.12452489  0.37674489  0.88177531  1
  Fe  Fe37  1  0.87732276  0.37391189  0.39279610  1
  Fe  Fe38  1  0.87938034  0.87816208  0.14601809  1
  Fe  Fe39  1  0.37302577  0.37290818  0.38769199  1
  Fe  Fe40  1  0.37813492  0.62524766  0.89205551  1
  Fe  Fe41  1  0.62183808  0.87490494  0.37486179  1
  Fe  Fe42  1  0.12766189  0.12174134  0.64500552  1
  Fe  Fe43  1  0.37412489  0.62329538  0.13086317  1
  Fe  Fe44  1  0.62306116  0.62386150  0.37380224  1
  Fe  Fe45  1  0.87374670  0.12436056  0.88325695  1
  Fe  Fe46  1  0.37185422  0.87636549  0.38889291  1
  Fe  Fe47  1  0.12499601  0.62712240  0.63375482  1
  Fe  Fe48  1  0.87229528  0.37813570  0.62943591  1
  Fe  Fe49  1  0.12617571  0.61926454  0.13524262  1
  Fe  Fe50  1  0.37693598  0.87263413  0.63238594  1
  Fe  Fe51  1  0.62442177  0.13081037  0.13521830  1
  Fe  Fe52  1  0.62598050  0.87361601  0.63236611  1
  Fe  Fe53  1  0.62813676  0.62505877  0.88981168  1
  Fe  Fe54  1  0.87178543  0.62584282  0.89007379  1
  Fe  Fe55  1  0.87773797  0.87545261  0.37677760  1
  Fe  Fe56  1  0.37600138  0.87579976  0.89549052  1
  Fe  Fe57  1  0.87482724  0.62462117  0.37719245  1
  Fe  Fe58  1  0.37172862  0.87779654  0.12823260  1
  Fe  Fe59  1  0.62622469  0.88100777  0.14305245  1
  Fe  Fe60  1  0.87694602  0.62245480  0.14453044  1
  Fe  Fe61  1  0.87378491  0.12536727  0.63222867  1
  Fe  Fe62  1  0.12778204  0.12589536  0.38578295  1
  Fe  Fe63  1  0.37269911  0.12811285  0.13204166  1
  Pb  Pb64  1  -0.00292089  -0.00406921  -0.00060084  1
  Pb  Pb65  1  0.00172655  0.01145636  0.25680645  1
  Pb  Pb66  1  -0.00247194  0.00838985  0.49823119  1
  Pb  Pb67  1  -0.00254482  0.00709410  0.74830844  1
  Pb  Pb68  1  0.00404269  0.24669732  -0.00989969  1
  Pb  Pb69  1  -0.00283013  0.24729793  0.26032976  1
  Pb  Pb70  1  -0.00502082  0.24392723  0.50290038  1
  Pb  Pb71  1  -0.00308485  0.24342907  0.74574143  1
  Pb  Pb72  1  -0.00125136  0.50965129  0.00457922  1
  Pb  Pb73  1  -0.00572345  0.49930368  0.25253805  1
  Pb  Pb74  1  -0.00092988  0.49995762  0.49605132  1
  Pb  Pb75  1  0.00011425  0.49789555  0.74793545  1
  Pb  Pb76  1  -0.00683822  0.74370043  0.00685290  1
  Pb  Pb77  1  -0.00748551  0.74474424  0.24832719  1
  Pb  Pb78  1  0.00221314  0.74677421  0.49138130  1
  Pb  Pb79  1  -0.00572038  0.74520758  0.74929887  1
  Pb  Pb80  1  0.25963182  0.00451661  0.00264397  1
  Pb  Pb81  1  0.25676375  -0.00313540  0.24887073  1
  Pb  Pb82  1  0.24569151  0.00372270  0.50238152  1
  Pb  Pb83  1  0.25677482  -0.01068473  0.75245583  1
  Pb  Pb84  1  0.25183945  0.24731283  -0.00490948  1
  Pb  Pb85  1  0.24813991  0.25156128  0.25181628  1
  Pb  Pb86  1  0.24328314  0.24441314  0.50523828  1
  Pb  Pb87  1  0.24104818  0.25205691  0.75432596  1
  Pb  Pb88  1  0.24661609  0.50978355  0.00159552  1
  Pb  Pb89  1  0.25543217  0.49681536  0.24750839  1
  Pb  Pb90  1  0.25017782  0.51041744  0.50425111  1
  Pb  Pb91  1  0.24792564  0.49988696  0.74992681  1
  Pb  Pb92  1  0.25486621  0.74891459  0.00110174  1
  Pb  Pb93  1  0.25999813  0.75109510  0.24468951  1
  Pb  Pb94  1  0.25622421  0.74613316  0.50315319  1
  Pb  Pb95  1  0.26198085  0.74494992  0.75216645  1
  Pb  Pb96  1  0.51496528  -0.00109195  0.01084749  1
  Pb  Pb97  1  0.49816651  0.00074968  0.24061810  1
  Pb  Pb98  1  0.50494890  -0.00700286  0.49863813  1
  Pb  Pb99  1  0.50196045  -0.00983567  0.74741241  1
  Pb  Pb100  1  0.50059527  0.24130059  0.00367158  1
  Pb  Pb101  1  0.49438706  0.25355005  0.24725860  1
  Pb  Pb102  1  0.50428547  0.24364024  0.50162264  1
  Pb  Pb103  1  0.50029975  0.25237688  0.74877004  1
  Pb  Pb104  1  0.49995152  0.50409285  0.00090405  1
  Pb  Pb105  1  0.50276268  0.50140930  0.24866350  1
  Pb  Pb106  1  0.49238887  0.50864340  0.49831677  1
  Pb  Pb107  1  0.50071122  0.51116590  0.75403233  1
  Pb  Pb108  1  0.49471122  0.75031129  0.00229150  1
  Pb  Pb109  1  0.49405996  0.76601608  0.24679775  1
  Pb  Pb110  1  0.50308828  0.76218909  0.49592139  1
  Pb  Pb111  1  0.48996192  0.75229474  0.75345183  1
  Pb  Pb112  1  0.75257328  -0.00898543  0.01123962  1
  Pb  Pb113  1  0.74901846  -0.00245596  0.25061036  1
  Pb  Pb114  1  0.74880328  -0.00425457  0.49094948  1
  Pb  Pb115  1  0.75006223  0.00413232  0.74348896  1
  Pb  Pb116  1  0.74756421  0.24800797  -0.00153985  1
  Pb  Pb117  1  0.76379385  0.25274620  0.25915873  1
  Pb  Pb118  1  0.75820776  0.24722082  0.50220631  1
  Pb  Pb119  1  0.75668050  0.24450072  0.74361839  1
  Pb  Pb120  1  0.75546940  0.50886079  0.00431101  1
  Pb  Pb121  1  0.75040192  0.50457188  0.25414125  1
  Pb  Pb122  1  0.75377472  0.50099482  0.49145009  1
  Pb  Pb123  1  0.74860358  0.50902322  0.75252981  1
  Pb  Pb124  1  0.75362021  0.75779998  0.00985482  1
  Pb  Pb125  1  0.75319540  0.76027409  0.24975760  1
  Pb  Pb126  1  0.74514000  0.75206973  0.48088398  1
  Pb  Pb127  1  0.74887613  0.74018470  0.75344559  1
  O  O128  1  0.12379639  0.00904729  0.16149697  1
  O  O129  1  0.12855447  -0.00633405  0.41113478  1
  O  O130  1  0.12343308  -0.01111681  0.66718189  1
  O  O131  1  0.12091658  -0.00755918  0.90823641  1
  O  O132  1  0.12436258  0.25469734  0.16611179  1
  O  O133  1  0.13006605  0.25652136  0.41459636  1
  O  O134  1  0.12885623  0.25606773  0.66388877  1
  O  O135  1  0.12563087  0.25088139  0.90916307  1
  O  O136  1  0.12492043  0.48828422  0.16480568  1
  O  O137  1  0.12785198  0.49836411  0.41383459  1
  O  O138  1  0.12532745  0.49606907  0.66467831  1
  O  O139  1  0.12298883  0.50544960  0.91083235  1
  O  O140  1  0.12484286  0.75429350  0.15051283  1
  O  O141  1  0.12827145  0.75064081  0.41234114  1
  O  O142  1  0.12063488  0.75663439  0.66477966  1
  O  O143  1  0.12002926  0.74924457  0.91673861  1
  O  O144  1  0.36786582  0.00269519  0.15981497  1
  O  O145  1  0.37349707  0.00912775  0.41230546  1
  O  O146  1  0.37479766  0.00400990  0.66243464  1
  O  O147  1  0.37389407  0.00649155  0.91316273  1
  O  O148  1  0.37099286  0.25479981  0.16461026  1
  O  O149  1  0.37292241  0.24343463  0.41758884  1
  O  O150  1  0.37635800  0.25016105  0.66742068  1
  O  O151  1  0.37672064  0.24988879  0.91455250  1
  O  O152  1  0.37508603  0.49407995  0.16205763  1
  O  O153  1  0.37298444  0.50448303  0.41289731  1
  O  O154  1  0.37723844  0.49486889  0.66767557  1
  O  O155  1  0.37802721  0.49262919  0.91130705  1
  O  O156  1  0.37115723  0.75085107  0.15608598  1
  O  O157  1  0.37182207  0.74128614  0.41062995  1
  O  O158  1  0.37610470  0.74866703  0.66629232  1
  O  O159  1  0.37473262  0.75057070  0.91869898  1
  O  O160  1  0.62706849  0.00910726  0.16602314  1
  O  O161  1  0.61949504  0.00831800  0.40594417  1
  O  O162  1  0.62479897  -0.00123741  0.66470511  1
  O  O163  1  0.62728713  -0.00201999  0.91878157  1
  O  O164  1  0.62645067  0.25698820  0.16729813  1
  O  O165  1  0.61994280  0.24933840  0.41516203  1
  O  O166  1  0.62154698  0.25735655  0.66082187  1
  O  O167  1  0.62404738  0.25062106  0.91801238  1
  O  O168  1  0.62478110  0.48750471  0.16656571  1
  O  O169  1  0.61968152  0.49366586  0.40871997  1
  O  O170  1  0.62373408  0.50056082  0.66577938  1
  O  O171  1  0.62575624  0.49325967  0.91723130  1
  O  O172  1  0.62625491  0.74482039  0.15657321  1
  O  O173  1  0.62212852  0.74832280  0.40111073  1
  O  O174  1  0.62790624  0.74229930  0.65996436  1
  O  O175  1  0.62948942  0.75862856  0.91882200  1
  O  O176  1  0.88181326  0.01240628  0.16471855  1
  O  O177  1  0.87800270  -0.00204417  0.41226061  1
  O  O178  1  0.87461710  -0.00894521  0.65826833  1
  O  O179  1  0.87587327  -0.00633564  0.91473602  1
  O  O180  1  0.87904686  0.25026954  0.17001033  1
  O  O181  1  0.87435538  0.24978238  0.41865224  1
  O  O182  1  0.87287541  0.25430200  0.65927395  1
  O  O183  1  0.87358599  0.25597168  0.91199961  1
  O  O184  1  0.87622480  0.49082046  0.16552847  1
  O  O185  1  0.87668917  0.50056598  0.41247853  1
  O  O186  1  0.87416224  0.50303209  0.66274040  1
  O  O187  1  0.87123714  0.49231651  0.91306199  1
  O  O188  1  0.87863878  0.74978664  0.16268039  1
  O  O189  1  0.87770252  0.74999445  0.40552458  1
  O  O190  1  0.87429724  0.74953599  0.66513356  1
  O  O191  1  0.87367216  0.75735052  0.91933605  1
  O  O192  1  0.00285595  0.13247381  0.16815180  1
  O  O193  1  0.00519981  0.12618423  0.41657782  1
  O  O194  1  -0.00030031  0.12336091  0.66200542  1
  O  O195  1  -0.00104403  0.12410622  0.91160565  1
  O  O196  1  0.00340363  0.37208061  0.16403574  1
  O  O197  1  0.01149872  0.37570137  0.41540968  1
  O  O198  1  0.00461933  0.37664761  0.66014153  1
  O  O199  1  -0.00705136  0.37530709  0.90765596  1
  O  O200  1  0.00509129  0.61990416  0.16884738  1
  O  O201  1  0.00566548  0.62400282  0.40909509  1
  O  O202  1  -0.00266125  0.62519435  0.66388494  1
  O  O203  1  0.00073323  0.62555204  0.91638606  1
  O  O204  1  0.01228486  0.88187505  0.16692705  1
  O  O205  1  0.01024958  0.87277859  0.41022626  1
  O  O206  1  -0.00486447  0.87190251  0.66432237  1
  O  O207  1  -0.00175113  0.87279552  0.91556400  1
  O  O208  1  0.24231520  0.13189649  0.16272307  1
  O  O209  1  0.25454763  0.12546928  0.41690350  1
  O  O210  1  0.25964659  0.12522028  0.66966698  1
  O  O211  1  0.25418638  0.12636125  0.90926146  1
  O  O212  1  0.24584113  0.37312624  0.16197843  1
  O  O213  1  0.24597311  0.37697430  0.41902795  1
  O  O214  1  0.25051595  0.37639481  0.66623548  1
  O  O215  1  0.25834241  0.37358243  0.90962395  1
  O  O216  1  0.25005864  0.61951003  0.16426315  1
  O  O217  1  0.25192056  0.62324085  0.41502088  1
  O  O218  1  0.24729602  0.62427163  0.66696734  1
  O  O219  1  0.24282582  0.62525121  0.91186538  1
  O  O220  1  0.23887612  0.88033612  0.16222387  1
  O  O221  1  0.24415361  0.87283144  0.41633670  1
  O  O222  1  0.24451967  0.87334209  0.66113141  1
  O  O223  1  0.23974431  0.87290468  0.91238963  1
  O  O224  1  0.49747989  0.13113298  0.16169094  1
  O  O225  1  0.49611068  0.12835651  0.41147553  1
  O  O226  1  0.49285573  0.12651203  0.66672360  1
  O  O227  1  0.49797691  0.12575303  0.91699176  1
  O  O228  1  0.50221433  0.37168757  0.16009926  1
  O  O229  1  0.50251402  0.37237091  0.41598941  1
  O  O230  1  0.50247668  0.37684228  0.66801053  1
  O  O231  1  0.49795700  0.37186147  0.91692250  1
  O  O232  1  0.50444267  0.61809150  0.16139121  1
  O  O233  1  0.49365207  0.62141315  0.40540392  1
  O  O234  1  0.50685346  0.62244984  0.66274963  1
  O  O235  1  0.50497100  0.62538414  0.92059137  1
  O  O236  1  0.49711025  0.87751696  0.15708890  1
  O  O237  1  0.49791337  0.87615695  0.40928944  1
  O  O238  1  0.50136992  0.87327493  0.66540462  1
  O  O239  1  0.50807318  0.87754665  0.91589941  1
  O  O240  1  0.75905326  0.13192187  0.16157404  1
  O  O241  1  0.74133283  0.12692385  0.40844542  1
  O  O242  1  0.74781954  0.12525712  0.66140236  1
  O  O243  1  0.74884065  0.12596464  0.91588935  1
  O  O244  1  0.74948748  0.37140391  0.16426116  1
  O  O245  1  0.73770441  0.37250931  0.41352978  1
  O  O246  1  0.74128240  0.37835948  0.65963740  1
  O  O247  1  0.75112879  0.37169950  0.91473962  1
  O  O248  1  0.74337996  0.61595774  0.16358205  1
  O  O249  1  0.74780876  0.62112452  0.40387722  1
  O  O250  1  0.74725305  0.62250198  0.66433881  1
  O  O251  1  0.74987340  0.62641267  0.92523030  1
  O  O252  1  0.75252496  0.87951059  0.16672037  1
  O  O253  1  0.74833189  0.87833542  0.40278435  1
  O  O254  1  0.75693278  0.87106463  0.66121500  1
  O  O255  1  0.75251591  0.87746331  0.91900601  1
  O  O256  1  0.12162275  0.12759270  0.05122789  1
  O  O257  1  0.12375398  0.12846962  0.28628621  1
  O  O258  1  0.13760638  0.12119672  0.54419858  1
  O  O259  1  0.12384161  0.12560967  0.77754059  1
  O  O260  1  0.12331654  0.37315317  0.04744396  1
  O  O261  1  0.13149066  0.37514135  0.29940602  1
  O  O262  1  0.12728088  0.37570786  0.55133201  1
  O  O263  1  0.12741716  0.37933480  0.78264633  1
  O  O264  1  0.12249276  0.61361232  0.03481554  1
  O  O265  1  0.13102339  0.62425532  0.29730345  1
  O  O266  1  0.12921953  0.62638723  0.53427165  1
  O  O267  1  0.11934741  0.62883684  0.80080616  1
  O  O268  1  0.12098261  0.88005425  0.04434408  1
  O  O269  1  0.13025389  0.87481480  0.29590349  1
  O  O270  1  0.12238375  0.87357093  0.54855527  1
  O  O271  1  0.12307338  0.86971474  0.79875854  1
  O  O272  1  0.36716700  0.12831960  0.03195452  1
  O  O273  1  0.37052511  0.12886765  0.29755723  1
  O  O274  1  0.37276713  0.12632284  0.55039557  1
  O  O275  1  0.38059965  0.12551396  0.80147104  1
  O  O276  1  0.37211955  0.37334842  0.04585247  1
  O  O277  1  0.37080663  0.37077126  0.28876267  1
  O  O278  1  0.37641111  0.37517008  0.54845439  1
  O  O279  1  0.38145107  0.37179730  0.79887525  1
  O  O280  1  0.37060956  0.61914003  0.03011995  1
  O  O281  1  0.37008578  0.62470129  0.29534580  1
  O  O282  1  0.37299892  0.61934713  0.53761316  1
  O  O283  1  0.38175183  0.62964853  0.79093913  1
  O  O284  1  0.36567368  0.87961458  0.02671251  1
  O  O285  1  0.36705389  0.87150353  0.28763423  1
  O  O286  1  0.37914284  0.86923874  0.53207276  1
  O  O287  1  0.37377283  0.87453305  0.79379155  1
  O  O288  1  0.62080034  0.12865350  0.03440628  1
  O  O289  1  0.62165623  0.13253625  0.29807172  1
  O  O290  1  0.61535326  0.12422658  0.53292732  1
  O  O291  1  0.62435577  0.12368819  0.80279904  1
  O  O292  1  0.62975561  0.37232749  0.04882922  1
  O  O293  1  0.61979040  0.37209830  0.29762700  1
  O  O294  1  0.62022933  0.38017021  0.54854300  1
  O  O295  1  0.62480419  0.37348415  0.79903980  1
  O  O296  1  0.62541630  0.61590632  0.05400436  1
  O  O297  1  0.62252881  0.61363380  0.27380612  1
  O  O298  1  0.62361620  0.62351248  0.54791506  1
  O  O299  1  0.63307757  0.62345925  0.78960110  1
  O  O300  1  0.63305599  0.88542254  0.04062863  1
  O  O301  1  0.62061841  0.87540135  0.27320530  1
  O  O302  1  0.61975375  0.87531398  0.53248997  1
  O  O303  1  0.62780531  0.87553839  0.80405740  1
  O  O304  1  0.87963845  0.12964835  0.05164007  1
  O  O305  1  0.88150408  0.13250394  0.28834813  1
  O  O306  1  0.87547723  0.12496944  0.53130062  1
  O  O307  1  0.87207991  0.12443206  0.78343345  1
  O  O308  1  0.87677192  0.37040237  0.05027699  1
  O  O309  1  0.87617513  0.36642339  0.29174069  1
  O  O310  1  0.87210543  0.37783719  0.52940925  1
  O  O311  1  0.87185485  0.37538796  0.79561547  1
  O  O312  1  0.88214161  0.61816242  0.04228855  1
  O  O313  1  0.87897571  0.61856238  0.27603746  1
  O  O314  1  0.87312428  0.62629065  0.54583652  1
  O  O315  1  0.86565782  0.62919584  0.79020739  1
  O  O316  1  0.87680427  0.88342522  0.04412837  1
  O  O317  1  0.87876869  0.87685475  0.27568377  1
  O  O318  1  0.87535863  0.87021163  0.54596016  1
  O  O319  1  0.87364595  0.87360355  0.80238759  1
