# generated using pymatgen
data_VFe(PbO3)2
_symmetry_space_group_name_H-M   'P 1'
_cell_length_a   15.38726672
_cell_length_b   15.38191037
_cell_length_c   18.53719693
_cell_angle_alpha   90.01433405
_cell_angle_beta   90.03195590
_cell_angle_gamma   89.99954066
_symmetry_Int_Tables_number   1
_chemical_formula_structural   VFe(PbO3)2
_chemical_formula_sum   'V32 Fe32 Pb64 O192'
_cell_volume   4387.48597113
_cell_formula_units_Z   32
loop_
 _symmetry_equiv_pos_site_id
 _symmetry_equiv_pos_as_xyz
  1  'x, y, z'
loop_
 _atom_site_type_symbol
 _atom_site_label
 _atom_site_symmetry_multiplicity
 _atom_site_fract_x
 _atom_site_fract_y
 _atom_site_fract_z
 _atom_site_occupancy
  V  V0  1  0.62580190  0.37419228  0.63534935  1
  V  V1  1  0.87243983  0.62633640  0.88899886  1
  V  V2  1  0.12403440  0.62482990  0.89218021  1
  V  V3  1  0.62404090  0.62507334  0.14011157  1
  V  V4  1  0.37855735  0.12745561  0.89486460  1
  V  V5  1  0.12789159  0.37445469  0.88803785  1
  V  V6  1  0.37351261  0.62702826  0.38983832  1
  V  V7  1  0.62642073  0.62533456  0.88764784  1
  V  V8  1  0.87616429  0.87581983  0.89214589  1
  V  V9  1  0.87371007  0.12466702  0.89082450  1
  V  V10  1  0.87408712  0.87653143  0.14650751  1
  V  V11  1  0.12343291  0.37555772  0.13619791  1
  V  V12  1  0.87786120  0.12922193  0.13767599  1
  V  V13  1  0.87519534  0.87625073  0.63745034  1
  V  V14  1  0.87485484  0.62754960  0.14074704  1
  V  V15  1  0.12531258  0.87468836  0.13821784  1
  V  V16  1  0.62515825  0.12405579  0.63778235  1
  V  V17  1  0.62210378  0.37746775  0.89586871  1
  V  V18  1  0.87590271  0.12628811  0.38734419  1
  V  V19  1  0.12595308  0.12451308  0.38976562  1
  V  V20  1  0.12625123  0.37491226  0.39695896  1
  V  V21  1  0.87784910  0.62741854  0.38731974  1
  V  V22  1  0.38334271  0.37986479  0.13730884  1
  V  V23  1  0.87757175  0.37547006  0.39144185  1
  V  V24  1  0.62679030  0.12554905  0.89555577  1
  V  V25  1  0.37163274  0.87762105  0.38503106  1
  V  V26  1  0.37571886  0.37486278  0.38876342  1
  V  V27  1  0.87243776  0.62654871  0.63747014  1
  V  V28  1  0.12694604  0.87499912  0.63702693  1
  V  V29  1  0.12554045  0.12407560  0.89473559  1
  V  V30  1  0.12805909  0.87533969  0.89304974  1
  V  V31  1  0.37797303  0.62501632  0.89130566  1
  Fe  Fe32  1  0.12432374  0.62712492  0.63164578  1
  Fe  Fe33  1  0.37643236  0.12191709  0.63307330  1
  Fe  Fe34  1  0.62528807  0.61975571  0.39651439  1
  Fe  Fe35  1  0.62635247  0.62453803  0.62767138  1
  Fe  Fe36  1  0.87391202  0.37508429  0.89108402  1
  Fe  Fe37  1  0.12461134  0.87487521  0.38414381  1
  Fe  Fe38  1  0.12438327  0.12325775  0.63415502  1
  Fe  Fe39  1  0.37181335  0.12776777  0.37669457  1
  Fe  Fe40  1  0.37792260  0.87755245  0.63075543  1
  Fe  Fe41  1  0.37425991  0.87134790  0.13153356  1
  Fe  Fe42  1  0.37640462  0.62633590  0.63078753  1
  Fe  Fe43  1  0.12245785  0.62521161  0.13252246  1
  Fe  Fe44  1  0.62644071  0.87511221  0.89073356  1
  Fe  Fe45  1  0.12451899  0.62163570  0.39375690  1
  Fe  Fe46  1  0.37059889  0.12663474  0.14486257  1
  Fe  Fe47  1  0.62514192  0.87547778  0.38055301  1
  Fe  Fe48  1  0.62746155  0.87603868  0.63072665  1
  Fe  Fe49  1  0.12369710  0.37413777  0.63158629  1
  Fe  Fe50  1  0.37351552  0.62319890  0.13684424  1
  Fe  Fe51  1  0.37520670  0.37401316  0.88703299  1
  Fe  Fe52  1  0.87985765  0.87589528  0.38064688  1
  Fe  Fe53  1  0.12009200  0.12563704  0.13245948  1
  Fe  Fe54  1  0.62646189  0.87308582  0.14048391  1
  Fe  Fe55  1  0.62302547  0.12768980  0.37768413  1
  Fe  Fe56  1  0.62715525  0.12640811  0.13911878  1
  Fe  Fe57  1  0.87193774  0.12300579  0.63353051  1
  Fe  Fe58  1  0.87818510  0.38057628  0.13195502  1
  Fe  Fe59  1  0.87322896  0.37337109  0.63420366  1
  Fe  Fe60  1  0.37452885  0.87711867  0.89565953  1
  Fe  Fe61  1  0.63058658  0.37732882  0.13843780  1
  Fe  Fe62  1  0.37612463  0.37287593  0.63234200  1
  Fe  Fe63  1  0.62617006  0.37306969  0.38285110  1
  Pb  Pb64  1  0.00195215  0.00276537  0.00228190  1
  Pb  Pb65  1  0.00087979  -0.00967092  0.25393706  1
  Pb  Pb66  1  0.00042419  0.00948916  0.49905063  1
  Pb  Pb67  1  -0.00053672  0.00472788  0.74825978  1
  Pb  Pb68  1  -0.00036846  0.25205737  -0.00241487  1
  Pb  Pb69  1  -0.00032594  0.25338759  0.24850284  1
  Pb  Pb70  1  0.00271993  0.24700075  0.50791942  1
  Pb  Pb71  1  -0.00231252  0.25134564  0.74321447  1
  Pb  Pb72  1  -0.00243522  0.49771559  -0.00050714  1
  Pb  Pb73  1  0.00503386  0.50933705  0.25136035  1
  Pb  Pb74  1  0.00090465  0.48982250  0.50624914  1
  Pb  Pb75  1  0.00016358  0.49472790  0.74512250  1
  Pb  Pb76  1  0.00312923  0.74519104  0.00214390  1
  Pb  Pb77  1  0.00363787  0.75630633  0.25518247  1
  Pb  Pb78  1  0.00821278  0.75003155  0.49588407  1
  Pb  Pb79  1  -0.00235618  0.74972630  0.74805622  1
  Pb  Pb80  1  0.25859791  0.00928555  0.01091023  1
  Pb  Pb81  1  0.25279341  0.00284007  0.24496872  1
  Pb  Pb82  1  0.26155343  0.00134796  0.50156481  1
  Pb  Pb83  1  0.26086502  -0.00251713  0.75082480  1
  Pb  Pb84  1  0.25318442  0.24195039  0.00670999  1
  Pb  Pb85  1  0.25011639  0.24857166  0.24876738  1
  Pb  Pb86  1  0.24654174  0.24956155  0.50287817  1
  Pb  Pb87  1  0.25117440  0.24970467  0.73936092  1
  Pb  Pb88  1  0.25029233  0.50743548  0.00173862  1
  Pb  Pb89  1  0.24139818  0.50725420  0.25038567  1
  Pb  Pb90  1  0.25850478  0.49843313  0.50750638  1
  Pb  Pb91  1  0.25128329  0.49809468  0.73870926  1
  Pb  Pb92  1  0.25470476  0.74358166  0.00469748  1
  Pb  Pb93  1  0.24227655  0.74567701  0.24728974  1
  Pb  Pb94  1  0.25108721  0.74281274  0.49937615  1
  Pb  Pb95  1  0.25820176  0.74964994  0.74538264  1
  Pb  Pb96  1  0.50014549  -0.00545343  0.00740156  1
  Pb  Pb97  1  0.50207378  0.00048375  0.24052070  1
  Pb  Pb98  1  0.49464154  0.00156029  0.49234586  1
  Pb  Pb99  1  0.49746366  -0.01417954  0.75149283  1
  Pb  Pb100  1  0.50860101  0.24652988  0.01042211  1
  Pb  Pb101  1  0.50624854  0.24073611  0.24797803  1
  Pb  Pb102  1  0.49570693  0.24312653  0.49130395  1
  Pb  Pb103  1  0.49487898  0.25259342  0.74844326  1
  Pb  Pb104  1  0.49535566  0.50389714  0.00260186  1
  Pb  Pb105  1  0.51749548  0.50474985  0.26047117  1
  Pb  Pb106  1  0.49258988  0.49799490  0.50193019  1
  Pb  Pb107  1  0.49416838  0.49926694  0.74396633  1
  Pb  Pb108  1  0.49881770  0.76067281  0.00362652  1
  Pb  Pb109  1  0.49869329  0.75497338  0.24770351  1
  Pb  Pb110  1  0.50550922  0.75290770  0.49696208  1
  Pb  Pb111  1  0.50177169  0.75264102  0.73974063  1
  Pb  Pb112  1  0.74067810  -0.00058908  0.00623230  1
  Pb  Pb113  1  0.74092901  -0.00162275  0.25203605  1
  Pb  Pb114  1  0.74225394  -0.00584316  0.48973178  1
  Pb  Pb115  1  0.74146626  -0.00491257  0.75095872  1
  Pb  Pb116  1  0.74182670  0.25222230  0.00817787  1
  Pb  Pb117  1  0.74341776  0.25490296  0.24839469  1
  Pb  Pb118  1  0.75854694  0.24717396  0.49770715  1
  Pb  Pb119  1  0.75562553  0.25280882  0.74988010  1
  Pb  Pb120  1  0.75103027  0.49191575  0.00385235  1
  Pb  Pb121  1  0.74727065  0.50012898  0.25366314  1
  Pb  Pb122  1  0.74820057  0.49699485  0.49847236  1
  Pb  Pb123  1  0.75529056  0.49407922  0.74944415  1
  Pb  Pb124  1  0.74423817  0.75460028  0.00256684  1
  Pb  Pb125  1  0.74354587  0.75021359  0.25751897  1
  Pb  Pb126  1  0.73927320  0.75500221  0.49629488  1
  Pb  Pb127  1  0.74001804  0.75437355  0.74824884  1
  O  O128  1  0.11996204  -0.00673212  0.15927239  1
  O  O129  1  0.12265063  0.00829686  0.40814972  1
  O  O130  1  0.11881917  -0.01070300  0.66423357  1
  O  O131  1  0.12233368  -0.00533052  0.91726568  1
  O  O132  1  0.11763714  0.25616672  0.16098301  1
  O  O133  1  0.12410913  0.24989753  0.41705683  1
  O  O134  1  0.12212923  0.24854592  0.66583694  1
  O  O135  1  0.12374597  0.25422390  0.91170864  1
  O  O136  1  0.11974371  0.49612151  0.16102472  1
  O  O137  1  0.12267135  0.49127998  0.41748753  1
  O  O138  1  0.12119550  0.50245416  0.66057146  1
  O  O139  1  0.12475200  0.49876635  0.91308226  1
  O  O140  1  0.12126295  0.75435986  0.16185843  1
  O  O141  1  0.12513564  0.74866382  0.41330410  1
  O  O142  1  0.12021863  0.75808546  0.66613153  1
  O  O143  1  0.12344995  0.75336977  0.91710522  1
  O  O144  1  0.36988015  -0.00323867  0.16166740  1
  O  O145  1  0.37122878  -0.00336446  0.40323174  1
  O  O146  1  0.37632210  -0.00053800  0.66912036  1
  O  O147  1  0.37358212  0.00939924  0.92120090  1
  O  O148  1  0.36870189  0.26604648  0.16535660  1
  O  O149  1  0.36878095  0.25600180  0.40846744  1
  O  O150  1  0.38051865  0.24709715  0.66209827  1
  O  O151  1  0.37277323  0.24532946  0.91714567  1
  O  O152  1  0.36900775  0.49193889  0.16605524  1
  O  O153  1  0.37056973  0.49550235  0.41398821  1
  O  O154  1  0.37792826  0.49934668  0.66213753  1
  O  O155  1  0.37463841  0.50413797  0.91602683  1
  O  O156  1  0.37240365  0.74751579  0.16523475  1
  O  O157  1  0.37282756  0.74642271  0.40686858  1
  O  O158  1  0.37480698  0.75300167  0.66190219  1
  O  O159  1  0.37416802  0.74216722  0.91416643  1
  O  O160  1  0.63036392  0.00023668  0.16065314  1
  O  O161  1  0.62625214  0.00225466  0.40574293  1
  O  O162  1  0.62992282  0.00514242  0.66081481  1
  O  O163  1  0.62544004  0.00486232  0.91984572  1
  O  O164  1  0.62944826  0.25253342  0.16397609  1
  O  O165  1  0.62593005  0.25032990  0.41263355  1
  O  O166  1  0.62704520  0.25091223  0.66410817  1
  O  O167  1  0.62438265  0.25247225  0.91990757  1
  O  O168  1  0.62971611  0.50735567  0.16489560  1
  O  O169  1  0.62637221  0.49307378  0.41997850  1
  O  O170  1  0.62852567  0.49238822  0.65585512  1
  O  O171  1  0.62355806  0.49882190  0.91656353  1
  O  O172  1  0.62885244  0.74134195  0.16658044  1
  O  O173  1  0.62450999  0.74885680  0.41028096  1
  O  O174  1  0.63026391  0.74996347  0.66093599  1
  O  O175  1  0.62545030  0.74458506  0.91462845  1
  O  O176  1  0.87710078  -0.00445916  0.16312915  1
  O  O177  1  0.88060001  0.00927536  0.40553397  1
  O  O178  1  0.87418878  -0.00781179  0.66291736  1
  O  O179  1  0.87656897  0.00019400  0.92020257  1
  O  O180  1  0.88107169  0.24580928  0.15599259  1
  O  O181  1  0.88021174  0.25026070  0.41426470  1
  O  O182  1  0.87166781  0.24818086  0.66559014  1
  O  O183  1  0.87728586  0.24523484  0.91284809  1
  O  O184  1  0.87620127  0.51024362  0.16247131  1
  O  O185  1  0.87901598  0.49306523  0.41342690  1
  O  O186  1  0.87306401  0.50703116  0.66130429  1
  O  O187  1  0.87529529  0.50592914  0.91608998  1
  O  O188  1  0.87537851  0.74716447  0.16848386  1
  O  O189  1  0.87942394  0.74273859  0.40398325  1
  O  O190  1  0.87363912  0.75199777  0.66478478  1
  O  O191  1  0.87475472  0.75026940  0.91813658  1
  O  O192  1  -0.00574310  0.12104344  0.16592261  1
  O  O193  1  0.00152327  0.12982833  0.41489721  1
  O  O194  1  -0.00239773  0.12023223  0.66707351  1
  O  O195  1  -0.00011829  0.12329068  0.91801881  1
  O  O196  1  0.00302795  0.37805923  0.16593760  1
  O  O197  1  0.00014793  0.37150901  0.41766043  1
  O  O198  1  -0.00267907  0.37670300  0.66398424  1
  O  O199  1  0.00722335  0.37730141  0.91406868  1
  O  O200  1  -0.00530380  0.62773228  0.16291190  1
  O  O201  1  -0.00770277  0.61714419  0.41628531  1
  O  O202  1  -0.00865299  0.62961101  0.66472811  1
  O  O203  1  -0.00141573  0.62750458  0.91579872  1
  O  O204  1  -0.00089657  0.87188961  0.16475158  1
  O  O205  1  0.00085387  0.87698282  0.41663399  1
  O  O206  1  -0.00516167  0.87245615  0.66417675  1
  O  O207  1  0.00116352  0.87378151  0.91942126  1
  O  O208  1  0.24113973  0.12834021  0.16641138  1
  O  O209  1  0.24358305  0.12858357  0.40805431  1
  O  O210  1  0.24963393  0.12151250  0.66383536  1
  O  O211  1  0.25009842  0.12556225  0.91812285  1
  O  O212  1  0.23775429  0.37666271  0.16115680  1
  O  O213  1  0.24674690  0.37341568  0.41451885  1
  O  O214  1  0.24989555  0.37395867  0.65950835  1
  O  O215  1  0.24382894  0.37676189  0.91207974  1
  O  O216  1  0.24631498  0.62240009  0.16528630  1
  O  O217  1  0.25588994  0.62048373  0.41423914  1
  O  O218  1  0.24890587  0.62874972  0.66419071  1
  O  O219  1  0.25163512  0.62463104  0.91474509  1
  O  O220  1  0.24169184  0.87275725  0.15797045  1
  O  O221  1  0.25501921  0.87368678  0.41106822  1
  O  O222  1  0.24252870  0.87532417  0.65877283  1
  O  O223  1  0.24238406  0.87388255  0.91583642  1
  O  O224  1  0.49840208  0.12965746  0.15973413  1
  O  O225  1  0.49580693  0.12754888  0.40423755  1
  O  O226  1  0.51097500  0.12395808  0.66467948  1
  O  O227  1  0.49688267  0.12760954  0.91800862  1
  O  O228  1  0.49715943  0.37885731  0.15278918  1
  O  O229  1  0.49240557  0.37483667  0.40726100  1
  O  O230  1  0.50957581  0.37298378  0.66131950  1
  O  O231  1  0.50407154  0.37433623  0.91989850  1
  O  O232  1  0.50690741  0.62266100  0.16222156  1
  O  O233  1  0.49032097  0.61970732  0.41259885  1
  O  O234  1  0.50346708  0.62527704  0.65996772  1
  O  O235  1  0.49809566  0.62212290  0.91282125  1
  O  O236  1  0.50001470  0.87140640  0.16100196  1
  O  O237  1  0.49041319  0.87260306  0.40631154  1
  O  O238  1  0.50365106  0.87704276  0.66074523  1
  O  O239  1  0.50120181  0.87676050  0.91886625  1
  O  O240  1  0.76367350  0.12341566  0.16375540  1
  O  O241  1  0.75914943  0.12940225  0.40515347  1
  O  O242  1  0.74311100  0.12597842  0.66584612  1
  O  O243  1  0.75113023  0.12513643  0.91821318  1
  O  O244  1  0.75692684  0.37806368  0.16400678  1
  O  O245  1  0.75962222  0.37169824  0.40908777  1
  O  O246  1  0.74442943  0.37354755  0.66529737  1
  O  O247  1  0.74300035  0.37600125  0.91690219  1
  O  O248  1  0.75202681  0.62677328  0.16549393  1
  O  O249  1  0.76282027  0.61777119  0.41328457  1
  O  O250  1  0.75639874  0.62614929  0.66253792  1
  O  O251  1  0.74847894  0.62388963  0.91631034  1
  O  O252  1  0.75721735  0.87009120  0.16663337  1
  O  O253  1  0.75489755  0.87570603  0.40695789  1
  O  O254  1  0.75715514  0.87474576  0.66357792  1
  O  O255  1  0.75539291  0.87610201  0.92010092  1
  O  O256  1  0.12404269  0.12606143  0.03240295  1
  O  O257  1  0.11977023  0.13100102  0.29887957  1
  O  O258  1  0.11981085  0.12535084  0.53413328  1
  O  O259  1  0.12401331  0.11807128  0.80412641  1
  O  O260  1  0.12125758  0.37535985  0.04491568  1
  O  O261  1  0.12179018  0.37292091  0.30582981  1
  O  O262  1  0.12055204  0.36766618  0.53116893  1
  O  O263  1  0.12484823  0.37680718  0.79748820  1
  O  O264  1  0.12622647  0.62788137  0.03239945  1
  O  O265  1  0.12430525  0.61550790  0.29231266  1
  O  O266  1  0.12550886  0.63339220  0.53159143  1
  O  O267  1  0.12332432  0.62873786  0.80166861  1
  O  O268  1  0.12075489  0.87275198  0.04726978  1
  O  O269  1  0.11798207  0.87371170  0.28408413  1
  O  O270  1  0.12354352  0.87405399  0.54604248  1
  O  O271  1  0.12485832  0.87468180  0.80249649  1
  O  O272  1  0.36124069  0.13030353  0.04299302  1
  O  O273  1  0.36724802  0.13151523  0.27576686  1
  O  O274  1  0.37721106  0.11394087  0.53255652  1
  O  O275  1  0.37704538  0.12370432  0.80409135  1
  O  O276  1  0.37320306  0.37996208  0.04570913  1
  O  O277  1  0.37125070  0.37889242  0.29845578  1
  O  O278  1  0.37579622  0.37852946  0.53208881  1
  O  O279  1  0.38622908  0.37391322  0.78867330  1
  O  O280  1  0.37149643  0.61980169  0.03679692  1
  O  O281  1  0.37226239  0.62131325  0.29868661  1
  O  O282  1  0.37099186  0.62016020  0.53066957  1
  O  O283  1  0.37624063  0.62415154  0.80049403  1
  O  O284  1  0.37656019  0.87214719  0.02967398  1
  O  O285  1  0.37018588  0.87284999  0.29408800  1
  O  O286  1  0.37425504  0.88687363  0.53090628  1
  O  O287  1  0.37392506  0.88401034  0.79531196  1
  O  O288  1  0.62971497  0.13410664  0.03694093  1
  O  O289  1  0.62769705  0.13032065  0.27658941  1
  O  O290  1  0.62488850  0.12646882  0.54682872  1
  O  O291  1  0.62573002  0.12697705  0.80501753  1
  O  O292  1  0.63198670  0.37341116  0.03747125  1
  O  O293  1  0.62783004  0.38365440  0.28178906  1
  O  O294  1  0.62709323  0.36896849  0.54480874  1
  O  O295  1  0.62243449  0.37568884  0.80519776  1
  O  O296  1  0.62612110  0.62595223  0.04915277  1
  O  O297  1  0.62614676  0.61141791  0.29450348  1
  O  O298  1  0.62946345  0.62922861  0.52677470  1
  O  O299  1  0.62719835  0.62311759  0.79703787  1
  O  O300  1  0.63042748  0.87009460  0.03860949  1
  O  O301  1  0.62878411  0.87117400  0.27905540  1
  O  O302  1  0.63135389  0.87326470  0.53028781  1
  O  O303  1  0.63396025  0.87879609  0.79053590  1
  O  O304  1  0.87914218  0.12342150  0.04660582  1
  O  O305  1  0.88181408  0.13273916  0.29668353  1
  O  O306  1  0.87448103  0.12488553  0.53416414  1
  O  O307  1  0.87388403  0.11914918  0.80000450  1
  O  O308  1  0.87908309  0.38323346  0.03124911  1
  O  O309  1  0.88306039  0.37363277  0.30040383  1
  O  O310  1  0.87372861  0.37309734  0.53471507  1
  O  O311  1  0.86655526  0.38132928  0.79145629  1
  O  O312  1  0.87322054  0.63022848  0.04979244  1
  O  O313  1  0.87875056  0.61973624  0.29600024  1
  O  O314  1  0.87362215  0.62842262  0.54715070  1
  O  O315  1  0.87229388  0.62688006  0.79819029  1
  O  O316  1  0.87529784  0.87237789  0.05557699  1
  O  O317  1  0.88675592  0.87522947  0.28024752  1
  O  O318  1  0.87579112  0.87507772  0.54702279  1
  O  O319  1  0.87508424  0.87611309  0.80139569  1
