# generated using pymatgen
data_VFe(PbO3)2
_symmetry_space_group_name_H-M   'P 1'
_cell_length_a   15.38114702
_cell_length_b   15.38893156
_cell_length_c   18.43338692
_cell_angle_alpha   90.03558902
_cell_angle_beta   89.98354215
_cell_angle_gamma   89.99882989
_symmetry_Int_Tables_number   1
_chemical_formula_structural   VFe(PbO3)2
_chemical_formula_sum   'V32 Fe32 Pb64 O192'
_cell_volume   4363.17094800
_cell_formula_units_Z   32
loop_
 _symmetry_equiv_pos_site_id
 _symmetry_equiv_pos_as_xyz
  1  'x, y, z'
loop_
 _atom_site_type_symbol
 _atom_site_label
 _atom_site_symmetry_multiplicity
 _atom_site_fract_x
 _atom_site_fract_y
 _atom_site_fract_z
 _atom_site_occupancy
  V  V0  1  0.37450691  0.62510965  0.13745310  1
  V  V1  1  0.62450516  0.62260410  0.89211257  1
  V  V2  1  0.12395248  0.37707236  0.89007077  1
  V  V3  1  0.87661691  0.12548739  0.38832470  1
  V  V4  1  0.37460797  0.12351889  0.88857882  1
  V  V5  1  0.62368059  0.12499097  0.89099892  1
  V  V6  1  0.62338627  0.37412620  0.38740976  1
  V  V7  1  0.62662920  0.12916256  0.13168056  1
  V  V8  1  0.87356515  0.62441139  0.63803968  1
  V  V9  1  0.37895220  0.12505161  0.38972212  1
  V  V10  1  0.37587078  0.12578398  0.64510752  1
  V  V11  1  0.62182446  0.12089365  0.64563728  1
  V  V12  1  0.37680544  0.37859135  0.89248115  1
  V  V13  1  0.12038576  0.87333067  0.64182417  1
  V  V14  1  0.87696221  0.37420952  0.13576617  1
  V  V15  1  0.12089243  0.37546185  0.64157796  1
  V  V16  1  0.62229316  0.62817541  0.63805435  1
  V  V17  1  0.12714556  0.62665586  0.89016322  1
  V  V18  1  0.37258289  0.12458437  0.13345680  1
  V  V19  1  0.12167548  0.12793134  0.13132011  1
  V  V20  1  0.12527074  0.87634726  0.88835995  1
  V  V21  1  0.37395282  0.87555439  0.38661215  1
  V  V22  1  0.12595515  0.12147071  0.65535069  1
  V  V23  1  0.12417509  0.12514056  0.38764944  1
  V  V24  1  0.87199591  0.12454929  0.64651437  1
  V  V25  1  0.62462982  0.87143798  0.89600493  1
  V  V26  1  0.87285459  0.37813012  0.88799393  1
  V  V27  1  0.12456203  0.37340101  0.38811518  1
  V  V28  1  0.62954219  0.12578938  0.38818104  1
  V  V29  1  0.37504189  0.87542234  0.64045861  1
  V  V30  1  0.37406744  0.37341106  0.63938016  1
  V  V31  1  0.12491498  0.62329640  0.14057210  1
  Fe  Fe32  1  0.12517642  0.62766979  0.38261090  1
  Fe  Fe33  1  0.62395983  0.62720805  0.37418316  1
  Fe  Fe34  1  0.62297630  0.87705097  0.13367647  1
  Fe  Fe35  1  0.87503696  0.87263406  0.89582967  1
  Fe  Fe36  1  0.62303321  0.87928748  0.37886217  1
  Fe  Fe37  1  0.87438597  0.87781769  0.38004474  1
  Fe  Fe38  1  0.62441246  0.62236249  0.14139239  1
  Fe  Fe39  1  0.87345265  0.62350983  0.37609304  1
  Fe  Fe40  1  0.87501100  0.37401687  0.63423355  1
  Fe  Fe41  1  0.87430745  0.12787580  0.12389311  1
  Fe  Fe42  1  0.37496374  0.62324459  0.63835943  1
  Fe  Fe43  1  0.62635485  0.37505688  0.64066251  1
  Fe  Fe44  1  0.62429396  0.37370588  0.12840065  1
  Fe  Fe45  1  0.87631450  0.12596715  0.89600146  1
  Fe  Fe46  1  0.12885995  0.87499467  0.14034311  1
  Fe  Fe47  1  0.62524967  0.87339820  0.63923454  1
  Fe  Fe48  1  0.12594527  0.37511363  0.13386600  1
  Fe  Fe49  1  0.62528760  0.37527497  0.89334643  1
  Fe  Fe50  1  0.37576213  0.87165436  0.89824726  1
  Fe  Fe51  1  0.12800578  0.12620626  0.88068297  1
  Fe  Fe52  1  0.37370225  0.36922969  0.38396725  1
  Fe  Fe53  1  0.87715508  0.62387248  0.13509555  1
  Fe  Fe54  1  0.37244638  0.37561582  0.13661429  1
  Fe  Fe55  1  0.37520321  0.62527941  0.88754063  1
  Fe  Fe56  1  0.37344232  0.87493156  0.12885790  1
  Fe  Fe57  1  0.12391168  0.62647062  0.63469884  1
  Fe  Fe58  1  0.87534928  0.36982326  0.39266666  1
  Fe  Fe59  1  0.87365397  0.87504777  0.63972074  1
  Fe  Fe60  1  0.12527306  0.88015571  0.37959402  1
  Fe  Fe61  1  0.87661905  0.87881956  0.13049599  1
  Fe  Fe62  1  0.37522604  0.62201966  0.38193082  1
  Fe  Fe63  1  0.87721242  0.62346945  0.89937448  1
  Pb  Pb64  1  -0.00524327  -0.00009974  -0.00111472  1
  Pb  Pb65  1  -0.00289459  -0.00761206  0.24377367  1
  Pb  Pb66  1  -0.00562078  -0.00884461  0.50088039  1
  Pb  Pb67  1  -0.00844645  0.00434776  0.76150501  1
  Pb  Pb68  1  0.00406325  0.24766665  -0.00394718  1
  Pb  Pb69  1  -0.00718520  0.25727364  0.25014972  1
  Pb  Pb70  1  -0.00445847  0.25004519  0.50559234  1
  Pb  Pb71  1  -0.00358970  0.24078269  0.75913970  1
  Pb  Pb72  1  0.00324663  0.49842923  0.00381583  1
  Pb  Pb73  1  -0.00100537  0.50789514  0.25292003  1
  Pb  Pb74  1  -0.00157417  0.50550139  0.49407631  1
  Pb  Pb75  1  -0.00755799  0.50863126  0.75237743  1
  Pb  Pb76  1  -0.00459754  0.75302465  0.00669923  1
  Pb  Pb77  1  -0.00736989  0.75425755  0.24441380  1
  Pb  Pb78  1  -0.00253259  0.75132199  0.48689618  1
  Pb  Pb79  1  -0.01652812  0.74732370  0.76015569  1
  Pb  Pb80  1  0.24298147  -0.01164324  0.00546128  1
  Pb  Pb81  1  0.24749958  -0.00369790  0.24679689  1
  Pb  Pb82  1  0.24931971  0.00159579  0.49844203  1
  Pb  Pb83  1  0.25254315  -0.00774102  0.75557110  1
  Pb  Pb84  1  0.25248109  0.25725883  0.00101231  1
  Pb  Pb85  1  0.25427295  0.25548552  0.24731705  1
  Pb  Pb86  1  0.24839816  0.24800056  0.49969680  1
  Pb  Pb87  1  0.24686076  0.25148180  0.75377863  1
  Pb  Pb88  1  0.25138907  0.49162297  0.00477496  1
  Pb  Pb89  1  0.25153087  0.50527896  0.25276673  1
  Pb  Pb90  1  0.25391232  0.51187698  0.50120954  1
  Pb  Pb91  1  0.25408560  0.50594668  0.74899777  1
  Pb  Pb92  1  0.24998877  0.75394109  0.00272133  1
  Pb  Pb93  1  0.24982794  0.74349650  0.25075531  1
  Pb  Pb94  1  0.24345938  0.74136214  0.49751679  1
  Pb  Pb95  1  0.25617838  0.74653448  0.75124164  1
  Pb  Pb96  1  0.50288817  -0.00529775  0.00498554  1
  Pb  Pb97  1  0.50489387  -0.00235145  0.24377109  1
  Pb  Pb98  1  0.50580310  -0.00344241  0.50198183  1
  Pb  Pb99  1  0.49453821  -0.01230390  0.75913133  1
  Pb  Pb100  1  0.49730732  0.25619075  0.00315634  1
  Pb  Pb101  1  0.49645810  0.25652279  0.24477846  1
  Pb  Pb102  1  0.50601536  0.25375603  0.50338938  1
  Pb  Pb103  1  0.50729954  0.25678071  0.75671492  1
  Pb  Pb104  1  0.50954939  0.50099937  0.00779617  1
  Pb  Pb105  1  0.49952329  0.50159794  0.24536678  1
  Pb  Pb106  1  0.49242380  0.50629182  0.49487085  1
  Pb  Pb107  1  0.50508745  0.49557970  0.75174395  1
  Pb  Pb108  1  0.50689435  0.74846172  0.00592534  1
  Pb  Pb109  1  0.50726231  0.75292059  0.24455184  1
  Pb  Pb110  1  0.50476554  0.74936971  0.49220730  1
  Pb  Pb111  1  0.48677261  0.74970704  0.75720408  1
  Pb  Pb112  1  0.75433231  -0.00524247  0.00341453  1
  Pb  Pb113  1  0.75553408  -0.00895012  0.24250252  1
  Pb  Pb114  1  0.74910225  -0.01463521  0.50326068  1
  Pb  Pb115  1  0.75721886  -0.00459405  0.75875854  1
  Pb  Pb116  1  0.75054360  0.25119013  -0.00172831  1
  Pb  Pb117  1  0.75575415  0.25670365  0.24722039  1
  Pb  Pb118  1  0.74658631  0.25804265  0.50867270  1
  Pb  Pb119  1  0.75159539  0.25213859  0.75469402  1
  Pb  Pb120  1  0.74612388  0.51321529  0.01005024  1
  Pb  Pb121  1  0.74988620  0.50694922  0.24565875  1
  Pb  Pb122  1  0.75112208  0.49981417  0.49158175  1
  Pb  Pb123  1  0.74888957  0.49852201  0.75031097  1
  Pb  Pb124  1  0.75771410  0.74848821  0.00950242  1
  Pb  Pb125  1  0.75080724  0.75044672  0.23812186  1
  Pb  Pb126  1  0.74993340  0.75354477  0.48560376  1
  Pb  Pb127  1  0.75625865  0.75293812  0.75443096  1
  O  O128  1  0.13057382  0.01318641  0.15996244  1
  O  O129  1  0.12582401  0.00653742  0.41756407  1
  O  O130  1  0.12659767  -0.00442061  0.67388549  1
  O  O131  1  0.12793806  -0.00529584  0.90515127  1
  O  O132  1  0.13041352  0.24228783  0.15847703  1
  O  O133  1  0.12298508  0.24551584  0.42088751  1
  O  O134  1  0.12627701  0.25586228  0.67057398  1
  O  O135  1  0.12793383  0.25558094  0.90992630  1
  O  O136  1  0.12625105  0.50383700  0.16355905  1
  O  O137  1  0.12439068  0.48819477  0.40707957  1
  O  O138  1  0.12614472  0.49276871  0.66400314  1
  O  O139  1  0.12690779  0.50077421  0.91567422  1
  O  O140  1  0.12679180  0.74265103  0.16130825  1
  O  O141  1  0.12726259  0.75539822  0.40900741  1
  O  O142  1  0.12870913  0.75816609  0.66015370  1
  O  O143  1  0.12709475  0.74644844  0.91224821  1
  O  O144  1  0.37629401  0.00883069  0.15778495  1
  O  O145  1  0.37512444  0.00279068  0.41888026  1
  O  O146  1  0.37632359  0.00096487  0.67145604  1
  O  O147  1  0.37714555  0.00890425  0.91001994  1
  O  O148  1  0.37459216  0.24216228  0.16149023  1
  O  O149  1  0.37469850  0.24445638  0.42023524  1
  O  O150  1  0.37592159  0.24907496  0.67072630  1
  O  O151  1  0.37617575  0.25095232  0.91434605  1
  O  O152  1  0.37054937  0.50579795  0.16068454  1
  O  O153  1  0.37524449  0.49352826  0.41129303  1
  O  O154  1  0.37527313  0.49401067  0.66611134  1
  O  O155  1  0.37388207  0.49562720  0.91234605  1
  O  O156  1  0.37090515  0.74416285  0.15677117  1
  O  O157  1  0.37517714  0.76024138  0.40734459  1
  O  O158  1  0.37507819  0.75305960  0.66513110  1
  O  O159  1  0.37587741  0.74640993  0.92047403  1
  O  O160  1  0.62196398  0.01256662  0.15813098  1
  O  O161  1  0.62164948  0.00919219  0.41239958  1
  O  O162  1  0.62640635  0.00635658  0.67194308  1
  O  O163  1  0.62114156  0.00441036  0.91409304  1
  O  O164  1  0.62346478  0.24575206  0.15869835  1
  O  O165  1  0.62365036  0.24433893  0.41771579  1
  O  O166  1  0.62763244  0.24032546  0.67034221  1
  O  O167  1  0.62104698  0.24459097  0.91339346  1
  O  O168  1  0.62430147  0.49433554  0.16227296  1
  O  O169  1  0.62349487  0.48974382  0.40362147  1
  O  O170  1  0.62778250  0.50770757  0.66560847  1
  O  O171  1  0.62431929  0.50529058  0.91326476  1
  O  O172  1  0.62233681  0.75051255  0.15778536  1
  O  O173  1  0.62061098  0.75337271  0.40532078  1
  O  O174  1  0.62851401  0.74256906  0.66403622  1
  O  O175  1  0.62356087  0.75108078  0.91481746  1
  O  O176  1  0.87486027  0.00724488  0.15469344  1
  O  O177  1  0.87233428  0.01117118  0.41385345  1
  O  O178  1  0.87507781  0.00466239  0.67166313  1
  O  O179  1  0.87589864  -0.00137719  0.91302108  1
  O  O180  1  0.87604520  0.25214257  0.16112791  1
  O  O181  1  0.87347938  0.23942689  0.42116362  1
  O  O182  1  0.87462698  0.24428494  0.66692272  1
  O  O183  1  0.87741151  0.26032218  0.91277847  1
  O  O184  1  0.87884055  0.49000816  0.15922883  1
  O  O185  1  0.87383780  0.49626419  0.41154488  1
  O  O186  1  0.87576392  0.50491674  0.66327611  1
  O  O187  1  0.87694435  0.49283113  0.91688697  1
  O  O188  1  0.87893944  0.75102564  0.15423734  1
  O  O189  1  0.87416797  0.75070486  0.40481885  1
  O  O190  1  0.87500359  0.74383375  0.66496822  1
  O  O191  1  0.87639358  0.74818912  0.92184063  1
  O  O192  1  0.00632557  0.12849436  0.14614276  1
  O  O193  1  -0.00401265  0.12527674  0.41408731  1
  O  O194  1  -0.00522781  0.12424237  0.67073322  1
  O  O195  1  0.00641368  0.12665885  0.91371219  1
  O  O196  1  -0.00272251  0.37027067  0.16149920  1
  O  O197  1  0.00710869  0.36640084  0.41832361  1
  O  O198  1  0.00414805  0.37364254  0.66097369  1
  O  O199  1  -0.00078982  0.37744722  0.91334642  1
  O  O200  1  0.00610431  0.62171421  0.15988958  1
  O  O201  1  -0.00019864  0.62187689  0.41011662  1
  O  O202  1  -0.00492775  0.62468051  0.66260176  1
  O  O203  1  0.01144935  0.62272207  0.92010505  1
  O  O204  1  0.00301132  0.87991325  0.15790798  1
  O  O205  1  -0.00056766  0.88223486  0.41188358  1
  O  O206  1  0.00525184  0.87757682  0.66339384  1
  O  O207  1  0.01005730  0.87159564  0.91469848  1
  O  O208  1  0.25521568  0.12598719  0.15896655  1
  O  O209  1  0.25011856  0.12548365  0.41612951  1
  O  O210  1  0.25346387  0.12468901  0.67359120  1
  O  O211  1  0.25717789  0.13001506  0.90566905  1
  O  O212  1  0.24794395  0.37326043  0.16695737  1
  O  O213  1  0.24167200  0.36372973  0.41085992  1
  O  O214  1  0.24961432  0.37245821  0.66864647  1
  O  O215  1  0.25365339  0.37528159  0.91325422  1
  O  O216  1  0.24912015  0.62398165  0.16358523  1
  O  O217  1  0.25069494  0.62409640  0.41400219  1
  O  O218  1  0.24793076  0.62438045  0.66710578  1
  O  O219  1  0.24314991  0.62237291  0.91408853  1
  O  O220  1  0.25423858  0.87820038  0.16639628  1
  O  O221  1  0.25683741  0.88381994  0.41158772  1
  O  O222  1  0.25016224  0.87849142  0.66848794  1
  O  O223  1  0.24366957  0.87283699  0.91322104  1
  O  O224  1  0.49867327  0.12825387  0.15595315  1
  O  O225  1  0.50256898  0.12630846  0.41618086  1
  O  O226  1  0.50351702  0.12480659  0.66771451  1
  O  O227  1  0.49846177  0.12778242  0.91671549  1
  O  O228  1  0.49871104  0.37212052  0.15901326  1
  O  O229  1  0.50621325  0.36605015  0.41279799  1
  O  O230  1  0.49782407  0.37302731  0.66798467  1
  O  O231  1  0.49355154  0.37492498  0.91437540  1
  O  O232  1  0.49112406  0.62338582  0.15805013  1
  O  O233  1  0.50092287  0.62368769  0.41162919  1
  O  O234  1  0.50662604  0.62452062  0.66064501  1
  O  O235  1  0.50629243  0.62534846  0.91578030  1
  O  O236  1  0.49569837  0.87880871  0.15929978  1
  O  O237  1  0.49279672  0.88244440  0.41299090  1
  O  O238  1  0.49782709  0.87627290  0.66883497  1
  O  O239  1  0.50642061  0.87691782  0.91857792  1
  O  O240  1  0.74337630  0.13008052  0.15175553  1
  O  O241  1  0.74633561  0.12705514  0.40925526  1
  O  O242  1  0.75156333  0.12346246  0.66977494  1
  O  O243  1  0.74072594  0.12687486  0.91224287  1
  O  O244  1  0.75648263  0.37124853  0.15850287  1
  O  O245  1  0.74166087  0.36587543  0.41363166  1
  O  O246  1  0.75195991  0.37419185  0.66903886  1
  O  O247  1  0.75612827  0.37439418  0.90855932  1
  O  O248  1  0.75268796  0.62083680  0.15828220  1
  O  O249  1  0.74663348  0.62185854  0.40712192  1
  O  O250  1  0.75336447  0.62423009  0.66347136  1
  O  O251  1  0.74279193  0.62603527  0.91715789  1
  O  O252  1  0.74941455  0.87965472  0.15550424  1
  O  O253  1  0.74842775  0.88207725  0.40884839  1
  O  O254  1  0.74923255  0.87539571  0.67219538  1
  O  O255  1  0.74152753  0.87658872  0.91540289  1
  O  O256  1  0.13136515  0.12636305  0.03940510  1
  O  O257  1  0.12308238  0.12702516  0.29658410  1
  O  O258  1  0.12468180  0.12421239  0.56381220  1
  O  O259  1  0.11967690  0.13051568  0.77899818  1
  O  O260  1  0.13056120  0.37810196  0.03329413  1
  O  O261  1  0.11956356  0.36615442  0.29650162  1
  O  O262  1  0.12629786  0.37177717  0.55039568  1
  O  O263  1  0.12386015  0.37995967  0.79858066  1
  O  O264  1  0.12777746  0.62173972  0.04884255  1
  O  O265  1  0.12950791  0.62057619  0.28224801  1
  O  O266  1  0.13105918  0.62395794  0.53457932  1
  O  O267  1  0.12306776  0.62431885  0.79831201  1
  O  O268  1  0.13715345  0.87829987  0.03826977  1
  O  O269  1  0.12556874  0.88762682  0.27907220  1
  O  O270  1  0.12442018  0.88173502  0.55051409  1
  O  O271  1  0.12444204  0.87072802  0.79706838  1
  O  O272  1  0.37095521  0.12677710  0.04187026  1
  O  O273  1  0.37753700  0.12468748  0.29844938  1
  O  O274  1  0.37521599  0.12448159  0.55414786  1
  O  O275  1  0.38145352  0.12667664  0.79704529  1
  O  O276  1  0.36692023  0.37178431  0.03480604  1
  O  O277  1  0.37548256  0.36238734  0.28387918  1
  O  O278  1  0.37349930  0.37104241  0.54795743  1
  O  O279  1  0.37664699  0.37488161  0.80071543  1
  O  O280  1  0.37071529  0.62183337  0.04565084  1
  O  O281  1  0.36909164  0.62471726  0.28189722  1
  O  O282  1  0.37293806  0.61765887  0.53761435  1
  O  O283  1  0.37451874  0.63073120  0.78632257  1
  O  O284  1  0.36770969  0.88171614  0.02650464  1
  O  O285  1  0.37517256  0.88121507  0.29534640  1
  O  O286  1  0.37506194  0.87740111  0.54924560  1
  O  O287  1  0.38139343  0.87179480  0.79572238  1
  O  O288  1  0.62292623  0.12914681  0.03977967  1
  O  O289  1  0.62575809  0.12884794  0.29728722  1
  O  O290  1  0.62438921  0.12037724  0.55415519  1
  O  O291  1  0.62093411  0.12424137  0.79952458  1
  O  O292  1  0.62115678  0.37525355  0.02596919  1
  O  O293  1  0.62484805  0.36477743  0.29605380  1
  O  O294  1  0.62597488  0.36526861  0.54070973  1
  O  O295  1  0.61879563  0.37649380  0.79145692  1
  O  O296  1  0.62158136  0.61688828  0.03820342  1
  O  O297  1  0.62100316  0.62257592  0.27269651  1
  O  O298  1  0.62443694  0.62733572  0.54659593  1
  O  O299  1  0.62496272  0.62527662  0.80054985  1
  O  O300  1  0.62050848  0.88175006  0.03182248  1
  O  O301  1  0.61899479  0.88410314  0.27817872  1
  O  O302  1  0.62367965  0.88271267  0.53912028  1
  O  O303  1  0.62223933  0.87389131  0.80397936  1
  O  O304  1  0.87287516  0.13144826  0.02225680  1
  O  O305  1  0.87701714  0.12949804  0.29680318  1
  O  O306  1  0.87164002  0.12198425  0.55541702  1
  O  O307  1  0.87894903  0.12779802  0.79321354  1
  O  O308  1  0.87733577  0.37281354  0.04431324  1
  O  O309  1  0.87861145  0.35655397  0.29205135  1
  O  O310  1  0.87131353  0.36695681  0.53349488  1
  O  O311  1  0.87703207  0.38063507  0.79576729  1
  O  O312  1  0.87422183  0.61969844  0.03114183  1
  O  O313  1  0.87945543  0.61874668  0.27454173  1
  O  O314  1  0.87268558  0.62383020  0.54692103  1
  O  O315  1  0.88433100  0.62586092  0.79684712  1
  O  O316  1  0.87624215  0.87795136  0.02685249  1
  O  O317  1  0.87773666  0.88690966  0.27899450  1
  O  O318  1  0.87127421  0.88396088  0.53943614  1
  O  O319  1  0.87509534  0.86493035  0.79241510  1
