# generated using pymatgen
data_VFe(PbO3)2
_symmetry_space_group_name_H-M   'P 1'
_cell_length_a   15.38462073
_cell_length_b   15.38815741
_cell_length_c   18.53493897
_cell_angle_alpha   90.04312148
_cell_angle_beta   90.00579833
_cell_angle_gamma   89.98249854
_symmetry_Int_Tables_number   1
_chemical_formula_structural   VFe(PbO3)2
_chemical_formula_sum   'V32 Fe32 Pb64 O192'
_cell_volume   4387.97787509
_cell_formula_units_Z   32
loop_
 _symmetry_equiv_pos_site_id
 _symmetry_equiv_pos_as_xyz
  1  'x, y, z'
loop_
 _atom_site_type_symbol
 _atom_site_label
 _atom_site_symmetry_multiplicity
 _atom_site_fract_x
 _atom_site_fract_y
 _atom_site_fract_z
 _atom_site_occupancy
  V  V0  1  0.37524389  0.37527757  0.63993731  1
  V  V1  1  0.87134071  0.12607563  0.14250359  1
  V  V2  1  0.12630715  0.37521873  0.38401192  1
  V  V3  1  0.87893272  0.12318537  0.38997642  1
  V  V4  1  0.37513623  0.62858065  0.89343949  1
  V  V5  1  0.62395469  0.62643556  0.89086158  1
  V  V6  1  0.62379270  0.62342166  0.38836848  1
  V  V7  1  0.12261911  0.37802009  0.13588661  1
  V  V8  1  0.12598056  0.87921865  0.38827175  1
  V  V9  1  0.38071972  0.12229667  0.89553815  1
  V  V10  1  0.87166094  0.87102014  0.40358665  1
  V  V11  1  0.87690364  0.37359408  0.63937118  1
  V  V12  1  0.37506321  0.62332499  0.64060816  1
  V  V13  1  0.87276467  0.87889559  0.14177142  1
  V  V14  1  0.63282183  0.12408405  0.88843290  1
  V  V15  1  0.88101124  0.12103131  0.88850510  1
  V  V16  1  0.37154973  0.87498557  0.90137076  1
  V  V17  1  0.12332080  0.87642140  0.89464601  1
  V  V18  1  0.37494930  0.87159160  0.38659113  1
  V  V19  1  0.87098721  0.62615891  0.14074289  1
  V  V20  1  0.12411038  0.62555161  0.89331673  1
  V  V21  1  0.62614686  0.37977800  0.14239051  1
  V  V22  1  0.62413473  0.87747965  0.88842538  1
  V  V23  1  0.12873509  0.12582423  0.89555372  1
  V  V24  1  0.87372495  0.63093225  0.88725122  1
  V  V25  1  0.62451764  0.37590912  0.63935877  1
  V  V26  1  0.37606110  0.37885730  0.38355448  1
  V  V27  1  0.62751385  0.12504610  0.14264224  1
  V  V28  1  0.12652357  0.12554835  0.63896593  1
  V  V29  1  0.37702426  0.62511854  0.13697909  1
  V  V30  1  0.12816237  0.62858441  0.39011351  1
  V  V31  1  0.12701045  0.37379642  0.64243923  1
  Fe  Fe32  1  0.12216915  0.87123447  0.13544416  1
  Fe  Fe33  1  0.12584375  0.12616296  0.37712562  1
  Fe  Fe34  1  0.37533253  0.37478148  0.13088151  1
  Fe  Fe35  1  0.62543151  0.12830119  0.62838878  1
  Fe  Fe36  1  0.12043570  0.62451382  0.13232058  1
  Fe  Fe37  1  0.62719000  0.87445919  0.14149665  1
  Fe  Fe38  1  0.87582785  0.62138456  0.62628219  1
  Fe  Fe39  1  0.62298230  0.12563617  0.38940726  1
  Fe  Fe40  1  0.12898752  0.87384608  0.63164461  1
  Fe  Fe41  1  0.37359612  0.13009763  0.63359865  1
  Fe  Fe42  1  0.37355751  0.62426587  0.38250435  1
  Fe  Fe43  1  0.37136059  0.12466013  0.37865399  1
  Fe  Fe44  1  0.62766663  0.62596985  0.13322306  1
  Fe  Fe45  1  0.12643606  0.61962443  0.63550955  1
  Fe  Fe46  1  0.87440874  0.37363964  0.14631522  1
  Fe  Fe47  1  0.12347565  0.37393825  0.88853883  1
  Fe  Fe48  1  0.62328117  0.87432137  0.39392407  1
  Fe  Fe49  1  0.87306426  0.37739810  0.88744750  1
  Fe  Fe50  1  0.62168350  0.87370754  0.62451152  1
  Fe  Fe51  1  0.87743158  0.62477902  0.39635517  1
  Fe  Fe52  1  0.37206681  0.87750724  0.63141326  1
  Fe  Fe53  1  0.87765251  0.87634036  0.62346239  1
  Fe  Fe54  1  0.87686576  0.37538310  0.37808173  1
  Fe  Fe55  1  0.62376783  0.62172186  0.63558497  1
  Fe  Fe56  1  0.87769776  0.12953061  0.63214072  1
  Fe  Fe57  1  0.37648602  0.87507390  0.12968114  1
  Fe  Fe58  1  0.12081432  0.12443547  0.13997986  1
  Fe  Fe59  1  0.62514234  0.37272520  0.88626241  1
  Fe  Fe60  1  0.87468244  0.87696429  0.88406796  1
  Fe  Fe61  1  0.37474251  0.37500530  0.89675158  1
  Fe  Fe62  1  0.62556346  0.37543339  0.38074781  1
  Fe  Fe63  1  0.37652370  0.12675440  0.13784103  1
  Pb  Pb64  1  0.00847615  0.00180496  0.00667279  1
  Pb  Pb65  1  0.00401405  0.00090469  0.25105102  1
  Pb  Pb66  1  -0.00360472  0.00223536  0.50336388  1
  Pb  Pb67  1  -0.00898357  -0.00970533  0.74463739  1
  Pb  Pb68  1  -0.00573897  0.25797583  0.00452420  1
  Pb  Pb69  1  0.00440299  0.25029624  0.24978406  1
  Pb  Pb70  1  -0.00222529  0.24692264  0.49573335  1
  Pb  Pb71  1  0.00347465  0.25726647  0.75467011  1
  Pb  Pb72  1  -0.00335206  0.50175082  -0.00122971  1
  Pb  Pb73  1  -0.01151790  0.50412612  0.25423993  1
  Pb  Pb74  1  0.00191607  0.50499807  0.49923621  1
  Pb  Pb75  1  -0.00021856  0.49760333  0.74919344  1
  Pb  Pb76  1  0.00401855  0.75290387  0.00291700  1
  Pb  Pb77  1  -0.00831339  0.74296528  0.25373283  1
  Pb  Pb78  1  0.00616211  0.75622924  0.50564113  1
  Pb  Pb79  1  -0.00343105  0.75060900  0.73664194  1
  Pb  Pb80  1  0.24656968  0.00841342  0.01242875  1
  Pb  Pb81  1  0.25080392  0.00328878  0.23961982  1
  Pb  Pb82  1  0.25610752  -0.00082246  0.49742195  1
  Pb  Pb83  1  0.25331006  0.00041426  0.74632081  1
  Pb  Pb84  1  0.25470974  0.24716937  0.00688237  1
  Pb  Pb85  1  0.25420926  0.24258024  0.24348957  1
  Pb  Pb86  1  0.25415359  0.24362541  0.49329215  1
  Pb  Pb87  1  0.25186992  0.25833503  0.75667124  1
  Pb  Pb88  1  0.24871985  0.49584284  0.00017743  1
  Pb  Pb89  1  0.25279338  0.50349576  0.24467001  1
  Pb  Pb90  1  0.24416792  0.50268725  0.49967929  1
  Pb  Pb91  1  0.25301135  0.49102763  0.75709726  1
  Pb  Pb92  1  0.24071156  0.75174023  0.00660699  1
  Pb  Pb93  1  0.24838164  0.75046234  0.24149669  1
  Pb  Pb94  1  0.25021927  0.75778324  0.50323852  1
  Pb  Pb95  1  0.24590805  0.75094976  0.74704288  1
  Pb  Pb96  1  0.49536152  -0.00363035  0.00739950  1
  Pb  Pb97  1  0.49594466  0.00004385  0.24828397  1
  Pb  Pb98  1  0.49653656  0.00673234  0.49515884  1
  Pb  Pb99  1  0.50187101  0.00293921  0.73533936  1
  Pb  Pb100  1  0.49416709  0.24943423  0.00374367  1
  Pb  Pb101  1  0.50170756  0.24684548  0.25089368  1
  Pb  Pb102  1  0.50009754  0.24238836  0.49448541  1
  Pb  Pb103  1  0.50103895  0.25300748  0.74974646  1
  Pb  Pb104  1  0.50056264  0.49743005  -0.00054394  1
  Pb  Pb105  1  0.49457728  0.50521873  0.24906167  1
  Pb  Pb106  1  0.50356332  0.50439987  0.49768661  1
  Pb  Pb107  1  0.49838215  0.48928692  0.75738912  1
  Pb  Pb108  1  0.50378589  0.75760112  0.00505475  1
  Pb  Pb109  1  0.50398166  0.75453028  0.24709976  1
  Pb  Pb110  1  0.50259852  0.75004382  0.50074897  1
  Pb  Pb111  1  0.50285122  0.75413997  0.74345389  1
  Pb  Pb112  1  0.74381705  -0.00614037  0.00169003  1
  Pb  Pb113  1  0.73629550  -0.00268647  0.26318110  1
  Pb  Pb114  1  0.74079042  0.00430561  0.50280623  1
  Pb  Pb115  1  0.75176638  -0.00262259  0.73248967  1
  Pb  Pb116  1  0.75619446  0.26362759  0.00703730  1
  Pb  Pb117  1  0.73951584  0.24942941  0.25949834  1
  Pb  Pb118  1  0.74797932  0.24772982  0.49336296  1
  Pb  Pb119  1  0.75112384  0.25475704  0.74909548  1
  Pb  Pb120  1  0.74892527  0.50399309  -0.00118096  1
  Pb  Pb121  1  0.75278528  0.49365390  0.25441612  1
  Pb  Pb122  1  0.75690440  0.49935305  0.49392446  1
  Pb  Pb123  1  0.75091532  0.49613541  0.74907597  1
  Pb  Pb124  1  0.73926262  0.75254929  0.00214579  1
  Pb  Pb125  1  0.74557878  0.75158298  0.25605065  1
  Pb  Pb126  1  0.73718394  0.74335714  0.50683707  1
  Pb  Pb127  1  0.75523430  0.75380317  0.73300099  1
  O  O128  1  0.11846135  -0.00406090  0.16396570  1
  O  O129  1  0.12830884  -0.00498401  0.40421046  1
  O  O130  1  0.12962296  0.00891865  0.65825689  1
  O  O131  1  0.12472405  0.00352736  0.92048526  1
  O  O132  1  0.12086451  0.25754867  0.16031383  1
  O  O133  1  0.12653389  0.25735032  0.40616101  1
  O  O134  1  0.12649685  0.25227377  0.67045712  1
  O  O135  1  0.12347220  0.24144103  0.91651547  1
  O  O136  1  0.12263783  0.49706511  0.16002121  1
  O  O137  1  0.12836272  0.49771791  0.41144483  1
  O  O138  1  0.12631160  0.49311825  0.66902150  1
  O  O139  1  0.12125002  0.50436573  0.91593997  1
  O  O140  1  0.12203667  0.74647560  0.16696077  1
  O  O141  1  0.12881280  0.74630768  0.41053155  1
  O  O142  1  0.12953859  0.74613084  0.66377619  1
  O  O143  1  0.12405589  0.75001341  0.91821389  1
  O  O144  1  0.37843915  0.00008266  0.16018961  1
  O  O145  1  0.36850609  -0.00792720  0.40722183  1
  O  O146  1  0.37164086  0.00438878  0.66334025  1
  O  O147  1  0.37228673  0.00380870  0.92042335  1
  O  O148  1  0.37741925  0.25352807  0.16274177  1
  O  O149  1  0.37106435  0.26084060  0.40595871  1
  O  O150  1  0.37460972  0.25655854  0.66820542  1
  O  O151  1  0.37255927  0.24126108  0.91674460  1
  O  O152  1  0.37741472  0.50167360  0.16128226  1
  O  O153  1  0.37167073  0.49486697  0.41387233  1
  O  O154  1  0.37625726  0.49742506  0.67053247  1
  O  O155  1  0.37576370  0.50992966  0.91783385  1
  O  O156  1  0.37693359  0.74265503  0.15826330  1
  O  O157  1  0.37076595  0.75272221  0.41000836  1
  O  O158  1  0.37287104  0.74073615  0.66090963  1
  O  O159  1  0.37384866  0.74615940  0.92089694  1
  O  O160  1  0.62962946  0.00558437  0.16674867  1
  O  O161  1  0.62629031  0.00016778  0.41545674  1
  O  O162  1  0.62269450  0.00017800  0.65225680  1
  O  O163  1  0.62084148  0.00473141  0.91736691  1
  O  O164  1  0.63110459  0.24524304  0.16512028  1
  O  O165  1  0.62372567  0.25251958  0.41312010  1
  O  O166  1  0.62521917  0.25945581  0.66242355  1
  O  O167  1  0.62173592  0.23765501  0.91373611  1
  O  O168  1  0.62736683  0.49671461  0.15899813  1
  O  O169  1  0.62264206  0.50389553  0.41162365  1
  O  O170  1  0.62413315  0.49265874  0.66598006  1
  O  O171  1  0.62587648  0.50489797  0.91392675  1
  O  O172  1  0.62901548  0.74785857  0.16872602  1
  O  O173  1  0.62245148  0.74234259  0.41324592  1
  O  O174  1  0.62208341  0.74838116  0.66268039  1
  O  O175  1  0.62495421  0.75254642  0.91514364  1
  O  O176  1  0.87378558  -0.00240044  0.16565780  1
  O  O177  1  0.88212711  0.00261767  0.41650445  1
  O  O178  1  0.87966310  0.00290163  0.65693238  1
  O  O179  1  0.87340156  0.00666257  0.91700862  1
  O  O180  1  0.87221626  0.24108192  0.16629680  1
  O  O181  1  0.88134137  0.24560696  0.40723286  1
  O  O182  1  0.87681716  0.25711435  0.66600963  1
  O  O183  1  0.87233343  0.23646142  0.91595971  1
  O  O184  1  0.87398131  0.50633096  0.16248982  1
  O  O185  1  0.87863279  0.49687368  0.41342578  1
  O  O186  1  0.87487245  0.49028249  0.66279685  1
  O  O187  1  0.87310623  0.50912808  0.91342925  1
  O  O188  1  0.87130197  0.74991299  0.16544763  1
  O  O189  1  0.88085806  0.75465588  0.41785613  1
  O  O190  1  0.87731407  0.74942409  0.64994876  1
  O  O191  1  0.87321174  0.74707578  0.91097937  1
  O  O192  1  -0.01070486  0.12250324  0.16545464  1
  O  O193  1  0.00125025  0.12497596  0.41226109  1
  O  O194  1  0.01055843  0.13170578  0.66466574  1
  O  O195  1  -0.00124001  0.12167249  0.91240822  1
  O  O196  1  0.00494593  0.37610386  0.16388222  1
  O  O197  1  0.00915839  0.37695981  0.40742335  1
  O  O198  1  -0.00190924  0.37390009  0.66407982  1
  O  O199  1  -0.00285962  0.37194361  0.91850608  1
  O  O200  1  -0.00911254  0.62724082  0.16476701  1
  O  O201  1  0.01217631  0.62363417  0.41523273  1
  O  O202  1  -0.00060426  0.61851340  0.66268519  1
  O  O203  1  -0.00597583  0.62765520  0.91273451  1
  O  O204  1  -0.01223780  0.87142542  0.16690137  1
  O  O205  1  0.01085045  0.87193732  0.41445641  1
  O  O206  1  0.00419316  0.87580051  0.65794550  1
  O  O207  1  0.00175366  0.87737145  0.91471945  1
  O  O208  1  0.24786241  0.12625147  0.15894952  1
  O  O209  1  0.24788899  0.12763652  0.40947923  1
  O  O210  1  0.24341756  0.13240610  0.66823331  1
  O  O211  1  0.24800859  0.12226296  0.91787737  1
  O  O212  1  0.24302222  0.37719104  0.15615488  1
  O  O213  1  0.24792416  0.37748755  0.41038942  1
  O  O214  1  0.25159524  0.37553473  0.66929433  1
  O  O215  1  0.24710573  0.37490468  0.91916189  1
  O  O216  1  0.25514719  0.62219248  0.15770932  1
  O  O217  1  0.24614536  0.62134705  0.41385642  1
  O  O218  1  0.25861542  0.61718662  0.66813954  1
  O  O219  1  0.25262379  0.62717865  0.91663144  1
  O  O220  1  0.25098765  0.87161960  0.15710771  1
  O  O221  1  0.24729692  0.87055077  0.41129100  1
  O  O222  1  0.25087386  0.87483688  0.66967414  1
  O  O223  1  0.24678802  0.87531474  0.92300776  1
  O  O224  1  0.51017134  0.12640216  0.16082257  1
  O  O225  1  0.49381374  0.12502508  0.41075973  1
  O  O226  1  0.50049303  0.13162200  0.66243453  1
  O  O227  1  0.49694697  0.12175669  0.91438601  1
  O  O228  1  0.50870777  0.37158081  0.16061078  1
  O  O229  1  0.49203481  0.37838953  0.40567702  1
  O  O230  1  0.50223735  0.37582278  0.66565239  1
  O  O231  1  0.50248834  0.37375047  0.91892590  1
  O  O232  1  0.49722785  0.62280515  0.16048116  1
  O  O233  1  0.50169473  0.62294317  0.41211803  1
  O  O234  1  0.49201402  0.61983953  0.66830271  1
  O  O235  1  0.49676690  0.62876503  0.91583361  1
  O  O236  1  0.50068199  0.87353894  0.16525107  1
  O  O237  1  0.49065307  0.87330679  0.40816065  1
  O  O238  1  0.49629112  0.87262338  0.65987315  1
  O  O239  1  0.50222941  0.87629434  0.91882203  1
  O  O240  1  0.75289218  0.12167360  0.17037675  1
  O  O241  1  0.76048660  0.12386274  0.41250420  1
  O  O242  1  0.75085453  0.13002215  0.65920910  1
  O  O243  1  0.74683617  0.11937128  0.90764539  1
  O  O244  1  0.74424521  0.37342802  0.16734543  1
  O  O245  1  0.75230662  0.37452489  0.40780731  1
  O  O246  1  0.75036247  0.37460713  0.66007295  1
  O  O247  1  0.74912691  0.37221266  0.91913664  1
  O  O248  1  0.75515919  0.62434534  0.16694050  1
  O  O249  1  0.74275052  0.62487631  0.41175129  1
  O  O250  1  0.75097975  0.62032726  0.66033315  1
  O  O251  1  0.75289751  0.62778227  0.91255591  1
  O  O252  1  0.75769583  0.87507610  0.17205307  1
  O  O253  1  0.75591412  0.87454140  0.41669475  1
  O  O254  1  0.75034357  0.87543837  0.64843170  1
  O  O255  1  0.74587662  0.87968307  0.91397468  1
  O  O256  1  0.12046869  0.11738287  0.03864097  1
  O  O257  1  0.11922519  0.12792127  0.27703065  1
  O  O258  1  0.12866346  0.13191597  0.54778490  1
  O  O259  1  0.12877493  0.12356912  0.80532198  1
  O  O260  1  0.11851255  0.37699043  0.04428936  1
  O  O261  1  0.12791523  0.37772538  0.29328964  1
  O  O262  1  0.12787246  0.37194703  0.55149588  1
  O  O263  1  0.12431518  0.37076561  0.78838542  1
  O  O264  1  0.11719976  0.63080391  0.03264496  1
  O  O265  1  0.12714036  0.62558337  0.29883821  1
  O  O266  1  0.12980785  0.61398129  0.53620123  1
  O  O267  1  0.12600982  0.62682296  0.80240482  1
  O  O268  1  0.11454417  0.87014901  0.03488259  1
  O  O269  1  0.12532074  0.87133350  0.29728938  1
  O  O270  1  0.13278293  0.86941801  0.53171499  1
  O  O271  1  0.12856157  0.87663439  0.80383131  1
  O  O272  1  0.37520176  0.12906525  0.03603608  1
  O  O273  1  0.37479871  0.12719443  0.27802163  1
  O  O274  1  0.36885136  0.12956811  0.53362677  1
  O  O275  1  0.37575567  0.12205332  0.80483241  1
  O  O276  1  0.37741001  0.37342617  0.03011698  1
  O  O277  1  0.37273992  0.38310670  0.29220409  1
  O  O278  1  0.37531943  0.37583867  0.54933852  1
  O  O279  1  0.37530940  0.37949564  0.79545296  1
  O  O280  1  0.37751761  0.62256445  0.04623613  1
  O  O281  1  0.37559697  0.61593306  0.28354379  1
  O  O282  1  0.37562240  0.61842525  0.54951417  1
  O  O283  1  0.37537189  0.62880145  0.80305729  1
  O  O284  1  0.38554005  0.87549609  0.02876731  1
  O  O285  1  0.37226253  0.87117102  0.29544154  1
  O  O286  1  0.36221172  0.87625383  0.53183896  1
  O  O287  1  0.37312945  0.87338791  0.81053317  1
  O  O288  1  0.63283414  0.12503826  0.05181213  1
  O  O289  1  0.62995202  0.12785704  0.28824378  1
  O  O290  1  0.62503958  0.13079636  0.52728599  1
  O  O291  1  0.62655335  0.12264394  0.79772359  1
  O  O292  1  0.63067515  0.37183095  0.05074629  1
  O  O293  1  0.62780639  0.37205868  0.28096251  1
  O  O294  1  0.62188305  0.37795890  0.54874535  1
  O  O295  1  0.62615252  0.37270679  0.78655818  1
  O  O296  1  0.63254970  0.63084678  0.03350493  1
  O  O297  1  0.62291492  0.62384180  0.29704143  1
  O  O298  1  0.61739233  0.62580553  0.53582806  1
  O  O299  1  0.62284615  0.62713872  0.80019381  1
  O  O300  1  0.63225140  0.87533095  0.04093009  1
  O  O301  1  0.63156698  0.87302750  0.29225160  1
  O  O302  1  0.62095630  0.86308177  0.52309231  1
  O  O303  1  0.62277850  0.87734239  0.79778754  1
  O  O304  1  0.86914646  0.12399936  0.05166491  1
  O  O305  1  0.87905400  0.11895903  0.29912536  1
  O  O306  1  0.88762358  0.13241136  0.53295162  1
  O  O307  1  0.87972876  0.12146132  0.79757266  1
  O  O308  1  0.87230390  0.36534873  0.04474982  1
  O  O309  1  0.87711049  0.38286091  0.27625488  1
  O  O310  1  0.87854025  0.37148363  0.54863012  1
  O  O311  1  0.87163601  0.37391346  0.78774464  1
  O  O312  1  0.87058852  0.62841183  0.04966796  1
  O  O313  1  0.88360917  0.62577548  0.29518760  1
  O  O314  1  0.87777494  0.61428363  0.52519007  1
  O  O315  1  0.87382958  0.62749074  0.79669149  1
  O  O316  1  0.87014822  0.87876323  0.05073551  1
  O  O317  1  0.87841879  0.87611490  0.31227220  1
  O  O318  1  0.88942821  0.88113491  0.52141833  1
  O  O319  1  0.87723776  0.88161264  0.78519379  1
