# generated using pymatgen
data_VFe(PbO3)2
_symmetry_space_group_name_H-M   'P 1'
_cell_length_a   15.38846214
_cell_length_b   15.38978573
_cell_length_c   18.52754359
_cell_angle_alpha   90.01676458
_cell_angle_beta   90.05570506
_cell_angle_gamma   90.00275513
_symmetry_Int_Tables_number   1
_chemical_formula_structural   VFe(PbO3)2
_chemical_formula_sum   'V32 Fe32 Pb64 O192'
_cell_volume   4387.78574727
_cell_formula_units_Z   32
loop_
 _symmetry_equiv_pos_site_id
 _symmetry_equiv_pos_as_xyz
  1  'x, y, z'
loop_
 _atom_site_type_symbol
 _atom_site_label
 _atom_site_symmetry_multiplicity
 _atom_site_fract_x
 _atom_site_fract_y
 _atom_site_fract_z
 _atom_site_occupancy
  V  V0  1  0.62440357  0.62613068  0.89704208  1
  V  V1  1  0.87230894  0.62499706  0.38709483  1
  V  V2  1  0.87557269  0.87530767  0.38647584  1
  V  V3  1  0.37383801  0.62415668  0.13385439  1
  V  V4  1  0.12477688  0.12759860  0.89058602  1
  V  V5  1  0.12644190  0.37556418  0.89132932  1
  V  V6  1  0.87479790  0.87618017  0.89512981  1
  V  V7  1  0.12552676  0.12420350  0.13623608  1
  V  V8  1  0.37402250  0.12542269  0.39274390  1
  V  V9  1  0.87441532  0.37152656  0.89567558  1
  V  V10  1  0.62418919  0.12574694  0.39449883  1
  V  V11  1  0.88215417  0.62138712  0.90398048  1
  V  V12  1  0.37595667  0.62666166  0.64213530  1
  V  V13  1  0.62686456  0.12405414  0.89310748  1
  V  V14  1  0.62699303  0.37458400  0.89436065  1
  V  V15  1  0.62784449  0.87701933  0.38966078  1
  V  V16  1  0.62646580  0.62378080  0.64233448  1
  V  V17  1  0.12788057  0.87764372  0.89494419  1
  V  V18  1  0.12376940  0.87469950  0.64131371  1
  V  V19  1  0.62488695  0.37523870  0.64190306  1
  V  V20  1  0.37825043  0.37451222  0.89476463  1
  V  V21  1  0.12415486  0.12437730  0.63779342  1
  V  V22  1  0.12392135  0.62644863  0.64106334  1
  V  V23  1  0.87659355  0.12583467  0.13498474  1
  V  V24  1  0.62601534  0.37458797  0.39004869  1
  V  V25  1  0.37662107  0.37446301  0.38880530  1
  V  V26  1  0.37512684  0.12500402  0.89918301  1
  V  V27  1  0.37905772  0.87621245  0.38955708  1
  V  V28  1  0.37844493  0.87399808  0.89402279  1
  V  V29  1  0.87714718  0.86932307  0.64394939  1
  V  V30  1  0.87187255  0.37242488  0.38918644  1
  V  V31  1  0.12641081  0.87557480  0.38836821  1
  Fe  Fe32  1  0.87790281  0.87679816  0.13120251  1
  Fe  Fe33  1  0.12538841  0.62574982  0.12425466  1
  Fe  Fe34  1  0.62521719  0.87073186  0.63556639  1
  Fe  Fe35  1  0.37702071  0.62608848  0.38183437  1
  Fe  Fe36  1  0.87682937  0.37409617  0.12911333  1
  Fe  Fe37  1  0.62549135  0.12547322  0.12698284  1
  Fe  Fe38  1  0.37208526  0.87303046  0.63610700  1
  Fe  Fe39  1  0.87773990  0.12533374  0.88449732  1
  Fe  Fe40  1  0.37369557  0.12591870  0.12547548  1
  Fe  Fe41  1  0.12451993  0.37334315  0.13755904  1
  Fe  Fe42  1  0.87378831  0.12370700  0.38728798  1
  Fe  Fe43  1  0.62603868  0.12313205  0.63418060  1
  Fe  Fe44  1  0.87620670  0.38034006  0.63630696  1
  Fe  Fe45  1  0.12347504  0.37551490  0.38347525  1
  Fe  Fe46  1  0.62336161  0.62459095  0.38142268  1
  Fe  Fe47  1  0.62475958  0.87758723  0.12508404  1
  Fe  Fe48  1  0.12665882  0.62618461  0.38292405  1
  Fe  Fe49  1  0.87433875  0.12343217  0.64119417  1
  Fe  Fe50  1  0.87600208  0.62450401  0.12355229  1
  Fe  Fe51  1  0.62426925  0.37242911  0.12899715  1
  Fe  Fe52  1  0.37482711  0.37708040  0.63609118  1
  Fe  Fe53  1  0.37322592  0.87532186  0.12970709  1
  Fe  Fe54  1  0.62378976  0.62476603  0.13195727  1
  Fe  Fe55  1  0.12864052  0.62583759  0.89991048  1
  Fe  Fe56  1  0.12464926  0.87662059  0.13228290  1
  Fe  Fe57  1  0.87438698  0.62707754  0.63894528  1
  Fe  Fe58  1  0.37341039  0.37391021  0.13063266  1
  Fe  Fe59  1  0.12620286  0.37728734  0.63342014  1
  Fe  Fe60  1  0.37614352  0.62401860  0.88762233  1
  Fe  Fe61  1  0.37589036  0.12355785  0.63427515  1
  Fe  Fe62  1  0.62560159  0.87459983  0.89586735  1
  Fe  Fe63  1  0.12463591  0.12446943  0.38678782  1
  Pb  Pb64  1  0.00117054  -0.00582869  0.00357470  1
  Pb  Pb65  1  -0.00075756  0.01005432  0.25141112  1
  Pb  Pb66  1  -0.00582224  0.00766850  0.50091566  1
  Pb  Pb67  1  -0.00493564  0.00346307  0.75395925  1
  Pb  Pb68  1  0.00206170  0.25657173  0.00387010  1
  Pb  Pb69  1  0.00612483  0.25113199  0.25195481  1
  Pb  Pb70  1  0.00307852  0.25403637  0.49795267  1
  Pb  Pb71  1  -0.00522438  0.25052301  0.74625417  1
  Pb  Pb72  1  0.00457557  0.48781454  0.00966240  1
  Pb  Pb73  1  0.00467577  0.50190718  0.23727484  1
  Pb  Pb74  1  -0.00289374  0.49780377  0.49871238  1
  Pb  Pb75  1  0.00141750  0.49906438  0.75061521  1
  Pb  Pb76  1  0.00348567  0.75879679  0.00783102  1
  Pb  Pb77  1  0.00335842  0.74646955  0.23455012  1
  Pb  Pb78  1  -0.00677427  0.74495271  0.49774859  1
  Pb  Pb79  1  0.00911590  0.74203304  0.76005439  1
  Pb  Pb80  1  0.25576994  -0.00330539  0.00532492  1
  Pb  Pb81  1  0.25261328  -0.00081008  0.24275739  1
  Pb  Pb82  1  0.25930526  -0.00207753  0.50349953  1
  Pb  Pb83  1  0.25349169  -0.00260002  0.74886917  1
  Pb  Pb84  1  0.25470227  0.25454086  0.00587721  1
  Pb  Pb85  1  0.24589804  0.25262606  0.24688666  1
  Pb  Pb86  1  0.24657967  0.25713869  0.49976680  1
  Pb  Pb87  1  0.25269718  0.25414711  0.74498706  1
  Pb  Pb88  1  0.24910884  0.49863023  0.00242716  1
  Pb  Pb89  1  0.24168442  0.50064680  0.24459234  1
  Pb  Pb90  1  0.24470018  0.49858631  0.49385905  1
  Pb  Pb91  1  0.25047282  0.50763956  0.75355291  1
  Pb  Pb92  1  0.24892347  0.74899446  0.00237341  1
  Pb  Pb93  1  0.24766878  0.74152311  0.24381515  1
  Pb  Pb94  1  0.25415004  0.75133940  0.49657690  1
  Pb  Pb95  1  0.24925479  0.73957304  0.75821571  1
  Pb  Pb96  1  0.49992566  -0.00019744  0.00373125  1
  Pb  Pb97  1  0.50120257  0.00150841  0.23444125  1
  Pb  Pb98  1  0.49949834  0.00360371  0.50473703  1
  Pb  Pb99  1  0.50357554  -0.00465673  0.74512117  1
  Pb  Pb100  1  0.50227831  0.24958136  0.00512138  1
  Pb  Pb101  1  0.49844392  0.24861367  0.23568650  1
  Pb  Pb102  1  0.49210165  0.25065148  0.50542432  1
  Pb  Pb103  1  0.49849656  0.24563777  0.74748401  1
  Pb  Pb104  1  0.50808097  0.49890620  0.00656109  1
  Pb  Pb105  1  0.50128880  0.50600823  0.24416821  1
  Pb  Pb106  1  0.49685593  0.50024930  0.49690081  1
  Pb  Pb107  1  0.49503216  0.50676790  0.75430891  1
  Pb  Pb108  1  0.50752726  0.74703792  0.00623125  1
  Pb  Pb109  1  0.50183548  0.74619895  0.24279115  1
  Pb  Pb110  1  0.50382130  0.75558669  0.49927793  1
  Pb  Pb111  1  0.50267629  0.75733722  0.75286990  1
  Pb  Pb112  1  0.74720458  -0.00212080  0.00134482  1
  Pb  Pb113  1  0.75181910  0.00205077  0.24155678  1
  Pb  Pb114  1  0.74795713  0.00849093  0.50689856  1
  Pb  Pb115  1  0.74346797  -0.00290339  0.74981317  1
  Pb  Pb116  1  0.74308031  0.24958989  0.00217520  1
  Pb  Pb117  1  0.75210676  0.24897908  0.24186322  1
  Pb  Pb118  1  0.75100172  0.24287640  0.50533527  1
  Pb  Pb119  1  0.75700338  0.24411849  0.74896283  1
  Pb  Pb120  1  0.75004142  0.50515901  0.00615368  1
  Pb  Pb121  1  0.74811605  0.50240467  0.23449394  1
  Pb  Pb122  1  0.76048942  0.50141735  0.50258753  1
  Pb  Pb123  1  0.75399606  0.50153032  0.75451844  1
  Pb  Pb124  1  0.75824220  0.74921684  0.00645611  1
  Pb  Pb125  1  0.74713592  0.74922851  0.23343614  1
  Pb  Pb126  1  0.74476227  0.75407977  0.49861056  1
  Pb  Pb127  1  0.74455776  0.75620896  0.75888820  1
  O  O128  1  0.12311696  0.00809671  0.16162232  1
  O  O129  1  0.12228552  -0.00985697  0.41595485  1
  O  O130  1  0.12285392  0.00006588  0.66654820  1
  O  O131  1  0.12416785  -0.00034148  0.91413673  1
  O  O132  1  0.12088221  0.24179244  0.16287061  1
  O  O133  1  0.12309052  0.25101891  0.41657317  1
  O  O134  1  0.12314089  0.24151435  0.65920296  1
  O  O135  1  0.12456279  0.24822428  0.91300113  1
  O  O136  1  0.12771141  0.50160449  0.15657288  1
  O  O137  1  0.12585519  0.50091713  0.41254243  1
  O  O138  1  0.12665339  0.50965983  0.66240536  1
  O  O139  1  0.12542469  0.49145851  0.91249867  1
  O  O140  1  0.12682532  0.74979820  0.15521665  1
  O  O141  1  0.12299771  0.75811468  0.41562459  1
  O  O142  1  0.12480624  0.74738663  0.67033224  1
  O  O143  1  0.12432254  0.76009053  0.91609181  1
  O  O144  1  0.37087120  0.00351215  0.16050816  1
  O  O145  1  0.37437393  -0.00379975  0.41631773  1
  O  O146  1  0.37268301  -0.00087274  0.66811741  1
  O  O147  1  0.37134518  -0.00228833  0.91630637  1
  O  O148  1  0.37218996  0.24706590  0.16017337  1
  O  O149  1  0.37977302  0.25262986  0.41549919  1
  O  O150  1  0.37552612  0.24979777  0.66632502  1
  O  O151  1  0.37057154  0.25323192  0.91721510  1
  O  O152  1  0.37377346  0.50624079  0.15712914  1
  O  O153  1  0.37853367  0.49247926  0.40981489  1
  O  O154  1  0.37511941  0.50484225  0.66828228  1
  O  O155  1  0.37273009  0.49094391  0.91337515  1
  O  O156  1  0.37499020  0.74437439  0.15635527  1
  O  O157  1  0.37554551  0.75939182  0.41160653  1
  O  O158  1  0.37357229  0.74548261  0.66692571  1
  O  O159  1  0.37338391  0.75719970  0.91238669  1
  O  O160  1  0.62795774  0.00252270  0.15814910  1
  O  O161  1  0.62582199  -0.00114031  0.41667741  1
  O  O162  1  0.62820539  -0.00399711  0.66314598  1
  O  O163  1  0.62402634  0.00657791  0.91121463  1
  O  O164  1  0.62719537  0.24743967  0.16198134  1
  O  O165  1  0.62620862  0.25486751  0.41888209  1
  O  O166  1  0.62597758  0.25849481  0.66244820  1
  O  O167  1  0.62449958  0.24819738  0.91510049  1
  O  O168  1  0.62341567  0.49817947  0.15715899  1
  O  O169  1  0.62496185  0.49181356  0.41225405  1
  O  O170  1  0.62394844  0.50452802  0.66973653  1
  O  O171  1  0.62208820  0.49902799  0.91765243  1
  O  O172  1  0.62265471  0.75199078  0.15346139  1
  O  O173  1  0.62394389  0.75404883  0.41400316  1
  O  O174  1  0.62490444  0.74192188  0.66889153  1
  O  O175  1  0.62285161  0.74408466  0.91621120  1
  O  O176  1  0.87716097  0.00803894  0.16115972  1
  O  O177  1  0.87329115  -0.00981004  0.41300989  1
  O  O178  1  0.87693018  -0.01188179  0.66812259  1
  O  O179  1  0.87672261  -0.00357645  0.91241845  1
  O  O180  1  0.87861131  0.24233639  0.15988785  1
  O  O181  1  0.87194879  0.25665184  0.41185049  1
  O  O182  1  0.87485229  0.25323778  0.66349094  1
  O  O183  1  0.87693525  0.25096232  0.91335709  1
  O  O184  1  0.87487585  0.50014004  0.15496371  1
  O  O185  1  0.87074135  0.50225083  0.41085841  1
  O  O186  1  0.87482686  0.50426076  0.67418461  1
  O  O187  1  0.87484083  0.50195115  0.91717147  1
  O  O188  1  0.87610899  0.74961225  0.15495632  1
  O  O189  1  0.87461833  0.75035570  0.41209898  1
  O  O190  1  0.87788120  0.75280695  0.67232470  1
  O  O191  1  0.87471779  0.75281428  0.91879303  1
  O  O192  1  -0.00053768  0.12408326  0.16117668  1
  O  O193  1  -0.00166228  0.12264187  0.41954388  1
  O  O194  1  0.00542442  0.12066810  0.66567186  1
  O  O195  1  0.00804827  0.12334784  0.91366223  1
  O  O196  1  -0.00094614  0.37261190  0.16496762  1
  O  O197  1  -0.01023540  0.37864186  0.40903662  1
  O  O198  1  0.00313283  0.37968838  0.66718030  1
  O  O199  1  0.00497435  0.37336714  0.91444259  1
  O  O200  1  0.00021404  0.62447561  0.14978715  1
  O  O201  1  -0.00816919  0.62600234  0.41215098  1
  O  O202  1  0.00616077  0.62767318  0.66733412  1
  O  O203  1  -0.00353960  0.62707920  0.91305269  1
  O  O204  1  0.00122301  0.87885635  0.16448362  1
  O  O205  1  -0.00487300  0.87249126  0.41082780  1
  O  O206  1  -0.00022250  0.87125929  0.67200192  1
  O  O207  1  -0.00028374  0.87606226  0.91508630  1
  O  O208  1  0.24230662  0.12641486  0.15618950  1
  O  O209  1  0.25364807  0.12391585  0.41505717  1
  O  O210  1  0.24176250  0.12208674  0.66223603  1
  O  O211  1  0.24156913  0.12405558  0.91647630  1
  O  O212  1  0.24984917  0.37198507  0.16403301  1
  O  O213  1  0.25876841  0.37208751  0.40867463  1
  O  O214  1  0.24882684  0.37626376  0.66737190  1
  O  O215  1  0.24570381  0.37128170  0.91362317  1
  O  O216  1  0.25539562  0.62584198  0.15519052  1
  O  O217  1  0.25269520  0.62864293  0.41571385  1
  O  O218  1  0.24639838  0.62755309  0.66605376  1
  O  O219  1  0.25512929  0.62484639  0.91896807  1
  O  O220  1  0.24873620  0.87794573  0.16365599  1
  O  O221  1  0.24848243  0.87559995  0.41112345  1
  O  O222  1  0.24319605  0.87368844  0.66885397  1
  O  O223  1  0.24739577  0.87794119  0.91375728  1
  O  O224  1  0.49938471  0.12471557  0.15200739  1
  O  O225  1  0.49970443  0.12318641  0.41996390  1
  O  O226  1  0.50231015  0.12554214  0.66600424  1
  O  O227  1  0.50100342  0.12703709  0.91492643  1
  O  O228  1  0.49830151  0.37356470  0.15982006  1
  O  O229  1  0.50310355  0.37305542  0.41478972  1
  O  O230  1  0.50713125  0.37959472  0.66854819  1
  O  O231  1  0.49586031  0.37059537  0.91232417  1
  O  O232  1  0.49392659  0.62500138  0.15889962  1
  O  O233  1  0.50067428  0.62459387  0.41662470  1
  O  O234  1  0.50395775  0.62429833  0.66717127  1
  O  O235  1  0.50229754  0.62264876  0.91680654  1
  O  O236  1  0.49879194  0.87792121  0.15734901  1
  O  O237  1  0.49719647  0.87778793  0.41171418  1
  O  O238  1  0.49913121  0.87072669  0.66576218  1
  O  O239  1  0.49389759  0.87875609  0.91090120  1
  O  O240  1  0.75765191  0.12551292  0.15626820  1
  O  O241  1  0.74775883  0.12528264  0.41903664  1
  O  O242  1  0.74894100  0.12465096  0.66918872  1
  O  O243  1  0.74635949  0.12601779  0.91056808  1
  O  O244  1  0.75183106  0.37024665  0.15779147  1
  O  O245  1  0.74871117  0.37595412  0.41534704  1
  O  O246  1  0.74215861  0.38167193  0.66847120  1
  O  O247  1  0.75005689  0.37565692  0.91585627  1
  O  O248  1  0.75060795  0.62537970  0.15373983  1
  O  O249  1  0.75421638  0.62676300  0.41061270  1
  O  O250  1  0.74345327  0.62475298  0.66770626  1
  O  O251  1  0.74275204  0.62238931  0.91786722  1
  O  O252  1  0.75154099  0.87869824  0.15683882  1
  O  O253  1  0.75478975  0.87096627  0.41284393  1
  O  O254  1  0.75731652  0.86878242  0.66631782  1
  O  O255  1  0.75626292  0.87523370  0.91496256  1
  O  O256  1  0.12088509  0.12502315  0.04512921  1
  O  O257  1  0.11819555  0.12486289  0.28773081  1
  O  O258  1  0.12100416  0.12023421  0.54684172  1
  O  O259  1  0.12564221  0.12635091  0.79974989  1
  O  O260  1  0.11800818  0.37097461  0.03537527  1
  O  O261  1  0.12560085  0.37067620  0.28306552  1
  O  O262  1  0.12786511  0.37465024  0.53325854  1
  O  O263  1  0.12579673  0.37307926  0.80034523  1
  O  O264  1  0.12996563  0.62624999  0.02245562  1
  O  O265  1  0.13020074  0.62842129  0.28377657  1
  O  O266  1  0.12312028  0.63091733  0.55041796  1
  O  O267  1  0.12951344  0.63142351  0.79743943  1
  O  O268  1  0.11909718  0.87996064  0.03104054  1
  O  O269  1  0.12585534  0.87592229  0.29801343  1
  O  O270  1  0.12168238  0.87333227  0.55072541  1
  O  O271  1  0.12477202  0.87644412  0.80374725  1
  O  O272  1  0.36787326  0.12442136  0.02364007  1
  O  O273  1  0.37704722  0.12464148  0.30218724  1
  O  O274  1  0.37783431  0.11970725  0.53419090  1
  O  O275  1  0.37142719  0.12695722  0.80793680  1
  O  O276  1  0.36788156  0.37114628  0.03005367  1
  O  O277  1  0.38046876  0.37115155  0.29861559  1
  O  O278  1  0.38053347  0.37370450  0.53670937  1
  O  O279  1  0.37367993  0.37168366  0.80346607  1
  O  O280  1  0.37661801  0.62444344  0.04217906  1
  O  O281  1  0.37822181  0.62877380  0.28293473  1
  O  O282  1  0.37571644  0.62519110  0.55098380  1
  O  O283  1  0.37205041  0.62088905  0.78726569  1
  O  O284  1  0.37106187  0.88039076  0.02936333  1
  O  O285  1  0.37680968  0.87897459  0.29934128  1
  O  O286  1  0.36950425  0.87760574  0.53620234  1
  O  O287  1  0.37218898  0.87762323  0.80255412  1
  O  O288  1  0.62918202  0.12863350  0.02669676  1
  O  O289  1  0.62461058  0.12662216  0.30382475  1
  O  O290  1  0.63269787  0.12373801  0.53389408  1
  O  O291  1  0.62419665  0.12810769  0.80168347  1
  O  O292  1  0.61930006  0.36754215  0.02752691  1
  O  O293  1  0.62623712  0.37087287  0.30001328  1
  O  O294  1  0.62492075  0.37946447  0.55119547  1
  O  O295  1  0.62506915  0.37501119  0.80337918  1
  O  O296  1  0.61629572  0.62095991  0.03051668  1
  O  O297  1  0.61864706  0.62504688  0.28205622  1
  O  O298  1  0.62541440  0.62364840  0.55161935  1
  O  O299  1  0.62433426  0.62362038  0.80546838  1
  O  O300  1  0.62165458  0.88173279  0.02207503  1
  O  O301  1  0.62646084  0.87727471  0.29913773  1
  O  O302  1  0.62633913  0.86364539  0.53564314  1
  O  O303  1  0.62827600  0.86769858  0.79453015  1
  O  O304  1  0.87868757  0.12450457  0.04377204  1
  O  O305  1  0.87475899  0.11911737  0.28846374  1
  O  O306  1  0.86954245  0.11576756  0.54065634  1
  O  O307  1  0.88101456  0.12577175  0.78451504  1
  O  O308  1  0.88746586  0.37312232  0.02806535  1
  O  O309  1  0.86745251  0.37352552  0.29895883  1
  O  O310  1  0.87312455  0.38835541  0.53645036  1
  O  O311  1  0.87679210  0.37825672  0.80413731  1
  O  O312  1  0.86661272  0.62539055  0.02007250  1
  O  O313  1  0.87395601  0.62564629  0.29707773  1
  O  O314  1  0.87618253  0.62289661  0.53968636  1
  O  O315  1  0.87004332  0.62668322  0.81252645  1
  O  O316  1  0.88175088  0.87898482  0.03035918  1
  O  O317  1  0.87362389  0.87548622  0.29622262  1
  O  O318  1  0.87965797  0.86738296  0.55313318  1
  O  O319  1  0.87629838  0.87167683  0.80401699  1
