# generated using pymatgen
data_VFe(PbO3)2
_symmetry_space_group_name_H-M   'P 1'
_cell_length_a   15.37996121
_cell_length_b   15.38584287
_cell_length_c   18.51453061
_cell_angle_alpha   90.02478461
_cell_angle_beta   90.01361498
_cell_angle_gamma   89.99602226
_symmetry_Int_Tables_number   1
_chemical_formula_structural   VFe(PbO3)2
_chemical_formula_sum   'V32 Fe32 Pb64 O192'
_cell_volume   4381.16071835
_cell_formula_units_Z   32
loop_
 _symmetry_equiv_pos_site_id
 _symmetry_equiv_pos_as_xyz
  1  'x, y, z'
loop_
 _atom_site_type_symbol
 _atom_site_label
 _atom_site_symmetry_multiplicity
 _atom_site_fract_x
 _atom_site_fract_y
 _atom_site_fract_z
 _atom_site_occupancy
  V  V0  1  0.12378361  0.62115634  0.88659822  1
  V  V1  1  0.37481558  0.62805115  0.39364971  1
  V  V2  1  0.12391826  0.12871167  0.88649516  1
  V  V3  1  0.62665657  0.37771942  0.63482962  1
  V  V4  1  0.37532596  0.12474158  0.64085451  1
  V  V5  1  0.37485258  0.87496093  0.64368458  1
  V  V6  1  0.87483356  0.87455453  0.39224241  1
  V  V7  1  0.12510727  0.12335629  0.64001150  1
  V  V8  1  0.62249116  0.87644709  0.39233944  1
  V  V9  1  0.36786211  0.37613984  0.88634607  1
  V  V10  1  0.62318294  0.62541224  0.14184169  1
  V  V11  1  0.87106853  0.37516216  0.89061255  1
  V  V12  1  0.37616646  0.37622773  0.14230463  1
  V  V13  1  0.62560910  0.87584991  0.13417662  1
  V  V14  1  0.62653872  0.12715944  0.38972025  1
  V  V15  1  0.12616029  0.37804210  0.39205052  1
  V  V16  1  0.61564774  0.37965603  0.88794109  1
  V  V17  1  0.12404448  0.12574283  0.38941792  1
  V  V18  1  0.12220852  0.37627838  0.89007698  1
  V  V19  1  0.37667394  0.87421639  0.13505155  1
  V  V20  1  0.12518154  0.87630039  0.38820557  1
  V  V21  1  0.87370674  0.62389201  0.63614767  1
  V  V22  1  0.62637564  0.37360302  0.14244501  1
  V  V23  1  0.12272214  0.62768794  0.39302188  1
  V  V24  1  0.13361967  0.12458103  0.13825845  1
  V  V25  1  0.87507294  0.12438486  0.13854524  1
  V  V26  1  0.62549792  0.12537573  0.64447958  1
  V  V27  1  0.62375917  0.38034596  0.38696415  1
  V  V28  1  0.87343930  0.87501804  0.64509765  1
  V  V29  1  0.87245875  0.87297158  0.13454795  1
  V  V30  1  0.62700546  0.62114785  0.88513462  1
  V  V31  1  0.87567333  0.12363497  0.64095965  1
  Fe  Fe32  1  0.62634310  0.13088013  0.88528785  1
  Fe  Fe33  1  0.87622037  0.62784806  0.38623924  1
  Fe  Fe34  1  0.37873132  0.12557165  0.13251206  1
  Fe  Fe35  1  0.37515131  0.37072650  0.62681179  1
  Fe  Fe36  1  0.87508446  0.11893524  0.38912223  1
  Fe  Fe37  1  0.37534497  0.62404147  0.63924029  1
  Fe  Fe38  1  0.62486901  0.87505334  0.87613218  1
  Fe  Fe39  1  0.62582354  0.62643838  0.63078199  1
  Fe  Fe40  1  0.12554195  0.87368917  0.87832925  1
  Fe  Fe41  1  0.87584780  0.37514648  0.14186276  1
  Fe  Fe42  1  0.87836424  0.12821825  0.88352613  1
  Fe  Fe43  1  0.37522857  0.37327887  0.39872735  1
  Fe  Fe44  1  0.87488712  0.87338139  0.88213422  1
  Fe  Fe45  1  0.12353722  0.87667773  0.64838320  1
  Fe  Fe46  1  0.62503386  0.87668364  0.64812817  1
  Fe  Fe47  1  0.62574240  0.62857059  0.39282962  1
  Fe  Fe48  1  0.87398829  0.37183069  0.38605636  1
  Fe  Fe49  1  0.37336532  0.87555208  0.38773730  1
  Fe  Fe50  1  0.12684577  0.37323747  0.13741513  1
  Fe  Fe51  1  0.87657290  0.62106445  0.88925016  1
  Fe  Fe52  1  0.37508217  0.87252035  0.87893024  1
  Fe  Fe53  1  0.87185032  0.37224255  0.63055498  1
  Fe  Fe54  1  0.37296983  0.12961707  0.88715982  1
  Fe  Fe55  1  0.37477969  0.11940387  0.38957628  1
  Fe  Fe56  1  0.12449381  0.87907306  0.13275036  1
  Fe  Fe57  1  0.87397404  0.62598176  0.13374531  1
  Fe  Fe58  1  0.12878196  0.62747068  0.13441355  1
  Fe  Fe59  1  0.37382847  0.61927806  0.88006294  1
  Fe  Fe60  1  0.37715678  0.62575312  0.13506526  1
  Fe  Fe61  1  0.12338681  0.62651801  0.63143974  1
  Fe  Fe62  1  0.62572785  0.12476680  0.13360354  1
  Fe  Fe63  1  0.12085192  0.37315565  0.62934675  1
  Pb  Pb64  1  0.00304242  -0.00711904  -0.00712735  1
  Pb  Pb65  1  -0.00440909  0.00520992  0.24851990  1
  Pb  Pb66  1  0.00743993  -0.00686866  0.50541826  1
  Pb  Pb67  1  -0.00521515  -0.00284077  0.75663481  1
  Pb  Pb68  1  0.00059815  0.26203765  0.00569954  1
  Pb  Pb69  1  -0.00348835  0.25430001  0.25175534  1
  Pb  Pb70  1  -0.00203692  0.25493970  0.50032947  1
  Pb  Pb71  1  -0.00590716  0.24922248  0.74641043  1
  Pb  Pb72  1  -0.00201136  0.49774363  0.00747299  1
  Pb  Pb73  1  -0.00191497  0.50377310  0.24428143  1
  Pb  Pb74  1  -0.00105269  0.49272279  0.49844295  1
  Pb  Pb75  1  -0.00057916  0.49978885  0.74229165  1
  Pb  Pb76  1  0.00696754  0.75008045  -0.00395831  1
  Pb  Pb77  1  -0.00055190  0.74630983  0.24303111  1
  Pb  Pb78  1  0.01071053  0.75340359  0.50567872  1
  Pb  Pb79  1  -0.00265602  0.75338705  0.75261653  1
  Pb  Pb80  1  0.25215269  -0.00531747  -0.00904209  1
  Pb  Pb81  1  0.26326982  -0.00071435  0.25152015  1
  Pb  Pb82  1  0.24813808  -0.00728444  0.50230633  1
  Pb  Pb83  1  0.25750801  -0.00236984  0.75695798  1
  Pb  Pb84  1  0.24668607  0.25257422  0.00190252  1
  Pb  Pb85  1  0.26845539  0.25372015  0.26094558  1
  Pb  Pb86  1  0.24946611  0.25344358  0.50147982  1
  Pb  Pb87  1  0.25376983  0.24997377  0.74553811  1
  Pb  Pb88  1  0.24437378  0.50957558  0.00465549  1
  Pb  Pb89  1  0.24930631  0.50163883  0.24851222  1
  Pb  Pb90  1  0.25075334  0.50945398  0.50735624  1
  Pb  Pb91  1  0.24940962  0.49926692  0.73553589  1
  Pb  Pb92  1  0.24751791  0.74670864  -0.00637223  1
  Pb  Pb93  1  0.25077219  0.75380727  0.24435577  1
  Pb  Pb94  1  0.24652337  0.74638351  0.50631977  1
  Pb  Pb95  1  0.24700218  0.75026380  0.74714424  1
  Pb  Pb96  1  0.50003382  0.00299056  -0.01307462  1
  Pb  Pb97  1  0.49505659  0.00095630  0.24649590  1
  Pb  Pb98  1  0.50324751  -0.00741909  0.50496974  1
  Pb  Pb99  1  0.49910053  -0.00273602  0.75813411  1
  Pb  Pb100  1  0.49968903  0.23609346  0.00512358  1
  Pb  Pb101  1  0.49638025  0.24749791  0.25247996  1
  Pb  Pb102  1  0.49531075  0.25054983  0.50034810  1
  Pb  Pb103  1  0.50128525  0.24267123  0.75207605  1
  Pb  Pb104  1  0.49306312  0.50399334  0.00185883  1
  Pb  Pb105  1  0.50377469  0.50144766  0.25438006  1
  Pb  Pb106  1  0.49140383  0.50931279  0.50649829  1
  Pb  Pb107  1  0.49248542  0.50417594  0.74260987  1
  Pb  Pb108  1  0.49369281  0.74838998  -0.01134333  1
  Pb  Pb109  1  0.50541048  0.75018175  0.25160375  1
  Pb  Pb110  1  0.50068931  0.74455111  0.50808078  1
  Pb  Pb111  1  0.50162447  0.75043104  0.74727014  1
  Pb  Pb112  1  0.74647032  0.00192830  -0.01391523  1
  Pb  Pb113  1  0.75215803  0.00328624  0.24802282  1
  Pb  Pb114  1  0.74366987  -0.00894629  0.50775613  1
  Pb  Pb115  1  0.75061366  0.00345843  0.75810412  1
  Pb  Pb116  1  0.74821324  0.24646751  0.00035408  1
  Pb  Pb117  1  0.75993400  0.24958743  0.25444469  1
  Pb  Pb118  1  0.75591197  0.25129732  0.49917064  1
  Pb  Pb119  1  0.74816962  0.24413243  0.75246341  1
  Pb  Pb120  1  0.76137539  0.49782161  0.00758003  1
  Pb  Pb121  1  0.75995390  0.50562608  0.25368604  1
  Pb  Pb122  1  0.75607861  0.50203614  0.49414454  1
  Pb  Pb123  1  0.75708473  0.50688149  0.74949602  1
  Pb  Pb124  1  0.75698140  0.74648334  -0.00695591  1
  Pb  Pb125  1  0.74740406  0.73914215  0.25567910  1
  Pb  Pb126  1  0.74325156  0.74931146  0.50448262  1
  Pb  Pb127  1  0.75155020  0.75312270  0.75169957  1
  O  O128  1  0.12102114  0.00761360  0.16480971  1
  O  O129  1  0.12315580  -0.00025583  0.41653200  1
  O  O130  1  0.12317442  0.00944715  0.66935505  1
  O  O131  1  0.12602735  0.00931413  0.90423451  1
  O  O132  1  0.12256557  0.23813525  0.16552514  1
  O  O133  1  0.12439003  0.24551034  0.41137160  1
  O  O134  1  0.12069367  0.24098131  0.66290083  1
  O  O135  1  0.12544382  0.25225136  0.91680395  1
  O  O136  1  0.12924641  0.49949425  0.16571911  1
  O  O137  1  0.12546323  0.49690146  0.41115786  1
  O  O138  1  0.11918718  0.50034789  0.65745773  1
  O  O139  1  0.12537698  0.49884129  0.91597654  1
  O  O140  1  0.12605918  0.75601665  0.16572423  1
  O  O141  1  0.12432829  0.75289956  0.41737791  1
  O  O142  1  0.12201948  0.74932596  0.66575331  1
  O  O143  1  0.12617763  0.74076227  0.90469011  1
  O  O144  1  0.37823141  -0.00463718  0.16009577  1
  O  O145  1  0.37421464  -0.00230329  0.42325847  1
  O  O146  1  0.37437084  0.00423972  0.66805046  1
  O  O147  1  0.37453020  0.00188736  0.90789390  1
  O  O148  1  0.37839346  0.25514975  0.16636178  1
  O  O149  1  0.37522859  0.24249063  0.41988338  1
  O  O150  1  0.37608698  0.24607282  0.66206614  1
  O  O151  1  0.37482529  0.26337002  0.91503868  1
  O  O152  1  0.37795425  0.49383441  0.16677535  1
  O  O153  1  0.37455123  0.50653279  0.41603794  1
  O  O154  1  0.37736086  0.49340055  0.65686294  1
  O  O155  1  0.37434587  0.49196282  0.91518031  1
  O  O156  1  0.37794872  0.75745973  0.16011182  1
  O  O157  1  0.37326300  0.74689887  0.41718415  1
  O  O158  1  0.37562457  0.75749479  0.65921859  1
  O  O159  1  0.37644791  0.74385713  0.90681271  1
  O  O160  1  0.62648471  -0.00464640  0.16051976  1
  O  O161  1  0.62750145  -0.00448360  0.41835021  1
  O  O162  1  0.62516549  0.00951445  0.66877754  1
  O  O163  1  0.62581268  0.00236112  0.90281075  1
  O  O164  1  0.62354672  0.25744787  0.16538063  1
  O  O165  1  0.62616922  0.24372104  0.40896245  1
  O  O166  1  0.62733628  0.24743641  0.66414895  1
  O  O167  1  0.62769949  0.26653547  0.91548217  1
  O  O168  1  0.62112047  0.49791378  0.16841409  1
  O  O169  1  0.62533961  0.49546479  0.40719629  1
  O  O170  1  0.62783572  0.49392954  0.65388124  1
  O  O171  1  0.62909321  0.49351192  0.91967225  1
  O  O172  1  0.62342715  0.75287567  0.16714952  1
  O  O173  1  0.62516643  0.76001384  0.41740884  1
  O  O174  1  0.62617732  0.74910699  0.66445010  1
  O  O175  1  0.62351128  0.73690429  0.90139800  1
  O  O176  1  0.87239063  0.00014382  0.16238027  1
  O  O177  1  0.87510299  -0.00903311  0.42019724  1
  O  O178  1  0.87368733  0.00068922  0.66748640  1
  O  O179  1  0.87619655  0.00194279  0.90969509  1
  O  O180  1  0.87254028  0.24287490  0.16280991  1
  O  O181  1  0.87282006  0.24474623  0.41462237  1
  O  O182  1  0.87264596  0.24421026  0.66104441  1
  O  O183  1  0.88015523  0.25855333  0.91391250  1
  O  O184  1  0.87245753  0.50137778  0.16586737  1
  O  O185  1  0.87362366  0.49868223  0.41046012  1
  O  O186  1  0.87267638  0.50467565  0.65596176  1
  O  O187  1  0.87793933  0.49311778  0.91910139  1
  O  O188  1  0.87288520  0.75748026  0.15730889  1
  O  O189  1  0.87632778  0.76029957  0.41906777  1
  O  O190  1  0.87270346  0.75153294  0.66170709  1
  O  O191  1  0.87537465  0.74645748  0.91352412  1
  O  O192  1  -0.00686340  0.12278137  0.16363094  1
  O  O193  1  0.00680502  0.12077025  0.41488214  1
  O  O194  1  -0.00009170  0.12327179  0.66450597  1
  O  O195  1  0.00812232  0.13056252  0.91285894  1
  O  O196  1  0.00245565  0.37114619  0.16903816  1
  O  O197  1  0.00572811  0.37159030  0.41070395  1
  O  O198  1  -0.00492597  0.37198122  0.66281747  1
  O  O199  1  -0.00018777  0.37663099  0.91669360  1
  O  O200  1  0.00062479  0.62801063  0.16144589  1
  O  O201  1  0.00290529  0.62673138  0.41466413  1
  O  O202  1  -0.00993261  0.62768522  0.66005995  1
  O  O203  1  0.00763368  0.61961366  0.91238444  1
  O  O204  1  -0.01001327  0.87926492  0.16119722  1
  O  O205  1  -0.00105436  0.87594403  0.41644073  1
  O  O206  1  -0.00880661  0.87758757  0.66801097  1
  O  O207  1  0.00272169  0.87379232  0.91115539  1
  O  O208  1  0.24865824  0.12250903  0.15620306  1
  O  O209  1  0.24019159  0.12145407  0.41732361  1
  O  O210  1  0.24588413  0.12626365  0.66148711  1
  O  O211  1  0.24209983  0.13215042  0.91423713  1
  O  O212  1  0.25777355  0.37201758  0.16481213  1
  O  O213  1  0.24268996  0.37183916  0.41735077  1
  O  O214  1  0.24826694  0.37009680  0.65271964  1
  O  O215  1  0.25108555  0.37584003  0.91149160  1
  O  O216  1  0.25512804  0.62679905  0.16858320  1
  O  O217  1  0.25146702  0.62614111  0.41838040  1
  O  O218  1  0.24909493  0.62528110  0.66078171  1
  O  O219  1  0.24459572  0.61852283  0.90937768  1
  O  O220  1  0.25769541  0.87853075  0.15692967  1
  O  O221  1  0.24482189  0.87500038  0.41664390  1
  O  O222  1  0.25574403  0.88065995  0.66480444  1
  O  O223  1  0.24875840  0.87463649  0.90850241  1
  O  O224  1  0.50221793  0.12610635  0.16438289  1
  O  O225  1  0.51045149  0.11808553  0.41495067  1
  O  O226  1  0.50296056  0.12702069  0.66506422  1
  O  O227  1  0.50034353  0.13433426  0.91091545  1
  O  O228  1  0.49972285  0.37578591  0.16962262  1
  O  O229  1  0.50991080  0.37006334  0.41485005  1
  O  O230  1  0.50993612  0.36866929  0.65832174  1
  O  O231  1  0.50013270  0.38143346  0.90449756  1
  O  O232  1  0.50152425  0.62601094  0.17018043  1
  O  O233  1  0.49452806  0.62800541  0.41568162  1
  O  O234  1  0.50256466  0.62387298  0.66236423  1
  O  O235  1  0.50838987  0.61295187  0.90951584  1
  O  O236  1  0.49944355  0.87559491  0.16143154  1
  O  O237  1  0.50548679  0.87691423  0.41451514  1
  O  O238  1  0.49292900  0.88189945  0.66529669  1
  O  O239  1  0.50177548  0.87198407  0.90889203  1
  O  O240  1  0.75443005  0.12338730  0.16319833  1
  O  O241  1  0.74231569  0.11817600  0.41834624  1
  O  O242  1  0.74823497  0.12451746  0.66575360  1
  O  O243  1  0.75262045  0.13400269  0.91339818  1
  O  O244  1  0.74210218  0.37635587  0.16395487  1
  O  O245  1  0.74037997  0.36978493  0.41284193  1
  O  O246  1  0.74444181  0.37078061  0.66198970  1
  O  O247  1  0.75583605  0.37703369  0.91128986  1
  O  O248  1  0.74441239  0.62688619  0.16604632  1
  O  O249  1  0.75160696  0.63038537  0.41748018  1
  O  O250  1  0.75550598  0.62607630  0.66184027  1
  O  O251  1  0.74233021  0.61684611  0.91461557  1
  O  O252  1  0.75364233  0.87701789  0.16080357  1
  O  O253  1  0.75044366  0.87572342  0.41619647  1
  O  O254  1  0.75685327  0.87885515  0.66766922  1
  O  O255  1  0.74736388  0.87091478  0.90921878  1
  O  O256  1  0.12660873  0.12536260  0.04714272  1
  O  O257  1  0.12577452  0.12258736  0.29871939  1
  O  O258  1  0.12258421  0.12047196  0.54884058  1
  O  O259  1  0.12472160  0.13468799  0.79574763  1
  O  O260  1  0.12429948  0.36894461  0.03724863  1
  O  O261  1  0.12846764  0.37353029  0.30101274  1
  O  O262  1  0.11412980  0.36987780  0.52903033  1
  O  O263  1  0.12203360  0.37518966  0.79924168  1
  O  O264  1  0.13542951  0.62832665  0.03407316  1
  O  O265  1  0.12843430  0.62989932  0.30202230  1
  O  O266  1  0.12933357  0.63029804  0.53023745  1
  O  O267  1  0.12209769  0.61578978  0.79556679  1
  O  O268  1  0.12183189  0.87707104  0.03331864  1
  O  O269  1  0.12443054  0.87740937  0.29737307  1
  O  O270  1  0.11741284  0.87903972  0.54645617  1
  O  O271  1  0.12260261  0.87421194  0.77694048  1
  O  O272  1  0.38010541  0.13231795  0.03250928  1
  O  O273  1  0.37059013  0.12064340  0.28844455  1
  O  O274  1  0.37666014  0.12187892  0.54969967  1
  O  O275  1  0.36999686  0.13599622  0.78640563  1
  O  O276  1  0.37918670  0.37651102  0.05148380  1
  O  O277  1  0.37259620  0.36495786  0.29777748  1
  O  O278  1  0.38059673  0.36973067  0.52523369  1
  O  O279  1  0.36923196  0.37421068  0.79510153  1
  O  O280  1  0.37854468  0.61773295  0.03535922  1
  O  O281  1  0.37352122  0.62837930  0.30263642  1
  O  O282  1  0.37755111  0.62309336  0.53700887  1
  O  O283  1  0.37802314  0.61503310  0.77992545  1
  O  O284  1  0.37973969  0.87360816  0.04400537  1
  O  O285  1  0.37305595  0.88394309  0.28843829  1
  O  O286  1  0.37502351  0.88089128  0.55189805  1
  O  O287  1  0.37419255  0.87940687  0.77873003  1
  O  O288  1  0.62622347  0.13564874  0.03376999  1
  O  O289  1  0.62905945  0.12111897  0.29852516  1
  O  O290  1  0.62595510  0.12452603  0.55319437  1
  O  O291  1  0.62743601  0.13886608  0.78452876  1
  O  O292  1  0.62186212  0.37591732  0.05167435  1
  O  O293  1  0.62289170  0.37597920  0.29576019  1
  O  O294  1  0.62823823  0.37173360  0.54374228  1
  O  O295  1  0.62460021  0.38084843  0.79723053  1
  O  O296  1  0.62162782  0.62485149  0.05094387  1
  O  O297  1  0.62434196  0.63651894  0.29203052  1
  O  O298  1  0.62058291  0.63181640  0.52953146  1
  O  O299  1  0.63044014  0.61134308  0.79399010  1
  O  O300  1  0.62475882  0.87127123  0.04366399  1
  O  O301  1  0.62506522  0.87702225  0.30145359  1
  O  O302  1  0.62701709  0.88337712  0.54634759  1
  O  O303  1  0.62265570  0.87606982  0.77445962  1
  O  O304  1  0.87595910  0.12404862  0.04785465  1
  O  O305  1  0.87059084  0.11657740  0.28929967  1
  O  O306  1  0.87463929  0.11993726  0.54977691  1
  O  O307  1  0.87477712  0.12968762  0.78344117  1
  O  O308  1  0.88010474  0.37828204  0.04126385  1
  O  O309  1  0.87007498  0.36478197  0.28462902  1
  O  O310  1  0.87435612  0.37095589  0.53012385  1
  O  O311  1  0.87393633  0.37833981  0.79909784  1
  O  O312  1  0.86926201  0.61958266  0.03327782  1
  O  O313  1  0.86962529  0.63211758  0.28594667  1
  O  O314  1  0.87255215  0.62721839  0.54514194  1
  O  O315  1  0.86978528  0.61537734  0.78928470  1
  O  O316  1  0.87316794  0.87586531  0.04349939  1
  O  O317  1  0.87409998  0.87498332  0.30146390  1
  O  O318  1  0.87432206  0.87743085  0.55376231  1
  O  O319  1  0.87667054  0.87255800  0.78149963  1
