# generated using pymatgen
data_VFe(PbO3)2
_symmetry_space_group_name_H-M   'P 1'
_cell_length_a   15.38973666
_cell_length_b   15.39056929
_cell_length_c   18.48825800
_cell_angle_alpha   89.99824690
_cell_angle_beta   89.97189494
_cell_angle_gamma   89.99663235
_symmetry_Int_Tables_number   1
_chemical_formula_structural   VFe(PbO3)2
_chemical_formula_sum   'V32 Fe32 Pb64 O192'
_cell_volume   4379.06924725
_cell_formula_units_Z   32
loop_
 _symmetry_equiv_pos_site_id
 _symmetry_equiv_pos_as_xyz
  1  'x, y, z'
loop_
 _atom_site_type_symbol
 _atom_site_label
 _atom_site_symmetry_multiplicity
 _atom_site_fract_x
 _atom_site_fract_y
 _atom_site_fract_z
 _atom_site_occupancy
  V  V0  1  0.12590156  0.87662564  0.88663283  1
  V  V1  1  0.12188958  0.62834505  0.64462793  1
  V  V2  1  0.62795711  0.62299111  0.38822177  1
  V  V3  1  0.37542920  0.87604944  0.63837922  1
  V  V4  1  0.62014389  0.12376922  0.64358856  1
  V  V5  1  0.62741985  0.12696864  0.13727352  1
  V  V6  1  0.12215048  0.37469014  0.39407999  1
  V  V7  1  0.37518618  0.62864572  0.64016050  1
  V  V8  1  0.87880908  0.87518023  0.13657823  1
  V  V9  1  0.86622455  0.12434488  0.65124400  1
  V  V10  1  0.62647048  0.87480891  0.64580728  1
  V  V11  1  0.87607832  0.62115554  0.13374823  1
  V  V12  1  0.86991878  0.62654497  0.64769131  1
  V  V13  1  0.12226270  0.12726193  0.39239423  1
  V  V14  1  0.12290814  0.87615617  0.38943530  1
  V  V15  1  0.11534655  0.12206292  0.65453667  1
  V  V16  1  0.12448400  0.87503733  0.64235542  1
  V  V17  1  0.37430159  0.12565813  0.14272721  1
  V  V18  1  0.12522657  0.12775728  0.13673089  1
  V  V19  1  0.37366062  0.37441634  0.14155412  1
  V  V20  1  0.37360753  0.12336148  0.63806985  1
  V  V21  1  0.37573549  0.38494618  0.88157632  1
  V  V22  1  0.37625691  0.87490675  0.89097348  1
  V  V23  1  0.87495066  0.37472182  0.39347573  1
  V  V24  1  0.62332833  0.62866290  0.63983250  1
  V  V25  1  0.87516412  0.87582824  0.64609289  1
  V  V26  1  0.62153004  0.62562595  0.88828402  1
  V  V27  1  0.37344023  0.87646007  0.38711297  1
  V  V28  1  0.12412964  0.37448995  0.13629542  1
  V  V29  1  0.62559864  0.37560866  0.39141140  1
  V  V30  1  0.37319998  0.62650021  0.14035492  1
  V  V31  1  0.37643412  0.12558235  0.88673215  1
  Fe  Fe32  1  0.37328809  0.37609286  0.39264173  1
  Fe  Fe33  1  0.62282454  0.87419214  0.88260255  1
  Fe  Fe34  1  0.87600251  0.12819303  0.38793579  1
  Fe  Fe35  1  0.87685007  0.62169468  0.38777034  1
  Fe  Fe36  1  0.87491398  0.12150359  0.88126262  1
  Fe  Fe37  1  0.87413526  0.87064820  0.88316782  1
  Fe  Fe38  1  0.87384615  0.37502703  0.65063872  1
  Fe  Fe39  1  0.37669894  0.37615034  0.63240956  1
  Fe  Fe40  1  0.12619831  0.62272058  0.13642182  1
  Fe  Fe41  1  0.61968926  0.37414369  0.88830871  1
  Fe  Fe42  1  0.87566977  0.87669071  0.38393360  1
  Fe  Fe43  1  0.62376542  0.37485553  0.13083315  1
  Fe  Fe44  1  0.87652047  0.37279109  0.12462584  1
  Fe  Fe45  1  0.37278385  0.12790910  0.38726808  1
  Fe  Fe46  1  0.62305542  0.87319209  0.14342697  1
  Fe  Fe47  1  0.87528847  0.62826278  0.88113971  1
  Fe  Fe48  1  0.13115950  0.37409670  0.87478220  1
  Fe  Fe49  1  0.37683514  0.63062851  0.88018942  1
  Fe  Fe50  1  0.62047463  0.12189359  0.88264574  1
  Fe  Fe51  1  0.37215109  0.87637182  0.13639070  1
  Fe  Fe52  1  0.12127175  0.62186809  0.38640394  1
  Fe  Fe53  1  0.62482489  0.62196927  0.13599564  1
  Fe  Fe54  1  0.87480482  0.37698997  0.88182457  1
  Fe  Fe55  1  0.13111567  0.62537764  0.88077882  1
  Fe  Fe56  1  0.87688879  0.12462122  0.12712443  1
  Fe  Fe57  1  0.13064536  0.12288838  0.87488119  1
  Fe  Fe58  1  0.37299263  0.62338320  0.38649765  1
  Fe  Fe59  1  0.62630810  0.87500944  0.37716989  1
  Fe  Fe60  1  0.62606555  0.12737115  0.38309247  1
  Fe  Fe61  1  0.12600409  0.37504807  0.64810776  1
  Fe  Fe62  1  0.12583718  0.87581797  0.13422889  1
  Fe  Fe63  1  0.62546483  0.37609940  0.63934608  1
  Pb  Pb64  1  -0.00297030  0.00643180  -0.00747370  1
  Pb  Pb65  1  -0.01362087  0.00146232  0.25130432  1
  Pb  Pb66  1  -0.00503421  0.00385475  0.50206038  1
  Pb  Pb67  1  -0.01203890  -0.00101055  0.76116079  1
  Pb  Pb68  1  -0.00444008  0.24878258  -0.01645348  1
  Pb  Pb69  1  -0.00776562  0.24615637  0.24514128  1
  Pb  Pb70  1  -0.00001557  0.26022493  0.51416571  1
  Pb  Pb71  1  -0.00442247  0.26103968  0.76092100  1
  Pb  Pb72  1  0.00237863  0.49659883  -0.01654048  1
  Pb  Pb73  1  -0.00197826  0.51089339  0.25193342  1
  Pb  Pb74  1  -0.00046770  0.49127347  0.51075272  1
  Pb  Pb75  1  0.00071861  0.49939716  0.75506745  1
  Pb  Pb76  1  0.00555703  0.74340890  -0.00643756  1
  Pb  Pb77  1  0.00003417  0.74382211  0.24907258  1
  Pb  Pb78  1  -0.00352960  0.74567013  0.49845276  1
  Pb  Pb79  1  -0.00606489  0.74915485  0.75736845  1
  Pb  Pb80  1  0.25118745  -0.00941370  0.00321101  1
  Pb  Pb81  1  0.24997675  0.00219079  0.24885085  1
  Pb  Pb82  1  0.24660491  0.00380827  0.50193708  1
  Pb  Pb83  1  0.24988626  -0.00028129  0.75245987  1
  Pb  Pb84  1  0.24708251  0.24803572  -0.00853019  1
  Pb  Pb85  1  0.25650026  0.25195227  0.25585655  1
  Pb  Pb86  1  0.24744980  0.25832093  0.50645358  1
  Pb  Pb87  1  0.24899865  0.25399665  0.74852304  1
  Pb  Pb88  1  0.24261220  0.51339087  -0.00318078  1
  Pb  Pb89  1  0.25636533  0.49791208  0.25704714  1
  Pb  Pb90  1  0.25143853  0.49707056  0.50263007  1
  Pb  Pb91  1  0.24898893  0.50565014  0.74804553  1
  Pb  Pb92  1  0.24605774  0.75359116  0.00147558  1
  Pb  Pb93  1  0.24221785  0.74505460  0.24720142  1
  Pb  Pb94  1  0.24876858  0.74626282  0.49759188  1
  Pb  Pb95  1  0.25179578  0.74313529  0.75359704  1
  Pb  Pb96  1  0.50328411  -0.01190588  0.00351853  1
  Pb  Pb97  1  0.50667558  0.00427006  0.25186073  1
  Pb  Pb98  1  0.50502230  0.00315854  0.49313771  1
  Pb  Pb99  1  0.50794485  -0.00178805  0.75504633  1
  Pb  Pb100  1  0.50511878  0.25115574  -0.00171247  1
  Pb  Pb101  1  0.49944289  0.24357891  0.25505569  1
  Pb  Pb102  1  0.49500651  0.25273021  0.49919435  1
  Pb  Pb103  1  0.50691516  0.25485447  0.75174968  1
  Pb  Pb104  1  0.51314131  0.50444244  0.00531353  1
  Pb  Pb105  1  0.49106545  0.49704694  0.25287559  1
  Pb  Pb106  1  0.49802706  0.49472706  0.50189806  1
  Pb  Pb107  1  0.50196528  0.49649295  0.74803707  1
  Pb  Pb108  1  0.50750927  0.75114945  0.00627587  1
  Pb  Pb109  1  0.50238314  0.75232882  0.24659484  1
  Pb  Pb110  1  0.50113910  0.74903835  0.49398032  1
  Pb  Pb111  1  0.49961419  0.75280622  0.75319432  1
  Pb  Pb112  1  0.75004321  0.00010675  -0.01065608  1
  Pb  Pb113  1  0.75231075  -0.00562047  0.24993217  1
  Pb  Pb114  1  0.74851652  0.00141555  0.49190094  1
  Pb  Pb115  1  0.74714757  0.00529024  0.76021036  1
  Pb  Pb116  1  0.75503077  0.24931136  -0.01270171  1
  Pb  Pb117  1  0.75275032  0.24624440  0.24136507  1
  Pb  Pb118  1  0.74990779  0.25574802  0.50565776  1
  Pb  Pb119  1  0.74689499  0.25986487  0.76083744  1
  Pb  Pb120  1  0.75345676  0.49114351  -0.00706834  1
  Pb  Pb121  1  0.74946625  0.49446408  0.24046569  1
  Pb  Pb122  1  0.75103654  0.48932850  0.50986822  1
  Pb  Pb123  1  0.74995609  0.49272655  0.75754886  1
  Pb  Pb124  1  0.74312584  0.75283705  -0.00323488  1
  Pb  Pb125  1  0.75484960  0.75303685  0.24653348  1
  Pb  Pb126  1  0.75279695  0.75390831  0.49350303  1
  Pb  Pb127  1  0.75470916  0.75464862  0.75720462  1
  O  O128  1  0.12969515  0.01203679  0.16048574  1
  O  O129  1  0.12552178  -0.00136180  0.41852283  1
  O  O130  1  0.12970285  -0.00245024  0.67048424  1
  O  O131  1  0.13024925  -0.00533358  0.90810112  1
  O  O132  1  0.12983069  0.24812765  0.16659062  1
  O  O133  1  0.12151894  0.25342841  0.42109928  1
  O  O134  1  0.12767849  0.23910945  0.66634556  1
  O  O135  1  0.13445539  0.24804985  0.90302906  1
  O  O136  1  0.12660167  0.48905149  0.15839373  1
  O  O137  1  0.12064299  0.49143454  0.41731940  1
  O  O138  1  0.12646389  0.51016054  0.66241944  1
  O  O139  1  0.13315309  0.49737354  0.90602595  1
  O  O140  1  0.12552088  0.74871266  0.16388130  1
  O  O141  1  0.12500259  0.75879219  0.41200914  1
  O  O142  1  0.12539484  0.75076992  0.66765994  1
  O  O143  1  0.13334900  0.75741191  0.90978805  1
  O  O144  1  0.37303368  0.00944319  0.16405798  1
  O  O145  1  0.37125623  -0.00665081  0.41361952  1
  O  O146  1  0.37932532  0.00001174  0.66550120  1
  O  O147  1  0.37514604  -0.00357519  0.91396105  1
  O  O148  1  0.37183660  0.25158461  0.16673061  1
  O  O149  1  0.37332130  0.25114608  0.41928573  1
  O  O150  1  0.38222280  0.23938699  0.65784485  1
  O  O151  1  0.37565973  0.24142328  0.90742394  1
  O  O152  1  0.37079147  0.49472517  0.16501576  1
  O  O153  1  0.37360861  0.50153349  0.42181941  1
  O  O154  1  0.37710987  0.50811571  0.65818925  1
  O  O155  1  0.37488436  0.49804102  0.89443435  1
  O  O156  1  0.37100923  0.74285018  0.15984179  1
  O  O157  1  0.37221924  0.75593533  0.41389377  1
  O  O158  1  0.37737061  0.75327311  0.66600583  1
  O  O159  1  0.37294984  0.75841794  0.91191574  1
  O  O160  1  0.61948165  0.00943950  0.16087691  1
  O  O161  1  0.62329373  -0.00139980  0.41069120  1
  O  O162  1  0.62535593  0.00094599  0.66671575  1
  O  O163  1  0.61970832  -0.00232835  0.91365760  1
  O  O164  1  0.62036002  0.24582121  0.16179436  1
  O  O165  1  0.62724027  0.25969791  0.41411262  1
  O  O166  1  0.62503221  0.24087758  0.66217535  1
  O  O167  1  0.61626408  0.24726043  0.91098966  1
  O  O168  1  0.62349977  0.49796873  0.16589510  1
  O  O169  1  0.62833260  0.49965212  0.41652906  1
  O  O170  1  0.62755152  0.51201954  0.66382862  1
  O  O171  1  0.61819766  0.50550509  0.91041417  1
  O  O172  1  0.62467518  0.74459104  0.16867940  1
  O  O173  1  0.62426878  0.74443979  0.40854778  1
  O  O174  1  0.62670393  0.74620288  0.66802259  1
  O  O175  1  0.61947705  0.74598769  0.91358122  1
  O  O176  1  0.87693504  -0.00249831  0.15875561  1
  O  O177  1  0.87775253  0.00133838  0.41874327  1
  O  O178  1  0.87500071  0.00029436  0.66928297  1
  O  O179  1  0.87837033  -0.00530666  0.91015107  1
  O  O180  1  0.87684412  0.24845344  0.15977801  1
  O  O181  1  0.87550348  0.25852186  0.41998128  1
  O  O182  1  0.87435164  0.24010816  0.66988391  1
  O  O183  1  0.87525728  0.24880286  0.90111558  1
  O  O184  1  0.87844706  0.50323161  0.15435665  1
  O  O185  1  0.87626844  0.49163503  0.41959557  1
  O  O186  1  0.87484922  0.51014160  0.66777576  1
  O  O187  1  0.87410583  0.50351155  0.90648633  1
  O  O188  1  0.87701471  0.75096953  0.15850315  1
  O  O189  1  0.87671004  0.74979139  0.41561752  1
  O  O190  1  0.87713939  0.74915725  0.66770848  1
  O  O191  1  0.87609042  0.74932700  0.91757684  1
  O  O192  1  0.00832960  0.12837541  0.15740504  1
  O  O193  1  0.00385249  0.12707817  0.42465727  1
  O  O194  1  0.00049625  0.11933185  0.66849167  1
  O  O195  1  0.00565202  0.12181316  0.90099136  1
  O  O196  1  0.00843457  0.36818165  0.15480862  1
  O  O197  1  -0.00174900  0.37344752  0.42112500  1
  O  O198  1  -0.00021296  0.37458210  0.67164528  1
  O  O199  1  0.00438940  0.37487246  0.89779262  1
  O  O200  1  -0.00510081  0.62495498  0.16121738  1
  O  O201  1  0.00054218  0.62299296  0.42398258  1
  O  O202  1  0.00198038  0.62865804  0.66546571  1
  O  O203  1  0.00485698  0.62776176  0.90581383  1
  O  O204  1  -0.00384491  0.87696527  0.16100546  1
  O  O205  1  0.00720183  0.87804451  0.41404560  1
  O  O206  1  0.00224131  0.87621823  0.66842677  1
  O  O207  1  0.00965243  0.87231419  0.90638474  1
  O  O208  1  0.25136924  0.13013556  0.16518308  1
  O  O209  1  0.24324116  0.12579442  0.42134431  1
  O  O210  1  0.26079186  0.12041500  0.66257334  1
  O  O211  1  0.25854044  0.11862657  0.91186994  1
  O  O212  1  0.24972815  0.37146042  0.16804527  1
  O  O213  1  0.24035469  0.37398362  0.41574630  1
  O  O214  1  0.25488536  0.37204072  0.66106508  1
  O  O215  1  0.26314693  0.37025030  0.90914331  1
  O  O216  1  0.25505249  0.61845047  0.16566589  1
  O  O217  1  0.24556299  0.62522421  0.41817587  1
  O  O218  1  0.24898121  0.63141176  0.66039853  1
  O  O219  1  0.25526899  0.62783576  0.91475123  1
  O  O220  1  0.24907582  0.87827554  0.17092209  1
  O  O221  1  0.24802899  0.87653253  0.41548756  1
  O  O222  1  0.25212249  0.87514883  0.66519925  1
  O  O223  1  0.25208545  0.87805222  0.91289252  1
  O  O224  1  0.49461570  0.13016362  0.16379189  1
  O  O225  1  0.49958783  0.12626260  0.41682203  1
  O  O226  1  0.50161995  0.11897755  0.66274607  1
  O  O227  1  0.49030360  0.11882998  0.91602486  1
  O  O228  1  0.49054992  0.37334565  0.16220341  1
  O  O229  1  0.50785409  0.37917478  0.41080358  1
  O  O230  1  0.50055208  0.37635247  0.66454772  1
  O  O231  1  0.48679143  0.37252044  0.91479863  1
  O  O232  1  0.48983835  0.61925280  0.16405285  1
  O  O233  1  0.50763658  0.62323188  0.41517968  1
  O  O234  1  0.50553183  0.62987005  0.66192677  1
  O  O235  1  0.50132789  0.62723815  0.91283725  1
  O  O236  1  0.49476442  0.87476712  0.16871152  1
  O  O237  1  0.49277729  0.87369049  0.40646458  1
  O  O238  1  0.50005427  0.87379944  0.66647237  1
  O  O239  1  0.49387338  0.87423266  0.91345220  1
  O  O240  1  0.74487752  0.12673872  0.15249830  1
  O  O241  1  0.75027663  0.12881686  0.41655351  1
  O  O242  1  0.74758799  0.11945414  0.66544715  1
  O  O243  1  0.74737781  0.12166714  0.90712770  1
  O  O244  1  0.75108325  0.37332208  0.15852735  1
  O  O245  1  0.75216564  0.37692144  0.41682095  1
  O  O246  1  0.74669881  0.37529641  0.67218460  1
  O  O247  1  0.74631075  0.37615231  0.90560929  1
  O  O248  1  0.75910858  0.62516175  0.15882181  1
  O  O249  1  0.74452867  0.62359148  0.41477654  1
  O  O250  1  0.75063111  0.63081465  0.66482564  1
  O  O251  1  0.73993622  0.62649402  0.90906690  1
  O  O252  1  0.75770608  0.87595611  0.16146664  1
  O  O253  1  0.74902827  0.87386099  0.41237157  1
  O  O254  1  0.75022935  0.87345416  0.66900515  1
  O  O255  1  0.74783073  0.87129571  0.90886896  1
  O  O256  1  0.12977285  0.13116553  0.04572241  1
  O  O257  1  0.12068424  0.12705038  0.30136082  1
  O  O258  1  0.12512861  0.11694871  0.56270140  1
  O  O259  1  0.13846264  0.11925519  0.77309443  1
  O  O260  1  0.13198953  0.36884530  0.04546167  1
  O  O261  1  0.11840167  0.37286719  0.30343663  1
  O  O262  1  0.11691049  0.37102626  0.54554678  1
  O  O263  1  0.13400588  0.37478134  0.77285073  1
  O  O264  1  0.13338774  0.62201976  0.03635357  1
  O  O265  1  0.11343854  0.62178146  0.28572760  1
  O  O266  1  0.12210395  0.63181920  0.55319732  1
  O  O267  1  0.13827313  0.62576519  0.77960295  1
  O  O268  1  0.13331979  0.87734110  0.03463986  1
  O  O269  1  0.12429901  0.87997358  0.29871135  1
  O  O270  1  0.12399345  0.87571960  0.55131204  1
  O  O271  1  0.13106663  0.87636352  0.79510507  1
  O  O272  1  0.37338723  0.12786716  0.05208494  1
  O  O273  1  0.37316239  0.13227411  0.28731051  1
  O  O274  1  0.37453796  0.11893424  0.54656266  1
  O  O275  1  0.37823878  0.12243756  0.79514431  1
  O  O276  1  0.36953187  0.37460021  0.05118729  1
  O  O277  1  0.36912260  0.38032120  0.29132804  1
  O  O278  1  0.37725679  0.37547346  0.53120441  1
  O  O279  1  0.37974512  0.37177911  0.78986969  1
  O  O280  1  0.37242980  0.62165645  0.04906982  1
  O  O281  1  0.37373543  0.61424792  0.28718986  1
  O  O282  1  0.37815336  0.63628177  0.54845081  1
  O  O283  1  0.37375247  0.63431433  0.77969342  1
  O  O284  1  0.36997909  0.88112210  0.03644404  1
  O  O285  1  0.36795227  0.87695802  0.29660976  1
  O  O286  1  0.37630358  0.87555316  0.54738023  1
  O  O287  1  0.37589763  0.87670851  0.79930574  1
  O  O288  1  0.61812611  0.12822808  0.04644750  1
  O  O289  1  0.61990605  0.12969397  0.28290514  1
  O  O290  1  0.62166425  0.12101139  0.55239859  1
  O  O291  1  0.61909688  0.11823829  0.78164985  1
  O  O292  1  0.61535268  0.37941230  0.03025204  1
  O  O293  1  0.63077576  0.37740294  0.30056732  1
  O  O294  1  0.63379563  0.37811473  0.53843587  1
  O  O295  1  0.61633754  0.37504943  0.78568866  1
  O  O296  1  0.61542260  0.62438516  0.03604014  1
  O  O297  1  0.62777401  0.61876271  0.29764830  1
  O  O298  1  0.62478764  0.63015403  0.54893028  1
  O  O299  1  0.61962651  0.62702220  0.79678035  1
  O  O300  1  0.61656545  0.86754343  0.04212827  1
  O  O301  1  0.63037219  0.87860724  0.27645994  1
  O  O302  1  0.62471062  0.87284872  0.55454743  1
  O  O303  1  0.61732658  0.87339970  0.78163595  1
  O  O304  1  0.88298312  0.12308109  0.02756167  1
  O  O305  1  0.88404440  0.12621017  0.28769198  1
  O  O306  1  0.87406313  0.12311022  0.55994199  1
  O  O307  1  0.87111003  0.11354394  0.77867263  1
  O  O308  1  0.87520434  0.37407272  0.02469008  1
  O  O309  1  0.87746744  0.37395251  0.30261016  1
  O  O310  1  0.87223404  0.37538878  0.54808121  1
  O  O311  1  0.87062770  0.37612368  0.77758655  1
  O  O312  1  0.87778099  0.62535655  0.04315500  1
  O  O313  1  0.88497536  0.61910694  0.28822859  1
  O  O314  1  0.87369554  0.62813638  0.55627618  1
  O  O315  1  0.87514822  0.63573149  0.78030724  1
  O  O316  1  0.87882036  0.87461071  0.04584499  1
  O  O317  1  0.87509443  0.88446313  0.28385624  1
  O  O318  1  0.87460042  0.87530233  0.55481967  1
  O  O319  1  0.87941710  0.86856458  0.78157335  1
