# generated using pymatgen
data_VFe(PbO3)2
_symmetry_space_group_name_H-M   'P 1'
_cell_length_a   15.37258371
_cell_length_b   15.38013490
_cell_length_c   18.54131195
_cell_angle_alpha   90.00108947
_cell_angle_beta   89.95042987
_cell_angle_gamma   89.99785075
_symmetry_Int_Tables_number   1
_chemical_formula_structural   VFe(PbO3)2
_chemical_formula_sum   'V32 Fe32 Pb64 O192'
_cell_volume   4383.76544966
_cell_formula_units_Z   32
loop_
 _symmetry_equiv_pos_site_id
 _symmetry_equiv_pos_as_xyz
  1  'x, y, z'
loop_
 _atom_site_type_symbol
 _atom_site_label
 _atom_site_symmetry_multiplicity
 _atom_site_fract_x
 _atom_site_fract_y
 _atom_site_fract_z
 _atom_site_occupancy
  V  V0  1  0.87761358  0.12520100  0.14293257  1
  V  V1  1  0.12603272  0.37284404  0.14163867  1
  V  V2  1  0.37902433  0.37446279  0.38934023  1
  V  V3  1  0.87759461  0.37420735  0.64108117  1
  V  V4  1  0.37734179  0.87932906  0.39575592  1
  V  V5  1  0.87054995  0.37656239  0.38444162  1
  V  V6  1  0.62459370  0.12393244  0.13880036  1
  V  V7  1  0.87294201  0.12406605  0.89082216  1
  V  V8  1  0.12580615  0.62570439  0.89004389  1
  V  V9  1  0.37436204  0.12489817  0.14437243  1
  V  V10  1  0.87672992  0.87772070  0.63351537  1
  V  V11  1  0.37630549  0.12620938  0.63222218  1
  V  V12  1  0.12527302  0.62070333  0.63716014  1
  V  V13  1  0.37399182  0.87304787  0.14286435  1
  V  V14  1  0.37379570  0.62208447  0.13949091  1
  V  V15  1  0.37472012  0.62871413  0.88825625  1
  V  V16  1  0.87181499  0.87940772  0.38501564  1
  V  V17  1  0.12520622  0.62561565  0.14360067  1
  V  V18  1  0.37341323  0.62534653  0.39054237  1
  V  V19  1  0.37538175  0.12230190  0.88879004  1
  V  V20  1  0.87252758  0.62578066  0.13553506  1
  V  V21  1  0.87393296  0.62524852  0.38635845  1
  V  V22  1  0.87529677  0.87370322  0.89383835  1
  V  V23  1  0.62314455  0.12796074  0.39003200  1
  V  V24  1  0.37461500  0.87557645  0.88743887  1
  V  V25  1  0.62375945  0.87613239  0.89157663  1
  V  V26  1  0.62278745  0.62272122  0.39194387  1
  V  V27  1  0.62656654  0.37554570  0.64160516  1
  V  V28  1  0.87506060  0.62414980  0.64325912  1
  V  V29  1  0.12590505  0.37420231  0.88914520  1
  V  V30  1  0.62480472  0.62434092  0.89147330  1
  V  V31  1  0.62490831  0.12224533  0.88852534  1
  Fe  Fe32  1  0.12415415  0.37882458  0.38809402  1
  Fe  Fe33  1  0.62795647  0.62244560  0.63586455  1
  Fe  Fe34  1  0.12688602  0.12575645  0.14148014  1
  Fe  Fe35  1  0.12493990  0.62359904  0.38183675  1
  Fe  Fe36  1  0.37271677  0.37417751  0.13165064  1
  Fe  Fe37  1  0.37480031  0.37430994  0.63416667  1
  Fe  Fe38  1  0.87273719  0.12718379  0.63126447  1
  Fe  Fe39  1  0.12346948  0.12299505  0.88740476  1
  Fe  Fe40  1  0.37694198  0.12618441  0.38350198  1
  Fe  Fe41  1  0.62418794  0.37153340  0.89070978  1
  Fe  Fe42  1  0.12392680  0.87114911  0.38666947  1
  Fe  Fe43  1  0.87604138  0.37558886  0.89325375  1
  Fe  Fe44  1  0.62201060  0.62833349  0.13264123  1
  Fe  Fe45  1  0.87269536  0.12814045  0.38261512  1
  Fe  Fe46  1  0.62401896  0.87628187  0.13799954  1
  Fe  Fe47  1  0.87765049  0.37626379  0.13198598  1
  Fe  Fe48  1  0.12240436  0.12638659  0.63122136  1
  Fe  Fe49  1  0.87531164  0.62849017  0.88703518  1
  Fe  Fe50  1  0.12183903  0.87259736  0.63055704  1
  Fe  Fe51  1  0.37685169  0.62327101  0.63274664  1
  Fe  Fe52  1  0.12273911  0.37671131  0.63094826  1
  Fe  Fe53  1  0.62722012  0.12791548  0.63537125  1
  Fe  Fe54  1  0.62586399  0.37689320  0.38304800  1
  Fe  Fe55  1  0.37328410  0.87430639  0.62581381  1
  Fe  Fe56  1  0.87591118  0.87368839  0.13690661  1
  Fe  Fe57  1  0.12567758  0.87588039  0.14318928  1
  Fe  Fe58  1  0.62765027  0.87390801  0.62635798  1
  Fe  Fe59  1  0.12694133  0.87545031  0.88484302  1
  Fe  Fe60  1  0.37353527  0.37438021  0.89073785  1
  Fe  Fe61  1  0.62365242  0.37500860  0.13446047  1
  Fe  Fe62  1  0.12567032  0.12661945  0.38238298  1
  Fe  Fe63  1  0.62648344  0.87317948  0.39698852  1
  Pb  Pb64  1  0.00307533  -0.00469489  0.00440754  1
  Pb  Pb65  1  0.00785049  -0.00185163  0.25097228  1
  Pb  Pb66  1  0.00624842  0.01151850  0.49456336  1
  Pb  Pb67  1  0.01093334  0.00234603  0.74712687  1
  Pb  Pb68  1  0.00065574  0.24537056  0.00155397  1
  Pb  Pb69  1  -0.00035345  0.24369561  0.25522959  1
  Pb  Pb70  1  0.00527374  0.24649718  0.49549896  1
  Pb  Pb71  1  0.00682424  0.24161104  0.74675083  1
  Pb  Pb72  1  -0.00580257  0.49957390  0.00054280  1
  Pb  Pb73  1  0.00559479  0.50001865  0.25027230  1
  Pb  Pb74  1  0.00497636  0.49678424  0.49634059  1
  Pb  Pb75  1  -0.01086510  0.49886208  0.75604484  1
  Pb  Pb76  1  0.00235567  0.76179175  0.00537495  1
  Pb  Pb77  1  0.00510177  0.75233440  0.25083825  1
  Pb  Pb78  1  0.00375112  0.75286250  0.49628243  1
  Pb  Pb79  1  -0.00303516  0.74685027  0.75007222  1
  Pb  Pb80  1  0.23745349  0.00001204  0.00326140  1
  Pb  Pb81  1  0.24695033  0.00541871  0.25525277  1
  Pb  Pb82  1  0.24115804  0.00302211  0.49435642  1
  Pb  Pb83  1  0.24024467  -0.00287558  0.74233852  1
  Pb  Pb84  1  0.24537890  0.24132561  0.00156359  1
  Pb  Pb85  1  0.24097837  0.25147069  0.25732236  1
  Pb  Pb86  1  0.24117762  0.25113756  0.49620432  1
  Pb  Pb87  1  0.24961637  0.25050719  0.74252829  1
  Pb  Pb88  1  0.25441471  0.49717668  0.00031406  1
  Pb  Pb89  1  0.24200967  0.49783325  0.25517028  1
  Pb  Pb90  1  0.25435493  0.49529133  0.50050095  1
  Pb  Pb91  1  0.25644905  0.49188297  0.74632849  1
  Pb  Pb92  1  0.24481096  0.75693758  0.00126144  1
  Pb  Pb93  1  0.24359121  0.75198516  0.25638856  1
  Pb  Pb94  1  0.24794083  0.75648357  0.50239429  1
  Pb  Pb95  1  0.24741082  0.75662817  0.74131689  1
  Pb  Pb96  1  0.50007368  -0.00232707  0.00048883  1
  Pb  Pb97  1  0.49686697  0.00312238  0.25597391  1
  Pb  Pb98  1  0.50940523  -0.00144625  0.50263562  1
  Pb  Pb99  1  0.50035999  -0.00249565  0.73646369  1
  Pb  Pb100  1  0.49877743  0.25762375  0.00200285  1
  Pb  Pb101  1  0.49867162  0.25262467  0.24830624  1
  Pb  Pb102  1  0.49742938  0.25478826  0.50031523  1
  Pb  Pb103  1  0.49820923  0.25911094  0.75300495  1
  Pb  Pb104  1  0.49960266  0.49300746  0.00100458  1
  Pb  Pb105  1  0.50488589  0.49270527  0.24589291  1
  Pb  Pb106  1  0.49354824  0.50219918  0.50555218  1
  Pb  Pb107  1  0.49740730  0.49587315  0.75007104  1
  Pb  Pb108  1  0.50565640  0.74868399  0.00296073  1
  Pb  Pb109  1  0.50581237  0.75724430  0.25451664  1
  Pb  Pb110  1  0.49247842  0.74609202  0.50586584  1
  Pb  Pb111  1  0.50047897  0.75062149  0.73676188  1
  Pb  Pb112  1  0.75381408  -0.00851025  0.00487518  1
  Pb  Pb113  1  0.74959658  -0.00046616  0.25132343  1
  Pb  Pb114  1  0.74715997  0.00930582  0.50278885  1
  Pb  Pb115  1  0.74843729  0.00234203  0.74218698  1
  Pb  Pb116  1  0.74801312  0.25904380  0.00329179  1
  Pb  Pb117  1  0.75354457  0.24979441  0.24775576  1
  Pb  Pb118  1  0.75125351  0.24258612  0.50064031  1
  Pb  Pb119  1  0.75058499  0.25791430  0.75488077  1
  Pb  Pb120  1  0.74905092  0.49521092  -0.00012066  1
  Pb  Pb121  1  0.74476070  0.49433374  0.24127243  1
  Pb  Pb122  1  0.74547905  0.50415106  0.50120184  1
  Pb  Pb123  1  0.75171363  0.49102838  0.75936901  1
  Pb  Pb124  1  0.74078060  0.75057282  0.00541020  1
  Pb  Pb125  1  0.74121690  0.76025540  0.25166271  1
  Pb  Pb126  1  0.74319124  0.74560325  0.50270244  1
  Pb  Pb127  1  0.75102419  0.74736284  0.74627642  1
  O  O128  1  0.12670946  0.00157815  0.16651955  1
  O  O129  1  0.12405870  -0.00240675  0.40727642  1
  O  O130  1  0.12285376  -0.00000951  0.65861966  1
  O  O131  1  0.12433771  -0.00076384  0.91787236  1
  O  O132  1  0.12648699  0.25587612  0.16511333  1
  O  O133  1  0.12454745  0.25380654  0.41104825  1
  O  O134  1  0.12299018  0.25138857  0.66221738  1
  O  O135  1  0.12595226  0.25392853  0.91363403  1
  O  O136  1  0.12910524  0.49775479  0.16549232  1
  O  O137  1  0.12500780  0.50294189  0.41637071  1
  O  O138  1  0.11963094  0.50536974  0.66398716  1
  O  O139  1  0.12692524  0.49940914  0.91435035  1
  O  O140  1  0.12930028  0.74725715  0.16740323  1
  O  O141  1  0.12374094  0.74545888  0.41352767  1
  O  O142  1  0.12047125  0.74071949  0.66177702  1
  O  O143  1  0.12717763  0.74559306  0.91361409  1
  O  O144  1  0.37736910  -0.00009661  0.16923429  1
  O  O145  1  0.37730832  -0.00410355  0.41260477  1
  O  O146  1  0.37589467  0.00701015  0.65324080  1
  O  O147  1  0.37588583  0.00056736  0.91729438  1
  O  O148  1  0.37857705  0.24318990  0.16073989  1
  O  O149  1  0.37964616  0.25695457  0.40994890  1
  O  O150  1  0.37755089  0.24514047  0.66267092  1
  O  O151  1  0.37591623  0.23924173  0.91219347  1
  O  O152  1  0.37278812  0.50607652  0.15814978  1
  O  O153  1  0.38051116  0.50112891  0.41377971  1
  O  O154  1  0.37622379  0.49939940  0.66639699  1
  O  O155  1  0.37390335  0.50722739  0.91528984  1
  O  O156  1  0.37319210  0.75537718  0.16510711  1
  O  O157  1  0.37970066  0.74286161  0.41209439  1
  O  O158  1  0.37337742  0.74845975  0.66057647  1
  O  O159  1  0.37384613  0.75106048  0.91642196  1
  O  O160  1  0.62468691  0.00612315  0.16632795  1
  O  O161  1  0.62528510  0.00578163  0.41329988  1
  O  O162  1  0.62816659  -0.00108398  0.66134067  1
  O  O163  1  0.62519226  -0.00043342  0.91976174  1
  O  O164  1  0.62238690  0.24156322  0.16167392  1
  O  O165  1  0.62464326  0.24771819  0.41163122  1
  O  O166  1  0.62829580  0.25717046  0.66560608  1
  O  O167  1  0.62488921  0.23990026  0.91555869  1
  O  O168  1  0.62125120  0.50406664  0.15967551  1
  O  O169  1  0.62601653  0.50452240  0.41502308  1
  O  O170  1  0.62838242  0.49204763  0.66714182  1
  O  O171  1  0.62310661  0.50793849  0.91080356  1
  O  O172  1  0.62227223  0.75020446  0.16874866  1
  O  O173  1  0.62667261  0.74012662  0.41651521  1
  O  O174  1  0.62955001  0.75068657  0.66129901  1
  O  O175  1  0.62414523  0.75216347  0.91647064  1
  O  O176  1  0.87277539  0.00785699  0.16571833  1
  O  O177  1  0.87235033  -0.00534744  0.39980185  1
  O  O178  1  0.87390469  -0.00698689  0.65549258  1
  O  O179  1  0.87457615  -0.00146336  0.91867825  1
  O  O180  1  0.87347752  0.24649542  0.16404324  1
  O  O181  1  0.87132399  0.26025093  0.40643176  1
  O  O182  1  0.87238964  0.25816351  0.66229813  1
  O  O183  1  0.87391629  0.24125794  0.91368490  1
  O  O184  1  0.88004520  0.50673325  0.16114400  1
  O  O185  1  0.87063671  0.50307411  0.41245906  1
  O  O186  1  0.87428515  0.49632402  0.66884431  1
  O  O187  1  0.87687124  0.50443104  0.91742200  1
  O  O188  1  0.87931230  0.74115071  0.16099001  1
  O  O189  1  0.87076986  0.74070832  0.41219891  1
  O  O190  1  0.87606377  0.75098095  0.66470982  1
  O  O191  1  0.87517204  0.75650031  0.91509450  1
  O  O192  1  -0.00487528  0.12810105  0.16239216  1
  O  O193  1  -0.00246834  0.12662483  0.40814390  1
  O  O194  1  -0.00474146  0.12624997  0.66263471  1
  O  O195  1  -0.00821931  0.12247530  0.91688935  1
  O  O196  1  0.00665733  0.37679653  0.16343800  1
  O  O197  1  -0.01127791  0.38107851  0.40860769  1
  O  O198  1  -0.00618654  0.37740763  0.66262464  1
  O  O199  1  0.00892612  0.37464485  0.91545768  1
  O  O200  1  0.00210149  0.62353765  0.16480620  1
  O  O201  1  -0.00860064  0.62216223  0.40708003  1
  O  O202  1  -0.00060258  0.62339399  0.66845189  1
  O  O203  1  0.00991149  0.62588596  0.91484187  1
  O  O204  1  -0.00149952  0.87488436  0.16895219  1
  O  O205  1  -0.01207618  0.86730300  0.40913154  1
  O  O206  1  -0.00702222  0.87097515  0.66062880  1
  O  O207  1  -0.00416888  0.87536077  0.91457210  1
  O  O208  1  0.25773518  0.12461487  0.16507194  1
  O  O209  1  0.25249923  0.12596701  0.41055157  1
  O  O210  1  0.25749711  0.12725314  0.65535458  1
  O  O211  1  0.25627449  0.12195658  0.91404498  1
  O  O212  1  0.24685667  0.37449181  0.16459880  1
  O  O213  1  0.26017359  0.37949719  0.41092560  1
  O  O214  1  0.24798603  0.37577549  0.66238574  1
  O  O215  1  0.24338670  0.37508930  0.91568015  1
  O  O216  1  0.25577485  0.62808287  0.16773938  1
  O  O217  1  0.25795408  0.62142029  0.40859479  1
  O  O218  1  0.24144686  0.62229441  0.65800705  1
  O  O219  1  0.24647445  0.62562165  0.91691551  1
  O  O220  1  0.25841419  0.87839627  0.16928835  1
  O  O221  1  0.25708706  0.86869892  0.41202985  1
  O  O222  1  0.24823880  0.87365769  0.65843658  1
  O  O223  1  0.25449190  0.87491773  0.91631197  1
  O  O224  1  0.50227974  0.12188405  0.16540443  1
  O  O225  1  0.50492372  0.12575897  0.41498273  1
  O  O226  1  0.49609095  0.12650683  0.66142443  1
  O  O227  1  0.49751809  0.11923007  0.91466411  1
  O  O228  1  0.49637015  0.37417264  0.16288450  1
  O  O229  1  0.49806032  0.37783044  0.41433930  1
  O  O230  1  0.50664900  0.37383755  0.66324761  1
  O  O231  1  0.49883760  0.37391422  0.91679825  1
  O  O232  1  0.48932401  0.63079912  0.16288098  1
  O  O233  1  0.50292808  0.62269654  0.41351761  1
  O  O234  1  0.50294341  0.62247216  0.66442231  1
  O  O235  1  0.50110624  0.63020544  0.91386885  1
  O  O236  1  0.49341174  0.87695878  0.16848169  1
  O  O237  1  0.49548529  0.87055106  0.41667341  1
  O  O238  1  0.49980567  0.87609364  0.65376916  1
  O  O239  1  0.49901325  0.87634497  0.91646676  1
  O  O240  1  0.74599107  0.12575050  0.16263757  1
  O  O241  1  0.74488767  0.12680254  0.41239190  1
  O  O242  1  0.75189394  0.12674693  0.66870430  1
  O  O243  1  0.75334959  0.11919266  0.91494450  1
  O  O244  1  0.75141165  0.37628955  0.15875404  1
  O  O245  1  0.75384636  0.37972084  0.41193554  1
  O  O246  1  0.75130971  0.37660094  0.66783307  1
  O  O247  1  0.74905154  0.37444323  0.91845374  1
  O  O248  1  0.75645015  0.62381656  0.15419535  1
  O  O249  1  0.74933908  0.62208750  0.41436170  1
  O  O250  1  0.75510876  0.62268693  0.66885993  1
  O  O251  1  0.74347897  0.62989713  0.91207551  1
  O  O252  1  0.75081079  0.87587978  0.16705121  1
  O  O253  1  0.75885100  0.86893498  0.41456847  1
  O  O254  1  0.75865027  0.87178394  0.65965880  1
  O  O255  1  0.75182542  0.87671975  0.91658812  1
  O  O256  1  0.13083003  0.13085305  0.04016605  1
  O  O257  1  0.12666969  0.13347855  0.27968501  1
  O  O258  1  0.11895053  0.12541521  0.53017216  1
  O  O259  1  0.11848038  0.12118412  0.78754324  1
  O  O260  1  0.12682721  0.37361878  0.05057789  1
  O  O261  1  0.13084805  0.37991933  0.28718216  1
  O  O262  1  0.12214190  0.37745239  0.53050964  1
  O  O263  1  0.12625801  0.37531937  0.79856736  1
  O  O264  1  0.12729152  0.62480482  0.05261862  1
  O  O265  1  0.12867808  0.62002166  0.28127481  1
  O  O266  1  0.11983558  0.62067961  0.54605757  1
  O  O267  1  0.12733408  0.62374857  0.79973812  1
  O  O268  1  0.12573290  0.87035655  0.04133798  1
  O  O269  1  0.12520500  0.86791377  0.28513307  1
  O  O270  1  0.12262884  0.86700774  0.52994142  1
  O  O271  1  0.12910213  0.87955983  0.78541674  1
  O  O272  1  0.37669315  0.11953098  0.05348683  1
  O  O273  1  0.38196309  0.12229331  0.28407801  1
  O  O274  1  0.38041822  0.13176741  0.54135323  1
  O  O275  1  0.37551746  0.11963923  0.79856301  1
  O  O276  1  0.37498127  0.37771044  0.03140924  1
  O  O277  1  0.38014792  0.37687936  0.29799707  1
  O  O278  1  0.37996391  0.37807218  0.53451173  1
  O  O279  1  0.37705424  0.37377736  0.79038998  1
  O  O280  1  0.37139179  0.62724233  0.04853114  1
  O  O281  1  0.37847595  0.62360812  0.29988825  1
  O  O282  1  0.38051133  0.62028352  0.53228785  1
  O  O283  1  0.37276756  0.62847654  0.79777646  1
  O  O284  1  0.37345286  0.87596438  0.05207650  1
  O  O285  1  0.37867335  0.87501112  0.30400965  1
  O  O286  1  0.37185561  0.86536736  0.52582922  1
  O  O287  1  0.37430749  0.87644713  0.79691318  1
  O  O288  1  0.62301206  0.12157374  0.04824860  1
  O  O289  1  0.62320866  0.12654790  0.29882719  1
  O  O290  1  0.63342397  0.12450316  0.53551003  1
  O  O291  1  0.62457340  0.12064465  0.79770423  1
  O  O292  1  0.62193434  0.37080224  0.03285822  1
  O  O293  1  0.62167701  0.38189968  0.28368471  1
  O  O294  1  0.62906196  0.37639546  0.55052452  1
  O  O295  1  0.62812419  0.37049172  0.79028425  1
  O  O296  1  0.62257069  0.63663733  0.03290611  1
  O  O297  1  0.62379744  0.62394015  0.30076276  1
  O  O298  1  0.63402382  0.62020523  0.53627407  1
  O  O299  1  0.62360281  0.62831865  0.80079325  1
  O  O300  1  0.62525026  0.87182521  0.03788248  1
  O  O301  1  0.62739443  0.86767899  0.29585041  1
  O  O302  1  0.63006844  0.87736863  0.52501389  1
  O  O303  1  0.62496412  0.87653077  0.80125877  1
  O  O304  1  0.87465198  0.12578990  0.05173626  1
  O  O305  1  0.86957509  0.13424613  0.28254477  1
  O  O306  1  0.86630616  0.12782421  0.53057208  1
  O  O307  1  0.87407065  0.12077716  0.80031319  1
  O  O308  1  0.87924106  0.37421188  0.03168050  1
  O  O309  1  0.86974707  0.37948653  0.29306786  1
  O  O310  1  0.87389042  0.37732841  0.55055164  1
  O  O311  1  0.87075949  0.37987505  0.79278303  1
  O  O312  1  0.87939019  0.62544832  0.04423818  1
  O  O313  1  0.86948457  0.62519831  0.29593896  1
  O  O314  1  0.87702892  0.62284424  0.55224400  1
  O  O315  1  0.88240157  0.62830641  0.78751335  1
  O  O316  1  0.87998127  0.87825989  0.03675022  1
  O  O317  1  0.86913758  0.86999487  0.29365249  1
  O  O318  1  0.87781733  0.87404303  0.54278207  1
  O  O319  1  0.87410622  0.87716407  0.80346472  1
