# generated using pymatgen
data_VFe(PbO3)2
_symmetry_space_group_name_H-M   'P 1'
_cell_length_a   15.38308166
_cell_length_b   15.38646617
_cell_length_c   18.53431053
_cell_angle_alpha   89.95740584
_cell_angle_beta   89.99972850
_cell_angle_gamma   89.99373955
_symmetry_Int_Tables_number   1
_chemical_formula_structural   VFe(PbO3)2
_chemical_formula_sum   'V32 Fe32 Pb64 O192'
_cell_volume   4386.90817667
_cell_formula_units_Z   32
loop_
 _symmetry_equiv_pos_site_id
 _symmetry_equiv_pos_as_xyz
  1  'x, y, z'
loop_
 _atom_site_type_symbol
 _atom_site_label
 _atom_site_symmetry_multiplicity
 _atom_site_fract_x
 _atom_site_fract_y
 _atom_site_fract_z
 _atom_site_occupancy
  V  V0  1  0.12627177  0.62377182  0.88976792  1
  V  V1  1  0.37582146  0.12487128  0.38751446  1
  V  V2  1  0.87555793  0.87138486  0.13448510  1
  V  V3  1  0.62501951  0.37178073  0.13635356  1
  V  V4  1  0.37667811  0.37835336  0.88884837  1
  V  V5  1  0.87576769  0.62401640  0.89153480  1
  V  V6  1  0.37828893  0.87115813  0.88643445  1
  V  V7  1  0.12313809  0.62360383  0.63862732  1
  V  V8  1  0.62208878  0.62297951  0.88659648  1
  V  V9  1  0.62890102  0.12547772  0.64131037  1
  V  V10  1  0.12763705  0.12452617  0.38453219  1
  V  V11  1  0.87591037  0.87825365  0.64962026  1
  V  V12  1  0.87505187  0.12025620  0.88908291  1
  V  V13  1  0.12644565  0.87253995  0.64266994  1
  V  V14  1  0.87658402  0.87585833  0.38927896  1
  V  V15  1  0.37580086  0.87321846  0.13450329  1
  V  V16  1  0.12583842  0.37182609  0.38393020  1
  V  V17  1  0.62161868  0.62759709  0.39023631  1
  V  V18  1  0.12524293  0.37376905  0.64216695  1
  V  V19  1  0.12356190  0.87574219  0.89491344  1
  V  V20  1  0.37407171  0.62452068  0.64241628  1
  V  V21  1  0.87681016  0.37010532  0.64074705  1
  V  V22  1  0.12696746  0.87841378  0.38826753  1
  V  V23  1  0.12558124  0.62632169  0.13774321  1
  V  V24  1  0.62575403  0.87200154  0.13708323  1
  V  V25  1  0.62391852  0.87545667  0.64569809  1
  V  V26  1  0.87312248  0.37156015  0.89325578  1
  V  V27  1  0.62305381  0.62199625  0.13971175  1
  V  V28  1  0.87425996  0.62521243  0.38769522  1
  V  V29  1  0.12179089  0.12354219  0.64574777  1
  V  V30  1  0.62691551  0.62601477  0.64027216  1
  V  V31  1  0.87631747  0.62193082  0.64211513  1
  Fe  Fe32  1  0.37593053  0.37742877  0.13702947  1
  Fe  Fe33  1  0.12584267  0.12143167  0.12496405  1
  Fe  Fe34  1  0.62384766  0.12120870  0.13278001  1
  Fe  Fe35  1  0.62649312  0.12691177  0.88825705  1
  Fe  Fe36  1  0.87296235  0.37919305  0.13950358  1
  Fe  Fe37  1  0.37379836  0.37351192  0.63735544  1
  Fe  Fe38  1  0.37442697  0.87728334  0.63926672  1
  Fe  Fe39  1  0.62459572  0.37258107  0.38331932  1
  Fe  Fe40  1  0.62509880  0.37613910  0.63855449  1
  Fe  Fe41  1  0.37336417  0.37349266  0.38079418  1
  Fe  Fe42  1  0.87751691  0.12468187  0.38090895  1
  Fe  Fe43  1  0.87646654  0.37569788  0.37777984  1
  Fe  Fe44  1  0.37284210  0.62580948  0.88494309  1
  Fe  Fe45  1  0.37900617  0.12397413  0.12429678  1
  Fe  Fe46  1  0.12580890  0.37589527  0.12551559  1
  Fe  Fe47  1  0.87584408  0.87217356  0.88192876  1
  Fe  Fe48  1  0.87664082  0.12531629  0.63870162  1
  Fe  Fe49  1  0.87217614  0.12326602  0.13355103  1
  Fe  Fe50  1  0.12491713  0.87221608  0.12826305  1
  Fe  Fe51  1  0.12351859  0.12715417  0.89866587  1
  Fe  Fe52  1  0.62621744  0.87574158  0.38797075  1
  Fe  Fe53  1  0.37198398  0.62561672  0.38080910  1
  Fe  Fe54  1  0.86980904  0.62840736  0.13624872  1
  Fe  Fe55  1  0.62720829  0.87219845  0.88135625  1
  Fe  Fe56  1  0.12382727  0.62527373  0.38390518  1
  Fe  Fe57  1  0.62646913  0.37838228  0.88538497  1
  Fe  Fe58  1  0.12272532  0.37849381  0.90054689  1
  Fe  Fe59  1  0.37412238  0.12523045  0.64306459  1
  Fe  Fe60  1  0.62579837  0.12241040  0.38131613  1
  Fe  Fe61  1  0.37490025  0.87702121  0.38601611  1
  Fe  Fe62  1  0.37408667  0.12530497  0.89281693  1
  Fe  Fe63  1  0.37952250  0.62730755  0.14186126  1
  Pb  Pb64  1  -0.00278746  0.00695721  0.00487816  1
  Pb  Pb65  1  -0.00146032  0.00489109  0.24027067  1
  Pb  Pb66  1  -0.00293317  0.00675921  0.50175539  1
  Pb  Pb67  1  0.00494869  0.00626256  0.75748787  1
  Pb  Pb68  1  -0.00375248  0.24730329  0.00680746  1
  Pb  Pb69  1  -0.00385049  0.24910128  0.23449011  1
  Pb  Pb70  1  -0.00568257  0.24530561  0.49426014  1
  Pb  Pb71  1  0.01883398  0.25231924  0.76611907  1
  Pb  Pb72  1  -0.00996414  0.49752750  0.00908292  1
  Pb  Pb73  1  -0.00339383  0.49697562  0.24321925  1
  Pb  Pb74  1  -0.00005817  0.49753219  0.49316672  1
  Pb  Pb75  1  0.00623658  0.49313973  0.75557006  1
  Pb  Pb76  1  0.00148675  0.74930416  0.00198368  1
  Pb  Pb77  1  0.00702771  0.74416196  0.24838441  1
  Pb  Pb78  1  0.00098313  0.75109466  0.49948043  1
  Pb  Pb79  1  -0.00352887  0.75268560  0.75359748  1
  Pb  Pb80  1  0.25050943  0.00624154  0.00002142  1
  Pb  Pb81  1  0.25232941  -0.00131820  0.23696846  1
  Pb  Pb82  1  0.26114552  0.00327353  0.50791634  1
  Pb  Pb83  1  0.25497263  0.00954401  0.75931988  1
  Pb  Pb84  1  0.24762086  0.25437695  -0.00161381  1
  Pb  Pb85  1  0.25197058  0.25072193  0.23119207  1
  Pb  Pb86  1  0.25888908  0.24668550  0.50234233  1
  Pb  Pb87  1  0.25180313  0.24565761  0.75795918  1
  Pb  Pb88  1  0.25463372  0.49380298  0.00683393  1
  Pb  Pb89  1  0.25671045  0.50095191  0.24563688  1
  Pb  Pb90  1  0.25464914  0.49704521  0.49267490  1
  Pb  Pb91  1  0.24992520  0.49740426  0.75270735  1
  Pb  Pb92  1  0.24654775  0.75117008  0.00265152  1
  Pb  Pb93  1  0.25179496  0.74311252  0.25172353  1
  Pb  Pb94  1  0.25397160  0.74962087  0.49628023  1
  Pb  Pb95  1  0.25542177  0.74334677  0.75301036  1
  Pb  Pb96  1  0.50623280  0.00958314  -0.00321870  1
  Pb  Pb97  1  0.50332015  -0.00184789  0.24733696  1
  Pb  Pb98  1  0.49617302  -0.00217734  0.49936493  1
  Pb  Pb99  1  0.49812038  0.00911937  0.75489527  1
  Pb  Pb100  1  0.50096910  0.24680374  -0.00507303  1
  Pb  Pb101  1  0.50044981  0.24840875  0.24258395  1
  Pb  Pb102  1  0.50363567  0.25613841  0.49786205  1
  Pb  Pb103  1  0.49881470  0.24729013  0.75001922  1
  Pb  Pb104  1  0.48516272  0.49973157  0.00636474  1
  Pb  Pb105  1  0.49622245  0.49124040  0.25434063  1
  Pb  Pb106  1  0.49363008  0.48568607  0.50010386  1
  Pb  Pb107  1  0.49965044  0.49428247  0.74914714  1
  Pb  Pb108  1  0.49428296  0.74241951  0.00040871  1
  Pb  Pb109  1  0.49543021  0.76029747  0.25556445  1
  Pb  Pb110  1  0.49235295  0.75583872  0.49838359  1
  Pb  Pb111  1  0.49984662  0.74929073  0.75054071  1
  Pb  Pb112  1  0.74532992  0.00269716  -0.00327777  1
  Pb  Pb113  1  0.74687276  0.01000309  0.25054876  1
  Pb  Pb114  1  0.75049734  0.00836427  0.49785554  1
  Pb  Pb115  1  0.74207033  0.00001511  0.75610323  1
  Pb  Pb116  1  0.74937225  0.24540657  0.00295754  1
  Pb  Pb117  1  0.75316444  0.24230785  0.24728119  1
  Pb  Pb118  1  0.75101142  0.24918744  0.48927137  1
  Pb  Pb119  1  0.73791490  0.24864677  0.75586832  1
  Pb  Pb120  1  0.75760308  0.50174264  0.00559893  1
  Pb  Pb121  1  0.74931239  0.49183733  0.25256265  1
  Pb  Pb122  1  0.74488155  0.49048028  0.49733295  1
  Pb  Pb123  1  0.74741931  0.49561578  0.75232960  1
  Pb  Pb124  1  0.75243374  0.74880822  -0.00389825  1
  Pb  Pb125  1  0.74117108  0.75630254  0.25088053  1
  Pb  Pb126  1  0.75096565  0.74838418  0.50217447  1
  Pb  Pb127  1  0.75157525  0.75675711  0.75459998  1
  O  O128  1  0.12493397  -0.00519609  0.15862321  1
  O  O129  1  0.12172050  -0.00344808  0.41317169  1
  O  O130  1  0.12200358  0.00172844  0.66716302  1
  O  O131  1  0.12241214  -0.00862051  0.91075243  1
  O  O132  1  0.12488118  0.24817743  0.14914159  1
  O  O133  1  0.12443461  0.25060480  0.41078433  1
  O  O134  1  0.12175742  0.24889070  0.67031884  1
  O  O135  1  0.12189634  0.25304890  0.92011930  1
  O  O136  1  0.12587594  0.51002468  0.15751747  1
  O  O137  1  0.12466227  0.49233240  0.40850122  1
  O  O138  1  0.12279726  0.50015740  0.66736453  1
  O  O139  1  0.12086282  0.51101477  0.91495223  1
  O  O140  1  0.12451416  0.74859866  0.16416291  1
  O  O141  1  0.12095988  0.75994107  0.41551834  1
  O  O142  1  0.12363168  0.75243048  0.66253978  1
  O  O143  1  0.12098269  0.74346926  0.91692473  1
  O  O144  1  0.38021756  -0.00927931  0.15749016  1
  O  O145  1  0.36982327  0.00627567  0.41594154  1
  O  O146  1  0.37279415  -0.00017719  0.67299739  1
  O  O147  1  0.37065848  -0.01467079  0.90971344  1
  O  O148  1  0.37917978  0.24966778  0.15479128  1
  O  O149  1  0.37047110  0.24276659  0.41195398  1
  O  O150  1  0.37280203  0.24955277  0.67121587  1
  O  O151  1  0.37420213  0.25992979  0.90922513  1
  O  O152  1  0.37774778  0.50319340  0.16569314  1
  O  O153  1  0.37236565  0.50032401  0.41017296  1
  O  O154  1  0.37274641  0.50376685  0.66730902  1
  O  O155  1  0.37589340  0.50038739  0.91367689  1
  O  O156  1  0.37949100  0.75727954  0.16311506  1
  O  O157  1  0.37271353  0.75030485  0.41594102  1
  O  O158  1  0.37305394  0.74769002  0.66622363  1
  O  O159  1  0.37194418  0.75319257  0.91607477  1
  O  O160  1  0.62480335  -0.01121477  0.15842490  1
  O  O161  1  0.62637368  -0.00051261  0.41849699  1
  O  O162  1  0.62814694  0.00288136  0.66706878  1
  O  O163  1  0.62790619  -0.00274087  0.90962905  1
  O  O164  1  0.62435881  0.25520324  0.15261142  1
  O  O165  1  0.62423558  0.24632137  0.41318119  1
  O  O166  1  0.62832604  0.24534971  0.66203727  1
  O  O167  1  0.62863176  0.25457299  0.91551941  1
  O  O168  1  0.62480306  0.50567957  0.15981989  1
  O  O169  1  0.62718903  0.51107948  0.41333219  1
  O  O170  1  0.62753718  0.50835886  0.66468333  1
  O  O171  1  0.62950882  0.50878304  0.91169090  1
  O  O172  1  0.62355589  0.75351599  0.16564234  1
  O  O173  1  0.63000156  0.74584449  0.42123798  1
  O  O174  1  0.62608244  0.74486152  0.66614606  1
  O  O175  1  0.62817488  0.74065636  0.91341599  1
  O  O176  1  0.87047077  -0.01323381  0.15988095  1
  O  O177  1  0.87957529  -0.00728079  0.41312511  1
  O  O178  1  0.87805533  -0.00147886  0.67056194  1
  O  O179  1  0.87605137  0.00292220  0.90436829  1
  O  O180  1  0.87174704  0.25098693  0.15698661  1
  O  O181  1  0.87907904  0.25091557  0.40914213  1
  O  O182  1  0.87595183  0.25709299  0.66064052  1
  O  O183  1  0.87384427  0.25354979  0.91371245  1
  O  O184  1  0.87100137  0.50683048  0.16775816  1
  O  O185  1  0.87789436  0.50350853  0.41227717  1
  O  O186  1  0.87748998  0.50106839  0.66938822  1
  O  O187  1  0.87418277  0.50403817  0.91535174  1
  O  O188  1  0.87052903  0.75614965  0.16471829  1
  O  O189  1  0.87794204  0.75304489  0.41866116  1
  O  O190  1  0.87784172  0.74576310  0.66886522  1
  O  O191  1  0.87642559  0.74284935  0.91246124  1
  O  O192  1  -0.00091761  0.11957245  0.15735675  1
  O  O193  1  0.00622341  0.12253677  0.41342683  1
  O  O194  1  0.00447301  0.12584032  0.67097257  1
  O  O195  1  -0.00980180  0.12753931  0.91634487  1
  O  O196  1  0.00251535  0.38058791  0.15786890  1
  O  O197  1  0.00697307  0.37435599  0.41052714  1
  O  O198  1  -0.00322761  0.37811077  0.66946854  1
  O  O199  1  -0.01113055  0.37991601  0.91940002  1
  O  O200  1  0.00343363  0.62989412  0.16076945  1
  O  O201  1  -0.00244455  0.62709202  0.41684099  1
  O  O202  1  0.00208909  0.62517704  0.66789953  1
  O  O203  1  -0.00256167  0.62487670  0.91410177  1
  O  O204  1  -0.00763474  0.87160578  0.15512861  1
  O  O205  1  -0.00139447  0.87458479  0.41762284  1
  O  O206  1  0.00741642  0.87493903  0.67107036  1
  O  O207  1  0.00347287  0.86878274  0.91305623  1
  O  O208  1  0.25343447  0.11870584  0.15264880  1
  O  O209  1  0.24786554  0.12403433  0.41683891  1
  O  O210  1  0.23919178  0.12600834  0.67098784  1
  O  O211  1  0.24992616  0.12254152  0.91561070  1
  O  O212  1  0.24797222  0.37856559  0.15867025  1
  O  O213  1  0.24313864  0.37169227  0.41062775  1
  O  O214  1  0.24449394  0.37537347  0.66805000  1
  O  O215  1  0.25667840  0.38168092  0.91409804  1
  O  O216  1  0.24538242  0.63100354  0.15964624  1
  O  O217  1  0.24614812  0.62711194  0.41622005  1
  O  O218  1  0.24565175  0.62517210  0.66661978  1
  O  O219  1  0.24268674  0.62776550  0.91090893  1
  O  O220  1  0.25778023  0.87344195  0.15235939  1
  O  O221  1  0.24192919  0.87672355  0.41057197  1
  O  O222  1  0.24038246  0.87648306  0.66727209  1
  O  O223  1  0.24581765  0.86741668  0.91477664  1
  O  O224  1  0.50058023  0.12070292  0.16058813  1
  O  O225  1  0.49117300  0.12278882  0.40823605  1
  O  O226  1  0.50809872  0.12404953  0.66479835  1
  O  O227  1  0.50011530  0.12447474  0.91014997  1
  O  O228  1  0.50862392  0.38030247  0.16202627  1
  O  O229  1  0.49859483  0.37426703  0.41377338  1
  O  O230  1  0.50037249  0.37694798  0.66739664  1
  O  O231  1  0.49573477  0.37964968  0.90974468  1
  O  O232  1  0.50990813  0.63019529  0.16848731  1
  O  O233  1  0.50595627  0.63087371  0.40806994  1
  O  O234  1  0.50438865  0.62602454  0.66321030  1
  O  O235  1  0.50515958  0.62725937  0.90621990  1
  O  O236  1  0.50271303  0.87227676  0.16136991  1
  O  O237  1  0.50038466  0.87529020  0.41909744  1
  O  O238  1  0.50315477  0.87401443  0.66713048  1
  O  O239  1  0.49457542  0.86756949  0.90332841  1
  O  O240  1  0.74764896  0.12128457  0.16226439  1
  O  O241  1  0.75349333  0.12173141  0.41248609  1
  O  O242  1  0.74777709  0.12436707  0.66494401  1
  O  O243  1  0.75826326  0.12750065  0.91368499  1
  O  O244  1  0.74014416  0.38088988  0.16223690  1
  O  O245  1  0.75123779  0.37770004  0.41116584  1
  O  O246  1  0.75871935  0.38086137  0.66266854  1
  O  O247  1  0.75665463  0.38040614  0.91607108  1
  O  O248  1  0.73945270  0.63131561  0.16596671  1
  O  O249  1  0.75246269  0.62826934  0.41915350  1
  O  O250  1  0.74877912  0.62615490  0.66534442  1
  O  O251  1  0.75361217  0.62509133  0.91108968  1
  O  O252  1  0.74642108  0.87004357  0.15839850  1
  O  O253  1  0.75984745  0.87334891  0.41559729  1
  O  O254  1  0.75054204  0.87237624  0.66841468  1
  O  O255  1  0.75254927  0.86994550  0.91214267  1
  O  O256  1  0.11660038  0.11474193  0.02327681  1
  O  O257  1  0.12894129  0.12258027  0.29402926  1
  O  O258  1  0.12252908  0.12540265  0.55505228  1
  O  O259  1  0.11736257  0.12841002  0.79611099  1
  O  O260  1  0.13002948  0.38526319  0.02409665  1
  O  O261  1  0.12611528  0.37102154  0.29364151  1
  O  O262  1  0.12332804  0.37179616  0.55163077  1
  O  O263  1  0.11681070  0.37680695  0.79766567  1
  O  O264  1  0.12397117  0.63058555  0.04628624  1
  O  O265  1  0.12451582  0.63449926  0.28506158  1
  O  O266  1  0.12320720  0.62228004  0.54790056  1
  O  O267  1  0.12390677  0.62525771  0.79825311  1
  O  O268  1  0.12425413  0.86416840  0.02881269  1
  O  O269  1  0.12315159  0.87659133  0.29761012  1
  O  O270  1  0.12461806  0.87653898  0.55205243  1
  O  O271  1  0.12568347  0.86948516  0.80370500  1
  O  O272  1  0.38144775  0.11825132  0.02291230  1
  O  O273  1  0.37101479  0.12232254  0.29694450  1
  O  O274  1  0.36308066  0.12340089  0.54284487  1
  O  O275  1  0.37168358  0.12144211  0.78975140  1
  O  O276  1  0.37810218  0.38908920  0.03561495  1
  O  O277  1  0.37879700  0.37508801  0.28073871  1
  O  O278  1  0.37570188  0.37389155  0.53706571  1
  O  O279  1  0.37391685  0.38277697  0.79729640  1
  O  O280  1  0.38716700  0.62661619  0.04000129  1
  O  O281  1  0.36681981  0.63119262  0.28047510  1
  O  O282  1  0.37245042  0.62419003  0.55130112  1
  O  O283  1  0.36965124  0.62980121  0.78534725  1
  O  O284  1  0.38267814  0.87006424  0.04342962  1
  O  O285  1  0.38148609  0.87753737  0.28695481  1
  O  O286  1  0.37207874  0.88175453  0.53936391  1
  O  O287  1  0.36995323  0.86745975  0.79519606  1
  O  O288  1  0.62684039  0.11814160  0.03077758  1
  O  O289  1  0.62862531  0.11996424  0.28087319  1
  O  O290  1  0.62885162  0.12189322  0.55050463  1
  O  O291  1  0.63362575  0.12873544  0.78703452  1
  O  O292  1  0.62522119  0.37921346  0.04538198  1
  O  O293  1  0.62216981  0.37838865  0.28376860  1
  O  O294  1  0.62120622  0.38102526  0.53844037  1
  O  O295  1  0.63379971  0.37819181  0.78459713  1
  O  O296  1  0.62119493  0.62675538  0.04830698  1
  O  O297  1  0.62954242  0.63186243  0.29974825  1
  O  O298  1  0.62830703  0.62784470  0.54989196  1
  O  O299  1  0.62621556  0.62430121  0.79530566  1
  O  O300  1  0.62350151  0.86873686  0.04607370  1
  O  O301  1  0.62382501  0.86963242  0.28854722  1
  O  O302  1  0.62802786  0.87469770  0.55459054  1
  O  O303  1  0.63076245  0.87089154  0.78115284  1
  O  O304  1  0.87502076  0.11945694  0.03269744  1
  O  O305  1  0.87308292  0.11987746  0.28082820  1
  O  O306  1  0.88435103  0.12149161  0.53943025  1
  O  O307  1  0.87645606  0.12877521  0.79814753  1
  O  O308  1  0.87037079  0.38903650  0.03831423  1
  O  O309  1  0.87386687  0.38050455  0.27785710  1
  O  O310  1  0.88175235  0.37623646  0.54978938  1
  O  O311  1  0.87446421  0.37402049  0.80203804  1
  O  O312  1  0.86979753  0.62267901  0.03636588  1
  O  O313  1  0.87325065  0.62964343  0.29726511  1
  O  O314  1  0.87665230  0.62209701  0.55124978  1
  O  O315  1  0.87717235  0.62219843  0.80053420  1
  O  O316  1  0.87221271  0.86937570  0.04287144  1
  O  O317  1  0.87821977  0.87317640  0.30022986  1
  O  O318  1  0.87943661  0.87409611  0.55832994  1
  O  O319  1  0.87742543  0.86448425  0.78185741  1
