# generated using pymatgen
data_VFe(PbO3)2
_symmetry_space_group_name_H-M   'P 1'
_cell_length_a   15.38277014
_cell_length_b   15.37805953
_cell_length_c   18.51719834
_cell_angle_alpha   89.97702567
_cell_angle_beta   89.98972415
_cell_angle_gamma   90.01251295
_symmetry_Int_Tables_number   1
_chemical_formula_structural   VFe(PbO3)2
_chemical_formula_sum   'V32 Fe32 Pb64 O192'
_cell_volume   4380.37522939
_cell_formula_units_Z   32
loop_
 _symmetry_equiv_pos_site_id
 _symmetry_equiv_pos_as_xyz
  1  'x, y, z'
loop_
 _atom_site_type_symbol
 _atom_site_label
 _atom_site_symmetry_multiplicity
 _atom_site_fract_x
 _atom_site_fract_y
 _atom_site_fract_z
 _atom_site_occupancy
  V  V0  1  0.37325939  0.12169077  0.39211952  1
  V  V1  1  0.12868685  0.62582320  0.38445687  1
  V  V2  1  0.62136253  0.87237528  0.88971715  1
  V  V3  1  0.37277413  0.87268418  0.39212574  1
  V  V4  1  0.62503500  0.87496937  0.64319981  1
  V  V5  1  0.87607076  0.62414262  0.89610519  1
  V  V6  1  0.62134773  0.62171000  0.38863168  1
  V  V7  1  0.87756987  0.12728962  0.88897993  1
  V  V8  1  0.87437934  0.62658277  0.63846073  1
  V  V9  1  0.37303693  0.87219508  0.88565007  1
  V  V10  1  0.87576280  0.37624195  0.63950653  1
  V  V11  1  0.37627961  0.37088558  0.13316355  1
  V  V12  1  0.87257702  0.87469483  0.89326364  1
  V  V13  1  0.37600118  0.87871635  0.13227526  1
  V  V14  1  0.12616474  0.12431135  0.39169657  1
  V  V15  1  0.12505819  0.37475302  0.64025653  1
  V  V16  1  0.37372565  0.62298064  0.89052771  1
  V  V17  1  0.12582860  0.37635503  0.88974496  1
  V  V18  1  0.62241694  0.87671013  0.38699287  1
  V  V19  1  0.62568306  0.37408767  0.13556754  1
  V  V20  1  0.62614499  0.12437175  0.64663297  1
  V  V21  1  0.37521011  0.62601159  0.64029905  1
  V  V22  1  0.62552316  0.37507610  0.64572565  1
  V  V23  1  0.37389893  0.12381211  0.64927324  1
  V  V24  1  0.87385582  0.12553074  0.64057612  1
  V  V25  1  0.87229881  0.87607966  0.63949564  1
  V  V26  1  0.37689897  0.87360858  0.64496939  1
  V  V27  1  0.12751871  0.12583131  0.13448417  1
  V  V28  1  0.62339521  0.87494801  0.13508255  1
  V  V29  1  0.87501171  0.12538365  0.13599753  1
  V  V30  1  0.87497537  0.37641674  0.89444218  1
  V  V31  1  0.87256000  0.12350167  0.38806857  1
  Fe  Fe32  1  0.62760959  0.62687933  0.89403420  1
  Fe  Fe33  1  0.37375337  0.12560359  0.12641138  1
  Fe  Fe34  1  0.62400466  0.37065639  0.38256132  1
  Fe  Fe35  1  0.12660801  0.37347478  0.13752840  1
  Fe  Fe36  1  0.87608372  0.87548268  0.38067644  1
  Fe  Fe37  1  0.12183301  0.62550939  0.89603535  1
  Fe  Fe38  1  0.12709947  0.62445445  0.12847275  1
  Fe  Fe39  1  0.12396920  0.87297052  0.64072695  1
  Fe  Fe40  1  0.12328570  0.12537417  0.64668031  1
  Fe  Fe41  1  0.12013177  0.12532039  0.87950548  1
  Fe  Fe42  1  0.62230857  0.62388481  0.13064332  1
  Fe  Fe43  1  0.37725044  0.37579717  0.64874288  1
  Fe  Fe44  1  0.12214235  0.87342481  0.89059131  1
  Fe  Fe45  1  0.62571060  0.62561352  0.63577647  1
  Fe  Fe46  1  0.37381919  0.12362068  0.88646008  1
  Fe  Fe47  1  0.12387920  0.62394486  0.63698376  1
  Fe  Fe48  1  0.87466625  0.37142962  0.13392665  1
  Fe  Fe49  1  0.12688557  0.87672275  0.38502307  1
  Fe  Fe50  1  0.37736262  0.62395883  0.13393147  1
  Fe  Fe51  1  0.87638787  0.62698296  0.37842741  1
  Fe  Fe52  1  0.62716162  0.37824681  0.88374473  1
  Fe  Fe53  1  0.12625156  0.87752841  0.12989225  1
  Fe  Fe54  1  0.87236789  0.62495710  0.13597751  1
  Fe  Fe55  1  0.37360568  0.37458161  0.38702319  1
  Fe  Fe56  1  0.87663623  0.37441105  0.38245026  1
  Fe  Fe57  1  0.62413917  0.12572402  0.13028472  1
  Fe  Fe58  1  0.87296651  0.87916912  0.13787460  1
  Fe  Fe59  1  0.62072441  0.12320633  0.38448161  1
  Fe  Fe60  1  0.37608723  0.37763907  0.87642664  1
  Fe  Fe61  1  0.37469176  0.62733751  0.38318506  1
  Fe  Fe62  1  0.12693928  0.37392713  0.38065610  1
  Fe  Fe63  1  0.63004055  0.12352836  0.88997177  1
  Pb  Pb64  1  0.00277906  -0.00820214  0.00092665  1
  Pb  Pb65  1  0.00141590  -0.00984084  0.24832150  1
  Pb  Pb66  1  0.00809686  -0.00294130  0.50270589  1
  Pb  Pb67  1  0.00611559  -0.00396082  0.75196527  1
  Pb  Pb68  1  0.00295850  0.26098962  0.00570064  1
  Pb  Pb69  1  0.00006204  0.25784791  0.24815153  1
  Pb  Pb70  1  0.00591211  0.24727445  0.49859356  1
  Pb  Pb71  1  0.00104038  0.24811667  0.75103952  1
  Pb  Pb72  1  0.00023765  0.49186894  0.01106732  1
  Pb  Pb73  1  -0.00192483  0.50130688  0.23833244  1
  Pb  Pb74  1  0.00273954  0.50266251  0.48968067  1
  Pb  Pb75  1  0.00377202  0.50570631  0.75253402  1
  Pb  Pb76  1  0.00094300  0.74794840  0.00664396  1
  Pb  Pb77  1  -0.00130320  0.75197595  0.23771485  1
  Pb  Pb78  1  0.00204305  0.75306374  0.49281752  1
  Pb  Pb79  1  0.01009150  0.74925973  0.75635135  1
  Pb  Pb80  1  0.24345508  0.00123939  -0.00811475  1
  Pb  Pb81  1  0.24445870  -0.00359030  0.24612094  1
  Pb  Pb82  1  0.23929628  0.00110648  0.51116931  1
  Pb  Pb83  1  0.24116144  -0.00182764  0.75524397  1
  Pb  Pb84  1  0.25464072  0.24629821  -0.00948465  1
  Pb  Pb85  1  0.25457237  0.26002420  0.25097486  1
  Pb  Pb86  1  0.25368566  0.25482803  0.50481983  1
  Pb  Pb87  1  0.26084983  0.24858736  0.75783869  1
  Pb  Pb88  1  0.24125368  0.50093352  0.00326491  1
  Pb  Pb89  1  0.25195392  0.49959940  0.24345237  1
  Pb  Pb90  1  0.25410566  0.49709984  0.49712448  1
  Pb  Pb91  1  0.25259929  0.50085585  0.75063264  1
  Pb  Pb92  1  0.24253661  0.74619141  0.00263578  1
  Pb  Pb93  1  0.24688114  0.74745389  0.24055665  1
  Pb  Pb94  1  0.23577539  0.74804543  0.50540335  1
  Pb  Pb95  1  0.23606655  0.74809105  0.75623872  1
  Pb  Pb96  1  0.50092550  0.01328681  -0.00125818  1
  Pb  Pb97  1  0.50189039  0.00920728  0.24401687  1
  Pb  Pb98  1  0.49721366  -0.00150404  0.50202768  1
  Pb  Pb99  1  0.49895203  0.00681240  0.75920688  1
  Pb  Pb100  1  0.50019279  0.24819400  -0.01234723  1
  Pb  Pb101  1  0.50478243  0.24981360  0.24685060  1
  Pb  Pb102  1  0.49719218  0.25495043  0.50141186  1
  Pb  Pb103  1  0.50206116  0.24227348  0.76164976  1
  Pb  Pb104  1  0.50255225  0.50404373  -0.00462367  1
  Pb  Pb105  1  0.49240615  0.49702708  0.24761347  1
  Pb  Pb106  1  0.49203348  0.49149003  0.50063189  1
  Pb  Pb107  1  0.51144498  0.50054817  0.75560888  1
  Pb  Pb108  1  0.49746628  0.74068354  0.00451903  1
  Pb  Pb109  1  0.49498031  0.74371614  0.24664158  1
  Pb  Pb110  1  0.50487194  0.74329655  0.50308918  1
  Pb  Pb111  1  0.50352107  0.74190423  0.75338121  1
  Pb  Pb112  1  0.75368120  -0.00420896  0.00327196  1
  Pb  Pb113  1  0.74640315  0.00328998  0.24675047  1
  Pb  Pb114  1  0.75040628  -0.00299083  0.49619709  1
  Pb  Pb115  1  0.74785933  0.00410520  0.75474825  1
  Pb  Pb116  1  0.74595273  0.25018252  -0.00125474  1
  Pb  Pb117  1  0.74572648  0.25709998  0.25066069  1
  Pb  Pb118  1  0.74595665  0.25267090  0.49601064  1
  Pb  Pb119  1  0.74407811  0.25375482  0.75614012  1
  Pb  Pb120  1  0.75168918  0.50787143  0.00424686  1
  Pb  Pb121  1  0.75661215  0.50103048  0.24543880  1
  Pb  Pb122  1  0.75146415  0.49981373  0.49207652  1
  Pb  Pb123  1  0.74550835  0.49958950  0.75479532  1
  Pb  Pb124  1  0.76030037  0.74988543  0.00929254  1
  Pb  Pb125  1  0.75929431  0.74614189  0.24655714  1
  Pb  Pb126  1  0.74798378  0.74717087  0.49427196  1
  Pb  Pb127  1  0.74696165  0.74182662  0.75300891  1
  O  O128  1  0.12614620  0.00784302  0.16233471  1
  O  O129  1  0.12877219  0.00567941  0.41923178  1
  O  O130  1  0.12451338  -0.00280861  0.66906737  1
  O  O131  1  0.12110352  0.00035446  0.90998594  1
  O  O132  1  0.12469610  0.24058375  0.16086176  1
  O  O133  1  0.12823210  0.24112123  0.41604668  1
  O  O134  1  0.12109695  0.25813565  0.66586047  1
  O  O135  1  0.12028033  0.25639793  0.90857747  1
  O  O136  1  0.12849896  0.49948358  0.16007441  1
  O  O137  1  0.12737550  0.50611100  0.40618203  1
  O  O138  1  0.12189046  0.49579062  0.66579297  1
  O  O139  1  0.12177566  0.49482518  0.91616114  1
  O  O140  1  0.12798189  0.75204336  0.15487363  1
  O  O141  1  0.12787828  0.74754168  0.41173859  1
  O  O142  1  0.12330644  0.74796614  0.66883392  1
  O  O143  1  0.12392442  0.75059751  0.91868398  1
  O  O144  1  0.37507268  -0.00413687  0.15772900  1
  O  O145  1  0.37398109  0.00107783  0.42103508  1
  O  O146  1  0.37929744  0.00161653  0.67097688  1
  O  O147  1  0.37875862  -0.01085610  0.90803165  1
  O  O148  1  0.37628759  0.25365005  0.15684898  1
  O  O149  1  0.37201680  0.23974933  0.41766198  1
  O  O150  1  0.37763677  0.24366969  0.66880869  1
  O  O151  1  0.37213942  0.25337396  0.90569841  1
  O  O152  1  0.37761717  0.49093341  0.15852605  1
  O  O153  1  0.37540275  0.50281730  0.41646677  1
  O  O154  1  0.37552999  0.50867365  0.66658563  1
  O  O155  1  0.37418872  0.50612052  0.90727838  1
  O  O156  1  0.37864623  0.76082193  0.15898351  1
  O  O157  1  0.37737590  0.75744793  0.41333684  1
  O  O158  1  0.37928270  0.74551637  0.66653938  1
  O  O159  1  0.37800556  0.75417241  0.91398088  1
  O  O160  1  0.62221907  -0.00390847  0.16199143  1
  O  O161  1  0.62198102  -0.00179336  0.41872315  1
  O  O162  1  0.62660366  -0.00061668  0.67187156  1
  O  O163  1  0.62965560  -0.01000044  0.91327128  1
  O  O164  1  0.62107240  0.25419051  0.15987229  1
  O  O165  1  0.62391972  0.24530776  0.41885610  1
  O  O166  1  0.62832268  0.25186588  0.66957004  1
  O  O167  1  0.63138014  0.25118826  0.91061184  1
  O  O168  1  0.62181598  0.49033980  0.15805684  1
  O  O169  1  0.62304680  0.50486279  0.40726661  1
  O  O170  1  0.62839566  0.49634013  0.66439871  1
  O  O171  1  0.62837446  0.50163102  0.91554619  1
  O  O172  1  0.61894712  0.75887298  0.15695010  1
  O  O173  1  0.62200084  0.75302274  0.41546959  1
  O  O174  1  0.62622761  0.75248477  0.66840372  1
  O  O175  1  0.62962476  0.75817204  0.91682581  1
  O  O176  1  0.87352730  0.00886637  0.16427151  1
  O  O177  1  0.87741973  0.00720781  0.41603099  1
  O  O178  1  0.87046278  0.00004141  0.66703090  1
  O  O179  1  0.87451904  -0.00230888  0.91194446  1
  O  O180  1  0.87607177  0.24113252  0.16164667  1
  O  O181  1  0.87867590  0.23916462  0.41562417  1
  O  O182  1  0.87383394  0.25246775  0.66676564  1
  O  O183  1  0.87614606  0.24564881  0.91089078  1
  O  O184  1  0.87076097  0.49658877  0.15858349  1
  O  O185  1  0.87440109  0.50260264  0.41168380  1
  O  O186  1  0.87438657  0.50184890  0.66595085  1
  O  O187  1  0.87660170  0.50425642  0.91528612  1
  O  O188  1  0.87136064  0.75333912  0.16007355  1
  O  O189  1  0.87307592  0.75006539  0.41126743  1
  O  O190  1  0.87047115  0.74491190  0.66106179  1
  O  O191  1  0.87297244  0.75266968  0.91719741  1
  O  O192  1  0.00047503  0.12377604  0.15974331  1
  O  O193  1  0.00513302  0.12296247  0.41258998  1
  O  O194  1  -0.00804287  0.12566870  0.66698492  1
  O  O195  1  -0.00762193  0.12298421  0.91344033  1
  O  O196  1  0.00011652  0.37020455  0.16262633  1
  O  O197  1  0.00287206  0.37136624  0.41308523  1
  O  O198  1  0.00009173  0.37702808  0.66719454  1
  O  O199  1  0.00027695  0.37632746  0.91804355  1
  O  O200  1  0.00097648  0.62488305  0.15619022  1
  O  O201  1  0.00782280  0.62722417  0.40659670  1
  O  O202  1  -0.00858784  0.62422946  0.66483564  1
  O  O203  1  -0.00827435  0.62867221  0.91917957  1
  O  O204  1  0.00094406  0.88093664  0.15819351  1
  O  O205  1  0.00155914  0.87843714  0.41309420  1
  O  O206  1  -0.00939214  0.87309856  0.66339929  1
  O  O207  1  -0.00941971  0.87322487  0.91524508  1
  O  O208  1  0.24522852  0.12426413  0.15642728  1
  O  O209  1  0.25132844  0.12187151  0.41865809  1
  O  O210  1  0.25626230  0.12390342  0.66725470  1
  O  O211  1  0.24595837  0.12428903  0.90581067  1
  O  O212  1  0.25765403  0.37138638  0.15827611  1
  O  O213  1  0.24835687  0.37202802  0.42024891  1
  O  O214  1  0.24123829  0.37608134  0.66361234  1
  O  O215  1  0.24338454  0.37805970  0.90772250  1
  O  O216  1  0.25334782  0.62588369  0.16017457  1
  O  O217  1  0.24621444  0.62786195  0.41176453  1
  O  O218  1  0.25613808  0.62665463  0.66374780  1
  O  O219  1  0.25703828  0.62828203  0.91267780  1
  O  O220  1  0.25744184  0.87844032  0.15698338  1
  O  O221  1  0.25755236  0.87834373  0.41625899  1
  O  O222  1  0.25765001  0.87393715  0.66851849  1
  O  O223  1  0.25716571  0.87313328  0.90579888  1
  O  O224  1  0.49774494  0.12409232  0.15903791  1
  O  O225  1  0.49100692  0.12173462  0.41633766  1
  O  O226  1  0.50184677  0.12502276  0.67189350  1
  O  O227  1  0.50200332  0.12202984  0.90907887  1
  O  O228  1  0.49809573  0.37207942  0.15792864  1
  O  O229  1  0.49946869  0.37209203  0.41792881  1
  O  O230  1  0.50922605  0.37528139  0.66650384  1
  O  O231  1  0.49953055  0.37747286  0.90333181  1
  O  O232  1  0.50124982  0.62430886  0.16643391  1
  O  O233  1  0.50419806  0.62951868  0.41527625  1
  O  O234  1  0.49695452  0.62446831  0.66609059  1
  O  O235  1  0.49455379  0.62983667  0.91230135  1
  O  O236  1  0.49866760  0.87988036  0.15936516  1
  O  O237  1  0.49608261  0.87892098  0.41935434  1
  O  O238  1  0.50159911  0.87462421  0.67175955  1
  O  O239  1  0.50395006  0.87267212  0.90802998  1
  O  O240  1  0.75469163  0.12504628  0.15777621  1
  O  O241  1  0.75527995  0.12243499  0.41028175  1
  O  O242  1  0.75094283  0.12593154  0.67081721  1
  O  O243  1  0.76050652  0.12161253  0.91535707  1
  O  O244  1  0.74361554  0.36852788  0.15623332  1
  O  O245  1  0.75051019  0.37227578  0.41616969  1
  O  O246  1  0.75053838  0.37543114  0.66785085  1
  O  O247  1  0.75683920  0.37633262  0.91668412  1
  O  O248  1  0.74314368  0.62531987  0.16293756  1
  O  O249  1  0.74092039  0.62806296  0.41025269  1
  O  O250  1  0.75545097  0.62319720  0.66508729  1
  O  O251  1  0.75759097  0.62783409  0.91746465  1
  O  O252  1  0.73964220  0.87904478  0.16005046  1
  O  O253  1  0.74557771  0.87904119  0.41275825  1
  O  O254  1  0.74989008  0.87408879  0.67121924  1
  O  O255  1  0.75253851  0.87498303  0.91596984  1
  O  O256  1  0.12551809  0.12353325  0.04304111  1
  O  O257  1  0.13019638  0.12251003  0.30130547  1
  O  O258  1  0.12428335  0.12062274  0.54610680  1
  O  O259  1  0.11679468  0.12457821  0.77832718  1
  O  O260  1  0.12084042  0.37506790  0.03607202  1
  O  O261  1  0.13373558  0.36461552  0.28084559  1
  O  O262  1  0.12214813  0.37408678  0.54906141  1
  O  O263  1  0.11982939  0.38026783  0.79865196  1
  O  O264  1  0.13288504  0.62287609  0.02580985  1
  O  O265  1  0.13140471  0.62975526  0.29374500  1
  O  O266  1  0.12543224  0.63103485  0.53797047  1
  O  O267  1  0.11816379  0.62819501  0.79380069  1
  O  O268  1  0.12625330  0.88414565  0.02891894  1
  O  O269  1  0.13109803  0.88579923  0.28543806  1
  O  O270  1  0.12867995  0.87493668  0.53959793  1
  O  O271  1  0.12009781  0.86857574  0.78784661  1
  O  O272  1  0.37535623  0.12476201  0.02605154  1
  O  O273  1  0.37189922  0.12064138  0.30137668  1
  O  O274  1  0.37804315  0.12209544  0.55815417  1
  O  O275  1  0.38099083  0.12673111  0.78465896  1
  O  O276  1  0.37531155  0.37282122  0.04212300  1
  O  O277  1  0.37054859  0.37069500  0.28740205  1
  O  O278  1  0.37744033  0.37522597  0.54752245  1
  O  O279  1  0.36612183  0.37735946  0.77438617  1
  O  O280  1  0.38297980  0.62770344  0.03348752  1
  O  O281  1  0.38060860  0.62674609  0.28376594  1
  O  O282  1  0.37691397  0.62738806  0.54906401  1
  O  O283  1  0.37566776  0.62819474  0.79920819  1
  O  O284  1  0.37690612  0.87715315  0.04138932  1
  O  O285  1  0.37550282  0.87812666  0.30163343  1
  O  O286  1  0.37912334  0.87624758  0.55422269  1
  O  O287  1  0.37742860  0.86948140  0.79458513  1
  O  O288  1  0.62454331  0.12337478  0.02959300  1
  O  O289  1  0.61927838  0.12157127  0.28505626  1
  O  O290  1  0.62528993  0.12351612  0.55607129  1
  O  O291  1  0.62974307  0.12403657  0.78821269  1
  O  O292  1  0.62441550  0.37220702  0.04428144  1
  O  O293  1  0.62507390  0.36419390  0.28308035  1
  O  O294  1  0.62889223  0.37122596  0.55445916  1
  O  O295  1  0.63421851  0.38156436  0.78262199  1
  O  O296  1  0.61815695  0.62320533  0.02947637  1
  O  O297  1  0.61869085  0.62858825  0.29810392  1
  O  O298  1  0.62372569  0.63169838  0.53699857  1
  O  O299  1  0.62806226  0.62625085  0.79194270  1
  O  O300  1  0.62371973  0.87837409  0.04402714  1
  O  O301  1  0.61998381  0.87755098  0.29625790  1
  O  O302  1  0.62559438  0.87678158  0.55372729  1
  O  O303  1  0.62734584  0.87079577  0.79835331  1
  O  O304  1  0.87657371  0.12383510  0.04486916  1
  O  O305  1  0.87505938  0.12372261  0.29743264  1
  O  O306  1  0.87309111  0.12462608  0.54972801  1
  O  O307  1  0.87605388  0.12512930  0.79780267  1
  O  O308  1  0.88422612  0.37038068  0.03273248  1
  O  O309  1  0.87010186  0.36585095  0.28276402  1
  O  O310  1  0.87575421  0.37618643  0.54882721  1
  O  O311  1  0.87822626  0.37777259  0.80301403  1
  O  O312  1  0.86736413  0.62930170  0.03441920  1
  O  O313  1  0.86840769  0.62621542  0.27840923  1
  O  O314  1  0.87448077  0.62375263  0.54766398  1
  O  O315  1  0.87526848  0.62683413  0.80458620  1
  O  O316  1  0.86770244  0.88083293  0.03666093  1
  O  O317  1  0.87366926  0.88092074  0.28072137  1
  O  O318  1  0.86817910  0.87843010  0.54887840  1
  O  O319  1  0.87182036  0.87175616  0.80227469  1
