# generated using pymatgen
data_VFe(PbO3)2
_symmetry_space_group_name_H-M   'P 1'
_cell_length_a   15.38589027
_cell_length_b   15.38754284
_cell_length_c   18.50926646
_cell_angle_alpha   90.05456317
_cell_angle_beta   89.97349578
_cell_angle_gamma   90.01972382
_symmetry_Int_Tables_number   1
_chemical_formula_structural   VFe(PbO3)2
_chemical_formula_sum   'V32 Fe32 Pb64 O192'
_cell_volume   4382.08547376
_cell_formula_units_Z   32
loop_
 _symmetry_equiv_pos_site_id
 _symmetry_equiv_pos_as_xyz
  1  'x, y, z'
loop_
 _atom_site_type_symbol
 _atom_site_label
 _atom_site_symmetry_multiplicity
 _atom_site_fract_x
 _atom_site_fract_y
 _atom_site_fract_z
 _atom_site_occupancy
  V  V0  1  0.37332555  0.62071672  0.14296362  1
  V  V1  1  0.87449401  0.62586681  0.63139081  1
  V  V2  1  0.62324862  0.87629322  0.39231566  1
  V  V3  1  0.12219743  0.62475375  0.88892719  1
  V  V4  1  0.87481343  0.37427940  0.14190318  1
  V  V5  1  0.12188180  0.12168897  0.39495794  1
  V  V6  1  0.12215697  0.87477288  0.63652053  1
  V  V7  1  0.12170461  0.87373554  0.88844897  1
  V  V8  1  0.62643889  0.62533984  0.89249529  1
  V  V9  1  0.87541137  0.37815768  0.88960377  1
  V  V10  1  0.62632731  0.62635180  0.38996104  1
  V  V11  1  0.12511361  0.37591422  0.14519532  1
  V  V12  1  0.62699251  0.37695969  0.88892084  1
  V  V13  1  0.62531340  0.62389952  0.63443481  1
  V  V14  1  0.87536530  0.37600144  0.39331357  1
  V  V15  1  0.87430440  0.62415226  0.89065884  1
  V  V16  1  0.12527615  0.87530435  0.14219101  1
  V  V17  1  0.37419985  0.87539774  0.13539027  1
  V  V18  1  0.87570047  0.87436415  0.89485509  1
  V  V19  1  0.37420168  0.37326813  0.14059136  1
  V  V20  1  0.87608835  0.87639963  0.38916672  1
  V  V21  1  0.37473238  0.12788591  0.39668400  1
  V  V22  1  0.87057724  0.12345018  0.38919972  1
  V  V23  1  0.87644131  0.62619969  0.14996171  1
  V  V24  1  0.37476155  0.37731253  0.39406358  1
  V  V25  1  0.37195235  0.12681951  0.13702187  1
  V  V26  1  0.37760823  0.62841025  0.39662229  1
  V  V27  1  0.37725760  0.37546424  0.63190724  1
  V  V28  1  0.37416991  0.87844266  0.39607103  1
  V  V29  1  0.87498484  0.12364144  0.63408253  1
  V  V30  1  0.62419937  0.37597270  0.14299697  1
  V  V31  1  0.36941889  0.38024327  0.88606215  1
  Fe  Fe32  1  0.87512261  0.87582958  0.13311990  1
  Fe  Fe33  1  0.62212032  0.37362369  0.39441516  1
  Fe  Fe34  1  0.87294040  0.37372533  0.62606290  1
  Fe  Fe35  1  0.12736496  0.62336545  0.14834520  1
  Fe  Fe36  1  0.37412600  0.12546090  0.64358921  1
  Fe  Fe37  1  0.37498344  0.62225603  0.88415971  1
  Fe  Fe38  1  0.12226559  0.12960207  0.87923771  1
  Fe  Fe39  1  0.12842827  0.12764979  0.13579557  1
  Fe  Fe40  1  0.37528534  0.62360541  0.62793578  1
  Fe  Fe41  1  0.62926850  0.87338935  0.64016635  1
  Fe  Fe42  1  0.12329358  0.62749194  0.62597708  1
  Fe  Fe43  1  0.62313756  0.62284232  0.13759221  1
  Fe  Fe44  1  0.12450972  0.62822910  0.38772318  1
  Fe  Fe45  1  0.12343131  0.37598800  0.62602060  1
  Fe  Fe46  1  0.12782036  0.87812448  0.38508614  1
  Fe  Fe47  1  0.12341281  0.12268965  0.64036411  1
  Fe  Fe48  1  0.62214497  0.12140474  0.39599706  1
  Fe  Fe49  1  0.87513299  0.12846995  0.88846470  1
  Fe  Fe50  1  0.87761445  0.12908636  0.13445956  1
  Fe  Fe51  1  0.62719921  0.12580437  0.62827438  1
  Fe  Fe52  1  0.62352022  0.87325921  0.13145521  1
  Fe  Fe53  1  0.87639522  0.87551476  0.63321698  1
  Fe  Fe54  1  0.87106803  0.62739865  0.38228219  1
  Fe  Fe55  1  0.37329781  0.87007313  0.87892640  1
  Fe  Fe56  1  0.37597904  0.12514607  0.87456505  1
  Fe  Fe57  1  0.37435455  0.87260996  0.63921451  1
  Fe  Fe58  1  0.12036085  0.38000523  0.88026721  1
  Fe  Fe59  1  0.62215961  0.12658269  0.13331767  1
  Fe  Fe60  1  0.12852614  0.37114464  0.39935200  1
  Fe  Fe61  1  0.62658814  0.12660568  0.88362738  1
  Fe  Fe62  1  0.62599100  0.37624657  0.62874494  1
  Fe  Fe63  1  0.62674475  0.87307056  0.88201347  1
  Pb  Pb64  1  -0.00295378  0.01079612  0.00199813  1
  Pb  Pb65  1  -0.00241592  0.00491132  0.24440215  1
  Pb  Pb66  1  -0.00087132  -0.00012742  0.50300872  1
  Pb  Pb67  1  -0.00624099  0.01342468  0.75381526  1
  Pb  Pb68  1  0.00400157  0.24286579  0.00034813  1
  Pb  Pb69  1  0.00471611  0.25469190  0.25408195  1
  Pb  Pb70  1  0.00057475  0.25451418  0.50515542  1
  Pb  Pb71  1  0.00321341  0.25101363  0.74371253  1
  Pb  Pb72  1  0.00398310  0.50740621  0.00498332  1
  Pb  Pb73  1  0.00148045  0.50627240  0.26192761  1
  Pb  Pb74  1  0.00786901  0.50286283  0.49630658  1
  Pb  Pb75  1  0.00580184  0.49248277  0.73824620  1
  Pb  Pb76  1  -0.00337116  0.75182098  0.00687856  1
  Pb  Pb77  1  0.00962832  0.75071228  0.25697748  1
  Pb  Pb78  1  0.00408001  0.74686082  0.49331450  1
  Pb  Pb79  1  0.00143884  0.74957833  0.74359308  1
  Pb  Pb80  1  0.25091641  0.00541434  -0.01245847  1
  Pb  Pb81  1  0.24997960  -0.00355006  0.24936588  1
  Pb  Pb82  1  0.25199491  0.00751228  0.51295504  1
  Pb  Pb83  1  0.25617018  0.00095352  0.74677075  1
  Pb  Pb84  1  0.24245388  0.24506780  -0.00901276  1
  Pb  Pb85  1  0.24861932  0.25663292  0.25661087  1
  Pb  Pb86  1  0.24914833  0.23557290  0.51277887  1
  Pb  Pb87  1  0.24373504  0.24894456  0.74308525  1
  Pb  Pb88  1  0.24221628  0.50669428  0.00274582  1
  Pb  Pb89  1  0.24192969  0.49749144  0.26195038  1
  Pb  Pb90  1  0.24229507  0.50564559  0.50063139  1
  Pb  Pb91  1  0.24515482  0.50187580  0.73767597  1
  Pb  Pb92  1  0.24878495  0.74478427  -0.00274347  1
  Pb  Pb93  1  0.24580798  0.75130020  0.25658195  1
  Pb  Pb94  1  0.25205085  0.74863343  0.50098860  1
  Pb  Pb95  1  0.26005614  0.74312347  0.74425777  1
  Pb  Pb96  1  0.50323099  -0.00137898  -0.01359949  1
  Pb  Pb97  1  0.50604275  0.00673107  0.24686460  1
  Pb  Pb98  1  0.49064660  -0.00472864  0.51277859  1
  Pb  Pb99  1  0.50374478  0.00302837  0.74164343  1
  Pb  Pb100  1  0.50228716  0.24471721  -0.00569445  1
  Pb  Pb101  1  0.51102866  0.24755640  0.25922380  1
  Pb  Pb102  1  0.50859716  0.24292504  0.50590471  1
  Pb  Pb103  1  0.50784482  0.24056950  0.74375203  1
  Pb  Pb104  1  0.50540062  0.50345504  0.00277423  1
  Pb  Pb105  1  0.50368248  0.49093561  0.25540381  1
  Pb  Pb106  1  0.49942538  0.50338288  0.50194130  1
  Pb  Pb107  1  0.49197359  0.50406349  0.74640323  1
  Pb  Pb108  1  0.50296792  0.75658879  -0.00518168  1
  Pb  Pb109  1  0.49873908  0.75106726  0.24550156  1
  Pb  Pb110  1  0.49630174  0.75819753  0.50868907  1
  Pb  Pb111  1  0.49585439  0.75966954  0.74774033  1
  Pb  Pb112  1  0.74051339  0.00468697  -0.00131246  1
  Pb  Pb113  1  0.74622290  0.00359069  0.23948141  1
  Pb  Pb114  1  0.74414748  -0.01000790  0.50701672  1
  Pb  Pb115  1  0.74203929  0.00147121  0.74759869  1
  Pb  Pb116  1  0.75004345  0.24094573  0.00212347  1
  Pb  Pb117  1  0.74191887  0.24576359  0.25141927  1
  Pb  Pb118  1  0.74416471  0.24937405  0.50077284  1
  Pb  Pb119  1  0.74959767  0.24319651  0.74419089  1
  Pb  Pb120  1  0.74703101  0.50512066  0.00539437  1
  Pb  Pb121  1  0.75287794  0.49928357  0.25526268  1
  Pb  Pb122  1  0.75033925  0.49062505  0.49988221  1
  Pb  Pb123  1  0.75215028  0.49626166  0.74223806  1
  Pb  Pb124  1  0.74895208  0.75885571  0.00648668  1
  Pb  Pb125  1  0.74952862  0.75182506  0.24670243  1
  Pb  Pb126  1  0.74926970  0.76026776  0.50287819  1
  Pb  Pb127  1  0.74777805  0.75449219  0.74932888  1
  O  O128  1  0.12986318  -0.00494132  0.16244305  1
  O  O129  1  0.12767435  0.00370549  0.41777956  1
  O  O130  1  0.12187176  -0.00960825  0.66368282  1
  O  O131  1  0.12152817  -0.00813883  0.90764234  1
  O  O132  1  0.12897017  0.25806084  0.16822202  1
  O  O133  1  0.12813847  0.23777506  0.41909894  1
  O  O134  1  0.12343116  0.25236239  0.65645178  1
  O  O135  1  0.12307368  0.25650050  0.90997502  1
  O  O136  1  0.12711529  0.49311479  0.17387730  1
  O  O137  1  0.12627089  0.50046960  0.41051232  1
  O  O138  1  0.12177806  0.50200323  0.65463950  1
  O  O139  1  0.12195717  0.50304825  0.91862873  1
  O  O140  1  0.12840812  0.75409466  0.16713516  1
  O  O141  1  0.12511127  0.75525664  0.41367786  1
  O  O142  1  0.12062951  0.75357635  0.66054892  1
  O  O143  1  0.12143894  0.74850400  0.91821602  1
  O  O144  1  0.37141991  -0.00038181  0.16268520  1
  O  O145  1  0.37542714  -0.00252011  0.41958356  1
  O  O146  1  0.37314855  -0.00294904  0.66370426  1
  O  O147  1  0.37095547  -0.00201875  0.90463631  1
  O  O148  1  0.37214730  0.25340743  0.16514800  1
  O  O149  1  0.37379759  0.24484298  0.41572505  1
  O  O150  1  0.37417303  0.26082284  0.65902026  1
  O  O151  1  0.37934294  0.26434299  0.90944602  1
  O  O152  1  0.37329633  0.50119599  0.16917253  1
  O  O153  1  0.37795481  0.49723489  0.41260646  1
  O  O154  1  0.37775490  0.49595951  0.65907091  1
  O  O155  1  0.38013313  0.49496721  0.91819202  1
  O  O156  1  0.37344299  0.74637750  0.16335277  1
  O  O157  1  0.37944391  0.75491026  0.41676835  1
  O  O158  1  0.37512318  0.74562804  0.65973737  1
  O  O159  1  0.37217021  0.74574704  0.91582530  1
  O  O160  1  0.62117127  0.00018082  0.16092701  1
  O  O161  1  0.62356828  -0.00742527  0.41644066  1
  O  O162  1  0.62975034  0.00155866  0.65885046  1
  O  O163  1  0.62845221  -0.00112191  0.90836127  1
  O  O164  1  0.62030862  0.25408864  0.16773017  1
  O  O165  1  0.62132157  0.24812954  0.41707266  1
  O  O166  1  0.62798287  0.25195700  0.65624904  1
  O  O167  1  0.62747983  0.26066959  0.91127630  1
  O  O168  1  0.62368713  0.49714972  0.17044732  1
  O  O169  1  0.62431387  0.50707990  0.41142110  1
  O  O170  1  0.62865530  0.50651665  0.66078562  1
  O  O171  1  0.62890278  0.50079576  0.91945902  1
  O  O172  1  0.62257818  0.74743264  0.16579686  1
  O  O173  1  0.62553767  0.75175534  0.41544801  1
  O  O174  1  0.63016299  0.73874470  0.66281137  1
  O  O175  1  0.62876355  0.74202846  0.91104543  1
  O  O176  1  0.87833691  0.00118530  0.16166828  1
  O  O177  1  0.87538994  0.00294548  0.41538487  1
  O  O178  1  0.87506442  0.00536746  0.66097617  1
  O  O179  1  0.87899104  -0.00934587  0.91213217  1
  O  O180  1  0.87796235  0.25704458  0.17000035  1
  O  O181  1  0.87822559  0.24021641  0.41430933  1
  O  O182  1  0.87592038  0.24351881  0.65489012  1
  O  O183  1  0.87193590  0.26311591  0.91189690  1
  O  O184  1  0.87634588  0.49560123  0.17307019  1
  O  O185  1  0.87257105  0.49387187  0.40680808  1
  O  O186  1  0.87246852  0.50823227  0.65544583  1
  O  O187  1  0.87114482  0.50055554  0.92054278  1
  O  O188  1  0.87765654  0.74424120  0.16548588  1
  O  O189  1  0.87161060  0.75918956  0.40689305  1
  O  O190  1  0.87358928  0.74243001  0.66001253  1
  O  O191  1  0.87827920  0.74670822  0.91996620  1
  O  O192  1  0.00506268  0.12871357  0.16734433  1
  O  O193  1  0.00241823  0.12082130  0.41399066  1
  O  O194  1  -0.00634094  0.12317043  0.66086496  1
  O  O195  1  0.00018032  0.12638055  0.91622706  1
  O  O196  1  0.00546884  0.37574076  0.16721202  1
  O  O197  1  -0.00625567  0.36754788  0.41320282  1
  O  O198  1  -0.00403940  0.37704741  0.65519410  1
  O  O199  1  -0.00948430  0.38297131  0.91076915  1
  O  O200  1  -0.00362453  0.62052006  0.17157196  1
  O  O201  1  -0.00511724  0.62741989  0.40850858  1
  O  O202  1  -0.00757723  0.62615498  0.65411856  1
  O  O203  1  -0.00207144  0.62269194  0.92092918  1
  O  O204  1  0.00759590  0.87306081  0.16186617  1
  O  O205  1  -0.00635522  0.88063623  0.40939864  1
  O  O206  1  0.00227906  0.87195627  0.66409579  1
  O  O207  1  0.00272419  0.86921140  0.92032919  1
  O  O208  1  0.25345042  0.12694579  0.16840096  1
  O  O209  1  0.25262366  0.12027099  0.41965595  1
  O  O210  1  0.24780488  0.12522637  0.66634626  1
  O  O211  1  0.24992365  0.12907440  0.90603856  1
  O  O212  1  0.24888516  0.37715231  0.17122987  1
  O  O213  1  0.26096545  0.37213504  0.41969319  1
  O  O214  1  0.25605209  0.37930651  0.65432801  1
  O  O215  1  0.25439726  0.38117354  0.90388913  1
  O  O216  1  0.25778519  0.62295903  0.17244949  1
  O  O217  1  0.25558148  0.62825726  0.41305124  1
  O  O218  1  0.24877319  0.62270320  0.65184741  1
  O  O219  1  0.24503926  0.62145600  0.91495881  1
  O  O220  1  0.25110130  0.87317202  0.16831880  1
  O  O221  1  0.25747829  0.87444884  0.41409936  1
  O  O222  1  0.23973812  0.87155365  0.65988182  1
  O  O223  1  0.23913674  0.86996581  0.91088672  1
  O  O224  1  0.49158027  0.12669009  0.16410662  1
  O  O225  1  0.49027232  0.11968456  0.41993747  1
  O  O226  1  0.50158502  0.12688426  0.65704589  1
  O  O227  1  0.49868240  0.12958704  0.90964222  1
  O  O228  1  0.49748919  0.37817325  0.16803784  1
  O  O229  1  0.49071942  0.37221301  0.41904249  1
  O  O230  1  0.49657190  0.37862881  0.65664129  1
  O  O231  1  0.50944950  0.38064349  0.91325910  1
  O  O232  1  0.49126214  0.62255897  0.16693810  1
  O  O233  1  0.50759090  0.62842147  0.41786946  1
  O  O234  1  0.50828094  0.62258198  0.65490439  1
  O  O235  1  0.50794003  0.62135513  0.91275601  1
  O  O236  1  0.49319801  0.87339569  0.16238477  1
  O  O237  1  0.49886593  0.87535564  0.41971238  1
  O  O238  1  0.50336087  0.87083655  0.66131979  1
  O  O239  1  0.50011515  0.86983418  0.90782184  1
  O  O240  1  0.74952758  0.13008992  0.16214921  1
  O  O241  1  0.75612132  0.12313457  0.40731928  1
  O  O242  1  0.75708612  0.12559478  0.65747353  1
  O  O243  1  0.75112961  0.12809438  0.91622638  1
  O  O244  1  0.74895686  0.37426026  0.16709862  1
  O  O245  1  0.75527012  0.36916484  0.41134741  1
  O  O246  1  0.75104862  0.37787714  0.66134801  1
  O  O247  1  0.74756090  0.38105768  0.91680179  1
  O  O248  1  0.75509404  0.62052244  0.16666408  1
  O  O249  1  0.74325225  0.62771849  0.41225113  1
  O  O250  1  0.75193423  0.62426187  0.66042422  1
  O  O251  1  0.74967679  0.62324028  0.91917618  1
  O  O252  1  0.75022353  0.87278838  0.16284829  1
  O  O253  1  0.75145960  0.87854403  0.41352969  1
  O  O254  1  0.75554599  0.87225131  0.66854712  1
  O  O255  1  0.75822281  0.86820815  0.91149904  1
  O  O256  1  0.12676799  0.13325891  0.03586598  1
  O  O257  1  0.12677891  0.12298857  0.30370347  1
  O  O258  1  0.13103448  0.11768541  0.53889444  1
  O  O259  1  0.11332852  0.12863879  0.77878075  1
  O  O260  1  0.12768203  0.37825036  0.05420535  1
  O  O261  1  0.13363454  0.36632512  0.29774829  1
  O  O262  1  0.12051568  0.37696799  0.52336725  1
  O  O263  1  0.11910544  0.38444102  0.78112347  1
  O  O264  1  0.12811973  0.61481251  0.04828017  1
  O  O265  1  0.12579085  0.62914359  0.28404760  1
  O  O266  1  0.12097524  0.62661248  0.52513841  1
  O  O267  1  0.12031559  0.62571576  0.79790705  1
  O  O268  1  0.12966185  0.87387058  0.05148911  1
  O  O269  1  0.13039097  0.87420473  0.28530660  1
  O  O270  1  0.11914931  0.87593926  0.54485595  1
  O  O271  1  0.11617005  0.86696075  0.79839363  1
  O  O272  1  0.37000881  0.12760209  0.04590023  1
  O  O273  1  0.37368107  0.12381440  0.30593575  1
  O  O274  1  0.36459800  0.12153715  0.54033040  1
  O  O275  1  0.37778787  0.13056553  0.77436676  1
  O  O276  1  0.37223937  0.37585850  0.05003933  1
  O  O277  1  0.37419172  0.37329706  0.30220740  1
  O  O278  1  0.37765435  0.37680418  0.54086101  1
  O  O279  1  0.37849464  0.38525352  0.79532863  1
  O  O280  1  0.37029496  0.61855764  0.05187035  1
  O  O281  1  0.38203195  0.62734322  0.30538572  1
  O  O282  1  0.38081018  0.62413615  0.52674133  1
  O  O283  1  0.37553654  0.61771104  0.78487661  1
  O  O284  1  0.37085098  0.87490793  0.04454103  1
  O  O285  1  0.37850687  0.87961363  0.30507216  1
  O  O286  1  0.38029989  0.87346793  0.53675954  1
  O  O287  1  0.36979422  0.86125127  0.77842685  1
  O  O288  1  0.62429065  0.13054186  0.03300558  1
  O  O289  1  0.61449447  0.12604558  0.29387770  1
  O  O290  1  0.62815970  0.12743217  0.52618864  1
  O  O291  1  0.62940554  0.13395779  0.78310142  1
  O  O292  1  0.62347783  0.37626551  0.05177842  1
  O  O293  1  0.61476468  0.37162199  0.29327898  1
  O  O294  1  0.63011584  0.37940453  0.52704609  1
  O  O295  1  0.62844903  0.38193812  0.79821461  1
  O  O296  1  0.62372061  0.61692640  0.03825275  1
  O  O297  1  0.62330806  0.62838124  0.29883546  1
  O  O298  1  0.62914781  0.62430572  0.54330935  1
  O  O299  1  0.63004351  0.61883694  0.80210075  1
  O  O300  1  0.62688462  0.86940668  0.03086902  1
  O  O301  1  0.62106358  0.87488286  0.30122736  1
  O  O302  1  0.63662776  0.87026897  0.53780553  1
  O  O303  1  0.63201452  0.86777511  0.78142958  1
  O  O304  1  0.88128595  0.13160656  0.03350406  1
  O  O305  1  0.87823393  0.12264686  0.29820394  1
  O  O306  1  0.87767854  0.12029073  0.54252826  1
  O  O307  1  0.87910956  0.12691176  0.78857314  1
  O  O308  1  0.87633274  0.37524481  0.05110201  1
  O  O309  1  0.87605067  0.36834688  0.30184004  1
  O  O310  1  0.87041450  0.37233885  0.52567732  1
  O  O311  1  0.87078224  0.38146263  0.79860243  1
  O  O312  1  0.87885026  0.61936639  0.05860923  1
  O  O313  1  0.86983831  0.62047940  0.28262236  1
  O  O314  1  0.87111066  0.62732390  0.54011309  1
  O  O315  1  0.87549510  0.62322306  0.80014613  1
  O  O316  1  0.87618042  0.86553556  0.03369792  1
  O  O317  1  0.87355447  0.88063443  0.29826567  1
  O  O318  1  0.87004171  0.87773267  0.53337626  1
  O  O319  1  0.88323814  0.86758828  0.80424170  1
