# generated using pymatgen
data_VFe(PbO3)2
_symmetry_space_group_name_H-M   'P 1'
_cell_length_a   15.40098583
_cell_length_b   15.38573332
_cell_length_c   18.52671833
_cell_angle_alpha   89.97142487
_cell_angle_beta   89.98236698
_cell_angle_gamma   89.99362443
_symmetry_Int_Tables_number   1
_chemical_formula_structural   VFe(PbO3)2
_chemical_formula_sum   'V32 Fe32 Pb64 O192'
_cell_volume   4390.00629863
_cell_formula_units_Z   32
loop_
 _symmetry_equiv_pos_site_id
 _symmetry_equiv_pos_as_xyz
  1  'x, y, z'
loop_
 _atom_site_type_symbol
 _atom_site_label
 _atom_site_symmetry_multiplicity
 _atom_site_fract_x
 _atom_site_fract_y
 _atom_site_fract_z
 _atom_site_occupancy
  V  V0  1  0.87726850  0.37253951  0.39124792  1
  V  V1  1  0.87508587  0.12528855  0.64005511  1
  V  V2  1  0.87768510  0.12557425  0.13991570  1
  V  V3  1  0.12924029  0.12291080  0.65183082  1
  V  V4  1  0.37472964  0.12583547  0.65060148  1
  V  V5  1  0.37671397  0.62512476  0.64671512  1
  V  V6  1  0.87365105  0.13268881  0.88775528  1
  V  V7  1  0.37663387  0.87583647  0.64625397  1
  V  V8  1  0.87394089  0.87576278  0.64017951  1
  V  V9  1  0.62759606  0.62423367  0.89427815  1
  V  V10  1  0.11931622  0.36938865  0.13615364  1
  V  V11  1  0.62209987  0.12383448  0.64417231  1
  V  V12  1  0.12387966  0.12697639  0.38879289  1
  V  V13  1  0.87342956  0.62970306  0.88864823  1
  V  V14  1  0.87876389  0.87099023  0.14006903  1
  V  V15  1  0.62758131  0.12605547  0.38584104  1
  V  V16  1  0.62433982  0.87589239  0.38598456  1
  V  V17  1  0.62167536  0.62669344  0.63816628  1
  V  V18  1  0.12406877  0.87265563  0.88670734  1
  V  V19  1  0.12594000  0.62310261  0.13533145  1
  V  V20  1  0.37830815  0.37437805  0.64738646  1
  V  V21  1  0.87678261  0.87817007  0.38994082  1
  V  V22  1  0.87160562  0.38289422  0.88759176  1
  V  V23  1  0.37772878  0.62621842  0.38672889  1
  V  V24  1  0.87242692  0.87593631  0.88906632  1
  V  V25  1  0.12712563  0.62731515  0.64569839  1
  V  V26  1  0.62609799  0.87289538  0.89739576  1
  V  V27  1  0.12571183  0.37469152  0.64676535  1
  V  V28  1  0.62668880  0.37390400  0.89400213  1
  V  V29  1  0.87903951  0.61930800  0.14249647  1
  V  V30  1  0.12746164  0.62401747  0.39059350  1
  V  V31  1  0.12281546  0.12000932  0.13266068  1
  Fe  Fe32  1  0.62515057  0.12306475  0.12462524  1
  Fe  Fe33  1  0.62808149  0.37423020  0.13344466  1
  Fe  Fe34  1  0.37253546  0.62364117  0.12748059  1
  Fe  Fe35  1  0.87351927  0.37533712  0.63579927  1
  Fe  Fe36  1  0.37195527  0.37365795  0.38397495  1
  Fe  Fe37  1  0.63019188  0.12525740  0.89964729  1
  Fe  Fe38  1  0.87821518  0.37415816  0.13345937  1
  Fe  Fe39  1  0.37778218  0.87408268  0.89584648  1
  Fe  Fe40  1  0.11969213  0.87205988  0.13603658  1
  Fe  Fe41  1  0.12543800  0.37585500  0.38702001  1
  Fe  Fe42  1  0.37612952  0.37635435  0.88977778  1
  Fe  Fe43  1  0.12084447  0.37614130  0.88008765  1
  Fe  Fe44  1  0.37387325  0.87684659  0.38323146  1
  Fe  Fe45  1  0.62323399  0.37530018  0.63630055  1
  Fe  Fe46  1  0.12689611  0.87488703  0.38628665  1
  Fe  Fe47  1  0.87628005  0.62570150  0.39074207  1
  Fe  Fe48  1  0.87494818  0.12346258  0.38719720  1
  Fe  Fe49  1  0.37449149  0.62573766  0.88785320  1
  Fe  Fe50  1  0.36986043  0.12599488  0.13090451  1
  Fe  Fe51  1  0.37277676  0.37559870  0.12481929  1
  Fe  Fe52  1  0.36995628  0.87407190  0.12404564  1
  Fe  Fe53  1  0.62241394  0.87534322  0.63786752  1
  Fe  Fe54  1  0.37590208  0.12366024  0.88380807  1
  Fe  Fe55  1  0.62595963  0.62561816  0.37865500  1
  Fe  Fe56  1  0.12839619  0.87702003  0.63942162  1
  Fe  Fe57  1  0.87454510  0.62710611  0.63014443  1
  Fe  Fe58  1  0.12077399  0.62498827  0.88142121  1
  Fe  Fe59  1  0.62437936  0.37425682  0.38193469  1
  Fe  Fe60  1  0.62635199  0.62665665  0.13983310  1
  Fe  Fe61  1  0.62596398  0.87579084  0.12947206  1
  Fe  Fe62  1  0.37541419  0.12475823  0.38064453  1
  Fe  Fe63  1  0.11984859  0.12424405  0.87957982  1
  Pb  Pb64  1  0.00473827  -0.00813683  0.00002343  1
  Pb  Pb65  1  -0.00147462  0.00347690  0.25342755  1
  Pb  Pb66  1  0.00866823  -0.00424482  0.50279362  1
  Pb  Pb67  1  0.00023263  0.00336424  0.75232954  1
  Pb  Pb68  1  -0.00236832  0.25444448  -0.00429267  1
  Pb  Pb69  1  0.00062512  0.24824581  0.25246040  1
  Pb  Pb70  1  -0.00340481  0.25292357  0.50330608  1
  Pb  Pb71  1  0.00625889  0.25363095  0.75371920  1
  Pb  Pb72  1  -0.00236973  0.49792504  -0.00444372  1
  Pb  Pb73  1  0.00480624  0.49611502  0.25408784  1
  Pb  Pb74  1  -0.00829251  0.49981624  0.50435257  1
  Pb  Pb75  1  0.00481776  0.50274412  0.74858199  1
  Pb  Pb76  1  0.00538496  0.75340527  0.00218000  1
  Pb  Pb77  1  -0.00234339  0.74420948  0.25534479  1
  Pb  Pb78  1  -0.00086438  0.74674920  0.50154777  1
  Pb  Pb79  1  0.00477844  0.74726117  0.74976957  1
  Pb  Pb80  1  0.25790024  0.00317730  -0.00382071  1
  Pb  Pb81  1  0.25480175  -0.01060197  0.24681275  1
  Pb  Pb82  1  0.24984043  -0.00251781  0.49840155  1
  Pb  Pb83  1  0.26076926  -0.00205510  0.76049249  1
  Pb  Pb84  1  0.25067535  0.24890927  -0.01445742  1
  Pb  Pb85  1  0.26291981  0.25066490  0.25027556  1
  Pb  Pb86  1  0.25242820  0.24950233  0.49779750  1
  Pb  Pb87  1  0.25184948  0.25712199  0.76006501  1
  Pb  Pb88  1  0.25190494  0.50047810  -0.01193039  1
  Pb  Pb89  1  0.25262055  0.48974388  0.24550600  1
  Pb  Pb90  1  0.25185775  0.49948502  0.49983440  1
  Pb  Pb91  1  0.25292213  0.49651203  0.75910928  1
  Pb  Pb92  1  0.25567552  0.74824230  -0.00287218  1
  Pb  Pb93  1  0.25150065  0.76166409  0.24560265  1
  Pb  Pb94  1  0.24752631  0.75623780  0.50064123  1
  Pb  Pb95  1  0.25685101  0.74505949  0.75871645  1
  Pb  Pb96  1  0.49362166  0.01220746  0.00208260  1
  Pb  Pb97  1  0.49136429  0.00015393  0.23307991  1
  Pb  Pb98  1  0.49977557  -0.00155791  0.49603050  1
  Pb  Pb99  1  0.49577887  -0.00066529  0.76277095  1
  Pb  Pb100  1  0.48773677  0.24673433  0.00120443  1
  Pb  Pb101  1  0.49667949  0.24964394  0.23461756  1
  Pb  Pb102  1  0.50065429  0.25357385  0.49420602  1
  Pb  Pb103  1  0.49564922  0.24705437  0.76033775  1
  Pb  Pb104  1  0.49276480  0.50079640  0.00437177  1
  Pb  Pb105  1  0.49958968  0.49427223  0.23631239  1
  Pb  Pb106  1  0.50745985  0.49354342  0.49329968  1
  Pb  Pb107  1  0.49203889  0.49868293  0.75771029  1
  Pb  Pb108  1  0.49307910  0.74685726  0.00543439  1
  Pb  Pb109  1  0.49666393  0.75224892  0.23347765  1
  Pb  Pb110  1  0.50576467  0.75467263  0.49668476  1
  Pb  Pb111  1  0.49123656  0.75118966  0.76002326  1
  Pb  Pb112  1  0.74585423  -0.00252096  0.00636702  1
  Pb  Pb113  1  0.75031364  0.00431681  0.24472235  1
  Pb  Pb114  1  0.74364378  -0.00525834  0.50116590  1
  Pb  Pb115  1  0.74205058  0.00722246  0.75651003  1
  Pb  Pb116  1  0.74736331  0.26498832  0.00972944  1
  Pb  Pb117  1  0.74272940  0.25586879  0.24484587  1
  Pb  Pb118  1  0.74880966  0.25937984  0.50277575  1
  Pb  Pb119  1  0.74228395  0.24567668  0.75291108  1
  Pb  Pb120  1  0.74149940  0.50247153  0.01001123  1
  Pb  Pb121  1  0.73901636  0.49595618  0.25140739  1
  Pb  Pb122  1  0.74785315  0.49783872  0.49551094  1
  Pb  Pb123  1  0.75275334  0.49861149  0.74139352  1
  Pb  Pb124  1  0.74286123  0.74639033  0.01011385  1
  Pb  Pb125  1  0.74911242  0.74075085  0.25370632  1
  Pb  Pb126  1  0.74996537  0.74560001  0.49679578  1
  Pb  Pb127  1  0.74743531  0.75123572  0.74704055  1
  O  O128  1  0.11838586  0.00621736  0.15591771  1
  O  O129  1  0.12407276  0.00629580  0.41452623  1
  O  O130  1  0.12504967  0.00020407  0.67281213  1
  O  O131  1  0.11291388  -0.00863929  0.90723688  1
  O  O132  1  0.11465372  0.25276814  0.15372467  1
  O  O133  1  0.12349593  0.24509141  0.41642884  1
  O  O134  1  0.12541430  0.24972835  0.67111291  1
  O  O135  1  0.11564015  0.24929737  0.90826669  1
  O  O136  1  0.11509707  0.50372093  0.16169975  1
  O  O137  1  0.12534929  0.50670254  0.41915757  1
  O  O138  1  0.12796434  0.50454860  0.66697155  1
  O  O139  1  0.11678452  0.50043862  0.91118767  1
  O  O140  1  0.11811583  0.73968240  0.16036861  1
  O  O141  1  0.12724607  0.74369470  0.41570347  1
  O  O142  1  0.12714963  0.74825808  0.66601919  1
  O  O143  1  0.11702944  0.75460644  0.91202471  1
  O  O144  1  0.36665697  0.00006360  0.15367648  1
  O  O145  1  0.37539852  0.00246791  0.41481188  1
  O  O146  1  0.37714864  -0.00366181  0.67059574  1
  O  O147  1  0.37457186  -0.00056221  0.91312404  1
  O  O148  1  0.36712835  0.25210836  0.15711730  1
  O  O149  1  0.37344246  0.24666070  0.41730007  1
  O  O150  1  0.37718258  0.24963979  0.67381003  1
  O  O151  1  0.37850496  0.24932848  0.90808467  1
  O  O152  1  0.36923880  0.49855236  0.15714015  1
  O  O153  1  0.37228243  0.50863383  0.41479196  1
  O  O154  1  0.37587394  0.50080757  0.67084348  1
  O  O155  1  0.38100140  0.50179372  0.91142203  1
  O  O156  1  0.36945307  0.74885875  0.15481830  1
  O  O157  1  0.37234833  0.74287195  0.41416668  1
  O  O158  1  0.37674046  0.75356369  0.66996304  1
  O  O159  1  0.37762356  0.74893327  0.91460248  1
  O  O160  1  0.63100878  0.00050326  0.15965917  1
  O  O161  1  0.62586006  0.00168707  0.41546373  1
  O  O162  1  0.62564636  0.00424511  0.66928716  1
  O  O163  1  0.63664482  -0.01091697  0.91315329  1
  O  O164  1  0.63092995  0.24544577  0.15655528  1
  O  O165  1  0.62783009  0.24372431  0.40943067  1
  O  O166  1  0.62561386  0.24217989  0.66768644  1
  O  O167  1  0.63439596  0.25845668  0.91245987  1
  O  O168  1  0.63119365  0.50018689  0.16206118  1
  O  O169  1  0.62577038  0.50036607  0.41143665  1
  O  O170  1  0.62243708  0.50915391  0.66209725  1
  O  O171  1  0.63364531  0.50377689  0.91518291  1
  O  O172  1  0.63131632  0.75403797  0.16301359  1
  O  O173  1  0.62419942  0.75353037  0.41149279  1
  O  O174  1  0.62185578  0.74587973  0.66639246  1
  O  O175  1  0.63456432  0.74644178  0.91802770  1
  O  O176  1  0.88331884  0.00181073  0.16418424  1
  O  O177  1  0.87437647  -0.00563439  0.41803952  1
  O  O178  1  0.87099794  0.00069966  0.66650061  1
  O  O179  1  0.87544695  -0.00951796  0.90958711  1
  O  O180  1  0.88260767  0.24271014  0.16152951  1
  O  O181  1  0.87681760  0.25203538  0.41652338  1
  O  O182  1  0.87126749  0.24069976  0.66240796  1
  O  O183  1  0.87351348  0.24856974  0.90439572  1
  O  O184  1  0.88029445  0.50441582  0.16152885  1
  O  O185  1  0.87830470  0.49338183  0.41267876  1
  O  O186  1  0.87470163  0.50385074  0.66070462  1
  O  O187  1  0.87352385  0.50646394  0.91048526  1
  O  O188  1  0.88060204  0.75341782  0.16327758  1
  O  O189  1  0.87618402  0.76059085  0.41695182  1
  O  O190  1  0.87445994  0.75571011  0.66116634  1
  O  O191  1  0.87354512  0.74690678  0.91487269  1
  O  O192  1  0.00369303  0.12575157  0.16812132  1
  O  O193  1  0.00506097  0.12456362  0.41763716  1
  O  O194  1  -0.00859564  0.12179304  0.66395248  1
  O  O195  1  -0.01223720  0.12053943  0.91429407  1
  O  O196  1  0.00284421  0.37722825  0.16894294  1
  O  O197  1  -0.00237276  0.37330916  0.41761045  1
  O  O198  1  0.00197012  0.37488745  0.66386528  1
  O  O199  1  -0.00895575  0.37583096  0.91062459  1
  O  O200  1  -0.00194018  0.62653505  0.16987908  1
  O  O201  1  0.00784507  0.62658938  0.41622441  1
  O  O202  1  0.00583249  0.62733721  0.66079685  1
  O  O203  1  -0.00996139  0.62669363  0.91177582  1
  O  O204  1  -0.00561075  0.87588059  0.17047109  1
  O  O205  1  -0.00378021  0.87720380  0.41283466  1
  O  O206  1  -0.00801602  0.87788847  0.66361271  1
  O  O207  1  -0.00717707  0.86883982  0.91337469  1
  O  O208  1  0.23496183  0.13067244  0.15371965  1
  O  O209  1  0.24162521  0.12559466  0.41377510  1
  O  O210  1  0.25209670  0.12441312  0.67375790  1
  O  O211  1  0.24487223  0.12244525  0.90235472  1
  O  O212  1  0.23493850  0.37867288  0.15486537  1
  O  O213  1  0.24892326  0.37599415  0.42149916  1
  O  O214  1  0.25216629  0.37486961  0.67287486  1
  O  O215  1  0.24661076  0.37558163  0.90603781  1
  O  O216  1  0.23945458  0.62078113  0.15262269  1
  O  O217  1  0.24826163  0.62485818  0.41703985  1
  O  O218  1  0.25002100  0.62676370  0.67027112  1
  O  O219  1  0.24608637  0.62578964  0.90594209  1
  O  O220  1  0.24373486  0.87380603  0.15892900  1
  O  O221  1  0.25080057  0.87541526  0.41965607  1
  O  O222  1  0.25796298  0.87524943  0.66910701  1
  O  O223  1  0.23852441  0.87362151  0.90476029  1
  O  O224  1  0.49887063  0.12494017  0.15222347  1
  O  O225  1  0.50957590  0.12419524  0.41077602  1
  O  O226  1  0.50521771  0.12339785  0.66928238  1
  O  O227  1  0.50373451  0.12196331  0.91202208  1
  O  O228  1  0.49951640  0.37418749  0.15152766  1
  O  O229  1  0.49796004  0.37395969  0.41173878  1
  O  O230  1  0.49956313  0.37427761  0.67067788  1
  O  O231  1  0.51205460  0.37914080  0.91229586  1
  O  O232  1  0.49818151  0.62488037  0.15799602  1
  O  O233  1  0.49461245  0.62597394  0.40706036  1
  O  O234  1  0.50245631  0.62688669  0.66947547  1
  O  O235  1  0.51264404  0.62655803  0.91261904  1
  O  O236  1  0.49827108  0.87631154  0.14987324  1
  O  O237  1  0.50176448  0.87575583  0.41243129  1
  O  O238  1  0.49560176  0.87584746  0.67036249  1
  O  O239  1  0.51158581  0.87019529  0.91295973  1
  O  O240  1  0.76116062  0.12167638  0.15642694  1
  O  O241  1  0.74457034  0.12199168  0.41473119  1
  O  O242  1  0.74914871  0.12219833  0.66644118  1
  O  O243  1  0.76432290  0.11929484  0.91976584  1
  O  O244  1  0.75693702  0.37271586  0.16292826  1
  O  O245  1  0.75666610  0.37298274  0.41217485  1
  O  O246  1  0.74719646  0.37494601  0.66590309  1
  O  O247  1  0.75235282  0.37886663  0.91777777  1
  O  O248  1  0.76356416  0.62953258  0.16396974  1
  O  O249  1  0.75010237  0.62743289  0.41479327  1
  O  O250  1  0.74259521  0.62905145  0.65685266  1
  O  O251  1  0.75495203  0.62575546  0.91830154  1
  O  O252  1  0.76464703  0.87936240  0.16274156  1
  O  O253  1  0.75192459  0.87665840  0.41438402  1
  O  O254  1  0.75386705  0.87520160  0.66521342  1
  O  O255  1  0.75764514  0.86827476  0.91767485  1
  O  O256  1  0.11567676  0.12069938  0.04132526  1
  O  O257  1  0.12197319  0.12836996  0.29780461  1
  O  O258  1  0.12650077  0.12464748  0.56046172  1
  O  O259  1  0.10857024  0.12589036  0.77919475  1
  O  O260  1  0.11146747  0.37529483  0.04522756  1
  O  O261  1  0.12471543  0.37918012  0.28801456  1
  O  O262  1  0.12923561  0.37491025  0.55564057  1
  O  O263  1  0.12012992  0.37725635  0.77932664  1
  O  O264  1  0.11655136  0.62274320  0.04411644  1
  O  O265  1  0.12824098  0.62219100  0.29984870  1
  O  O266  1  0.13066672  0.62618193  0.55477149  1
  O  O267  1  0.11555099  0.62886444  0.78139044  1
  O  O268  1  0.11118208  0.87243206  0.03565001  1
  O  O269  1  0.13443213  0.87423781  0.28685788  1
  O  O270  1  0.12793552  0.88082556  0.53980797  1
  O  O271  1  0.11744224  0.86995938  0.79528855  1
  O  O272  1  0.37304466  0.12334548  0.02856115  1
  O  O273  1  0.37024209  0.13107337  0.28065492  1
  O  O274  1  0.37636255  0.12487912  0.55965415  1
  O  O275  1  0.38345895  0.11799515  0.78139779  1
  O  O276  1  0.37632098  0.37406843  0.02333388  1
  O  O277  1  0.36127819  0.37284285  0.28425979  1
  O  O278  1  0.37657357  0.37348908  0.55630861  1
  O  O279  1  0.37912378  0.37814654  0.78727453  1
  O  O280  1  0.37748279  0.62597825  0.02619103  1
  O  O281  1  0.37121874  0.62545089  0.29649459  1
  O  O282  1  0.37706024  0.62787498  0.55619483  1
  O  O283  1  0.37993593  0.63045734  0.78479012  1
  O  O284  1  0.36589866  0.87158723  0.02153203  1
  O  O285  1  0.36391976  0.87684602  0.28368485  1
  O  O286  1  0.37774847  0.87557128  0.55515977  1
  O  O287  1  0.38002608  0.87649734  0.79293084  1
  O  O288  1  0.63113066  0.11842984  0.02280431  1
  O  O289  1  0.62963446  0.12174659  0.29523839  1
  O  O290  1  0.62313128  0.12374149  0.55349484  1
  O  O291  1  0.63956578  0.12497727  0.79747552  1
  O  O292  1  0.63886486  0.37853339  0.03188080  1
  O  O293  1  0.63241894  0.37407378  0.28200235  1
  O  O294  1  0.62413170  0.37218130  0.53625552  1
  O  O295  1  0.63061537  0.37777534  0.80261405  1
  O  O296  1  0.63648028  0.62445140  0.03811660  1
  O  O297  1  0.63539021  0.62575055  0.27887059  1
  O  O298  1  0.61532930  0.62931323  0.54714600  1
  O  O299  1  0.63166404  0.62659730  0.80349457  1
  O  O300  1  0.63894147  0.87149536  0.02941479  1
  O  O301  1  0.62603353  0.87975694  0.29550113  1
  O  O302  1  0.61954347  0.87759284  0.53872464  1
  O  O303  1  0.63275784  0.86790820  0.80561969  1
  O  O304  1  0.88384087  0.12327594  0.04927733  1
  O  O305  1  0.88168908  0.12091632  0.28824291  1
  O  O306  1  0.87339736  0.12250394  0.54917292  1
  O  O307  1  0.87105158  0.12427609  0.79612709  1
  O  O308  1  0.87864862  0.37048084  0.03344931  1
  O  O309  1  0.88066992  0.36999781  0.30027539  1
  O  O310  1  0.87465803  0.37015883  0.53594397  1
  O  O311  1  0.86844407  0.38107373  0.79615246  1
  O  O312  1  0.88219097  0.62395075  0.05144806  1
  O  O313  1  0.88004649  0.63594874  0.29109558  1
  O  O314  1  0.88195950  0.62939458  0.52987376  1
  O  O315  1  0.87010267  0.63138133  0.79744172  1
  O  O316  1  0.88256274  0.87243227  0.04857286  1
  O  O317  1  0.87477283  0.87853203  0.29909031  1
  O  O318  1  0.87324653  0.87940867  0.54934023  1
  O  O319  1  0.87050978  0.87165846  0.79799709  1
