# generated using pymatgen
data_VFe(PbO3)2
_symmetry_space_group_name_H-M   'P 1'
_cell_length_a   15.37346227
_cell_length_b   15.37498625
_cell_length_c   18.50963882
_cell_angle_alpha   90.02704640
_cell_angle_beta   89.99752054
_cell_angle_gamma   90.01312879
_symmetry_Int_Tables_number   1
_chemical_formula_structural   VFe(PbO3)2
_chemical_formula_sum   'V32 Fe32 Pb64 O192'
_cell_volume   4375.06295501
_cell_formula_units_Z   32
loop_
 _symmetry_equiv_pos_site_id
 _symmetry_equiv_pos_as_xyz
  1  'x, y, z'
loop_
 _atom_site_type_symbol
 _atom_site_label
 _atom_site_symmetry_multiplicity
 _atom_site_fract_x
 _atom_site_fract_y
 _atom_site_fract_z
 _atom_site_occupancy
  V  V0  1  0.12459929  0.12127029  0.38652677  1
  V  V1  1  0.12597623  0.37480923  0.89532759  1
  V  V2  1  0.87660434  0.62643867  0.63746512  1
  V  V3  1  0.62649725  0.87475846  0.13970627  1
  V  V4  1  0.12335915  0.62427876  0.64029356  1
  V  V5  1  0.37675976  0.87491708  0.88747783  1
  V  V6  1  0.62469302  0.12725914  0.13971169  1
  V  V7  1  0.37461932  0.62047434  0.88920408  1
  V  V8  1  0.12509934  0.12655181  0.13803514  1
  V  V9  1  0.87532430  0.62207058  0.88928607  1
  V  V10  1  0.87343843  0.37718919  0.89361200  1
  V  V11  1  0.87546608  0.13081897  0.89543164  1
  V  V12  1  0.12456963  0.87736370  0.63877299  1
  V  V13  1  0.62225668  0.37621923  0.89413843  1
  V  V14  1  0.12595320  0.37536853  0.63753155  1
  V  V15  1  0.62644460  0.37342938  0.38826261  1
  V  V16  1  0.87311072  0.12559809  0.39067608  1
  V  V17  1  0.12726654  0.62438060  0.14072588  1
  V  V18  1  0.87543986  0.62936736  0.14370590  1
  V  V19  1  0.62410977  0.12287715  0.38902094  1
  V  V20  1  0.37620203  0.37481588  0.14153644  1
  V  V21  1  0.62673431  0.12429509  0.88849736  1
  V  V22  1  0.12602046  0.87432024  0.13940961  1
  V  V23  1  0.87657804  0.87480097  0.38994855  1
  V  V24  1  0.87291020  0.37456585  0.14224865  1
  V  V25  1  0.62562739  0.12816036  0.63631915  1
  V  V26  1  0.12239341  0.62932415  0.38385342  1
  V  V27  1  0.12368074  0.12379120  0.89135417  1
  V  V28  1  0.87650459  0.37843258  0.63803974  1
  V  V29  1  0.37744370  0.37690620  0.63511872  1
  V  V30  1  0.37368601  0.87640052  0.39007849  1
  V  V31  1  0.37785533  0.87473029  0.14198798  1
  Fe  Fe32  1  0.87728025  0.12612369  0.63588599  1
  Fe  Fe33  1  0.12428478  0.62337249  0.88725494  1
  Fe  Fe34  1  0.62495796  0.62458971  0.14010664  1
  Fe  Fe35  1  0.62369207  0.37528019  0.13619469  1
  Fe  Fe36  1  0.37520783  0.37510603  0.88662593  1
  Fe  Fe37  1  0.87446717  0.87565887  0.13239055  1
  Fe  Fe38  1  0.37585165  0.62718941  0.14612898  1
  Fe  Fe39  1  0.87680849  0.87434776  0.63886011  1
  Fe  Fe40  1  0.37345287  0.87405007  0.63234869  1
  Fe  Fe41  1  0.37519392  0.12030567  0.14721846  1
  Fe  Fe42  1  0.37238541  0.12500942  0.63867024  1
  Fe  Fe43  1  0.87586962  0.62550541  0.38162893  1
  Fe  Fe44  1  0.62541919  0.62432935  0.88650045  1
  Fe  Fe45  1  0.37112243  0.62435981  0.62848321  1
  Fe  Fe46  1  0.62358683  0.87445721  0.88373405  1
  Fe  Fe47  1  0.87602641  0.37282217  0.38163364  1
  Fe  Fe48  1  0.37517278  0.12494949  0.37872115  1
  Fe  Fe49  1  0.12496816  0.87655139  0.38467257  1
  Fe  Fe50  1  0.37543550  0.12842715  0.88494344  1
  Fe  Fe51  1  0.62777540  0.62714871  0.38752664  1
  Fe  Fe52  1  0.62523941  0.88021012  0.39785396  1
  Fe  Fe53  1  0.87454035  0.12110993  0.13285553  1
  Fe  Fe54  1  0.12762410  0.87387251  0.88647175  1
  Fe  Fe55  1  0.62605375  0.87470430  0.62572678  1
  Fe  Fe56  1  0.12578129  0.37670084  0.14696844  1
  Fe  Fe57  1  0.62465195  0.62021002  0.62798417  1
  Fe  Fe58  1  0.37294147  0.37148291  0.38246052  1
  Fe  Fe59  1  0.12317461  0.37307000  0.37501532  1
  Fe  Fe60  1  0.37393045  0.62484782  0.38319159  1
  Fe  Fe61  1  0.62589683  0.37296643  0.62955433  1
  Fe  Fe62  1  0.12257815  0.12759479  0.63410291  1
  Fe  Fe63  1  0.87492851  0.87564488  0.88498021  1
  Pb  Pb64  1  -0.00829876  -0.00295652  0.00133655  1
  Pb  Pb65  1  -0.00068082  -0.00361592  0.24626393  1
  Pb  Pb66  1  -0.00439599  0.00564680  0.50483015  1
  Pb  Pb67  1  -0.00423781  -0.00597539  0.75147876  1
  Pb  Pb68  1  0.00539220  0.25465586  0.00734808  1
  Pb  Pb69  1  -0.00145549  0.25617360  0.25082968  1
  Pb  Pb70  1  0.00231005  0.24199477  0.49917988  1
  Pb  Pb71  1  -0.00034633  0.24838112  0.74905707  1
  Pb  Pb72  1  0.00474469  0.49471189  0.00744007  1
  Pb  Pb73  1  -0.00609828  0.49714034  0.25349518  1
  Pb  Pb74  1  -0.00095785  0.49542272  0.48840044  1
  Pb  Pb75  1  0.00368489  0.50469642  0.75350365  1
  Pb  Pb76  1  -0.00047299  0.75570583  -0.00430386  1
  Pb  Pb77  1  -0.00020950  0.75100115  0.24997428  1
  Pb  Pb78  1  -0.00309781  0.75845090  0.50062085  1
  Pb  Pb79  1  0.00368969  0.75758187  0.75700712  1
  Pb  Pb80  1  0.25691581  0.00742219  0.00150982  1
  Pb  Pb81  1  0.24345655  -0.00549206  0.25301592  1
  Pb  Pb82  1  0.25627256  0.00347937  0.50258775  1
  Pb  Pb83  1  0.25256925  0.00494134  0.74638121  1
  Pb  Pb84  1  0.25568125  0.24975896  0.00439500  1
  Pb  Pb85  1  0.25611594  0.25126334  0.25278091  1
  Pb  Pb86  1  0.24863475  0.24500245  0.49235614  1
  Pb  Pb87  1  0.25760974  0.25067825  0.75205717  1
  Pb  Pb88  1  0.24803692  0.49569663  0.00560591  1
  Pb  Pb89  1  0.26161942  0.49719800  0.25622242  1
  Pb  Pb90  1  0.25320486  0.50155447  0.48960715  1
  Pb  Pb91  1  0.24901957  0.50058508  0.74977281  1
  Pb  Pb92  1  0.25486764  0.74606793  -0.00135615  1
  Pb  Pb93  1  0.25057845  0.75038385  0.25422425  1
  Pb  Pb94  1  0.25772265  0.74894669  0.49920461  1
  Pb  Pb95  1  0.24359641  0.74882155  0.74813912  1
  Pb  Pb96  1  0.49399699  0.00798382  0.00031070  1
  Pb  Pb97  1  0.50706658  -0.00843379  0.25719540  1
  Pb  Pb98  1  0.48529840  0.00025912  0.50654229  1
  Pb  Pb99  1  0.50332690  -0.00564465  0.74178347  1
  Pb  Pb100  1  0.49834966  0.25239127  0.00230692  1
  Pb  Pb101  1  0.49087834  0.24877296  0.25279782  1
  Pb  Pb102  1  0.49710219  0.24990682  0.49689527  1
  Pb  Pb103  1  0.48949240  0.25228681  0.75151535  1
  Pb  Pb104  1  0.49768148  0.51373032  0.01066379  1
  Pb  Pb105  1  0.50301741  0.50568577  0.25167101  1
  Pb  Pb106  1  0.49838089  0.50995674  0.49405988  1
  Pb  Pb107  1  0.50522324  0.50670245  0.74446825  1
  Pb  Pb108  1  0.50133273  0.74247947  0.00132891  1
  Pb  Pb109  1  0.50692564  0.74258384  0.25791456  1
  Pb  Pb110  1  0.50530410  0.74850578  0.49600538  1
  Pb  Pb111  1  0.50307515  0.74777661  0.73555135  1
  Pb  Pb112  1  0.75799934  -0.00184785  -0.00062926  1
  Pb  Pb113  1  0.74569046  -0.00763565  0.25189799  1
  Pb  Pb114  1  0.75777092  -0.00439761  0.50663611  1
  Pb  Pb115  1  0.75328250  -0.01057885  0.74670432  1
  Pb  Pb116  1  0.74500422  0.25466764  0.00523934  1
  Pb  Pb117  1  0.75412130  0.25274077  0.24967863  1
  Pb  Pb118  1  0.74758781  0.25298160  0.50175219  1
  Pb  Pb119  1  0.74774427  0.24932209  0.74693916  1
  Pb  Pb120  1  0.73842774  0.50172875  0.00658780  1
  Pb  Pb121  1  0.74884814  0.50778766  0.25312699  1
  Pb  Pb122  1  0.74622598  0.50257190  0.49437698  1
  Pb  Pb123  1  0.74298588  0.50503308  0.74839090  1
  Pb  Pb124  1  0.74768873  0.75374670  -0.00581184  1
  Pb  Pb125  1  0.74629236  0.74367535  0.25694537  1
  Pb  Pb126  1  0.74394144  0.74991434  0.49909594  1
  Pb  Pb127  1  0.73517809  0.75661934  0.74664292  1
  O  O128  1  0.12575007  -0.00053549  0.16423458  1
  O  O129  1  0.12124806  0.00534579  0.41307328  1
  O  O130  1  0.12179737  -0.00625455  0.65800152  1
  O  O131  1  0.12573639  0.00749592  0.91160141  1
  O  O132  1  0.12313992  0.24254223  0.15901084  1
  O  O133  1  0.12091345  0.24024305  0.40730265  1
  O  O134  1  0.12207446  0.26077234  0.66228659  1
  O  O135  1  0.12443851  0.24894464  0.92142354  1
  O  O136  1  0.12121163  0.50984542  0.16591148  1
  O  O137  1  0.12334082  0.50813926  0.40267520  1
  O  O138  1  0.12318258  0.49531642  0.66684834  1
  O  O139  1  0.12525838  0.49779416  0.92126123  1
  O  O140  1  0.12379764  0.74629749  0.16505973  1
  O  O141  1  0.12382426  0.74794724  0.41314481  1
  O  O142  1  0.12316236  0.74831365  0.66449455  1
  O  O143  1  0.12766463  0.74779927  0.91812614  1
  O  O144  1  0.37404406  -0.01020641  0.16970023  1
  O  O145  1  0.37375245  -0.00011740  0.41136138  1
  O  O146  1  0.37295434  -0.00085316  0.66752133  1
  O  O147  1  0.37563106  -0.00168918  0.91139454  1
  O  O148  1  0.37494684  0.25233923  0.16220275  1
  O  O149  1  0.37509421  0.24650599  0.41324550  1
  O  O150  1  0.37054074  0.25782733  0.66158238  1
  O  O151  1  0.37503997  0.25078181  0.92109950  1
  O  O152  1  0.37489262  0.49475589  0.16573602  1
  O  O153  1  0.37268645  0.49745478  0.40734585  1
  O  O154  1  0.36933533  0.49232803  0.66013471  1
  O  O155  1  0.37540343  0.50396079  0.91385494  1
  O  O156  1  0.37469414  0.75942829  0.16836016  1
  O  O157  1  0.37245916  0.75613662  0.41055264  1
  O  O158  1  0.37074372  0.74898406  0.65891152  1
  O  O159  1  0.37555160  0.74964514  0.91170330  1
  O  O160  1  0.62309666  -0.00383989  0.16654201  1
  O  O161  1  0.63029101  0.01114488  0.41813714  1
  O  O162  1  0.62769863  0.00950606  0.65651625  1
  O  O163  1  0.62435411  0.00854380  0.90950404  1
  O  O164  1  0.62636201  0.24398649  0.16103772  1
  O  O165  1  0.63022629  0.24282420  0.41516962  1
  O  O166  1  0.62664032  0.24872978  0.66540700  1
  O  O167  1  0.62734173  0.25085683  0.91846065  1
  O  O168  1  0.62643690  0.49834898  0.16703856  1
  O  O169  1  0.62730804  0.49049044  0.40384069  1
  O  O170  1  0.62706052  0.49567795  0.66293909  1
  O  O171  1  0.62633681  0.49420914  0.91427351  1
  O  O172  1  0.62367754  0.75847648  0.16329583  1
  O  O173  1  0.62695002  0.75326541  0.41293744  1
  O  O174  1  0.62762646  0.74607997  0.65395015  1
  O  O175  1  0.62340801  0.74914011  0.91420866  1
  O  O176  1  0.87510840  -0.00181145  0.16540625  1
  O  O177  1  0.87715217  0.00217610  0.41496380  1
  O  O178  1  0.87766610  0.00155632  0.66645231  1
  O  O179  1  0.87579884  0.00757541  0.91224038  1
  O  O180  1  0.87412636  0.25140137  0.15962309  1
  O  O181  1  0.87564545  0.24278771  0.41118881  1
  O  O182  1  0.87896737  0.25963296  0.66426345  1
  O  O183  1  0.87545989  0.25396627  0.92346646  1
  O  O184  1  0.87518387  0.50144912  0.16458216  1
  O  O185  1  0.87705110  0.49877933  0.40864260  1
  O  O186  1  0.87900145  0.49706836  0.66562672  1
  O  O187  1  0.87470600  0.49950649  0.92028997  1
  O  O188  1  0.87512791  0.74794674  0.16256005  1
  O  O189  1  0.87748915  0.75750395  0.41019383  1
  O  O190  1  0.87922395  0.73987650  0.65980807  1
  O  O191  1  0.87470721  0.74097029  0.90932182  1
  O  O192  1  0.00601843  0.12091318  0.16148943  1
  O  O193  1  -0.00297384  0.12313441  0.41159482  1
  O  O194  1  0.00114747  0.12920157  0.67123469  1
  O  O195  1  0.00479249  0.12977894  0.91720276  1
  O  O196  1  -0.00798586  0.37570015  0.16478104  1
  O  O197  1  0.00218502  0.37240198  0.41041090  1
  O  O198  1  0.00102428  0.37839869  0.66481615  1
  O  O199  1  -0.00055012  0.37511372  0.92220740  1
  O  O200  1  -0.00124364  0.62708199  0.16494113  1
  O  O201  1  0.00488069  0.62885065  0.41083497  1
  O  O202  1  -0.00249287  0.61889732  0.66772672  1
  O  O203  1  -0.00690171  0.62128587  0.91568758  1
  O  O204  1  0.00402423  0.87299892  0.16138056  1
  O  O205  1  -0.00421669  0.87812581  0.41408262  1
  O  O206  1  0.00617413  0.87018067  0.66632812  1
  O  O207  1  0.00089441  0.87513001  0.91421582  1
  O  O208  1  0.24185364  0.12108615  0.16538689  1
  O  O209  1  0.24364522  0.12341007  0.40476306  1
  O  O210  1  0.24536975  0.12705014  0.66612531  1
  O  O211  1  0.24407131  0.12773845  0.91503677  1
  O  O212  1  0.25571662  0.37480782  0.16377574  1
  O  O213  1  0.24462590  0.37076910  0.40811173  1
  O  O214  1  0.24474318  0.37684637  0.65995278  1
  O  O215  1  0.24773485  0.37535589  0.92064200  1
  O  O216  1  0.24336198  0.62700767  0.16386182  1
  O  O217  1  0.24176511  0.62831109  0.40917137  1
  O  O218  1  0.24449557  0.62000626  0.66436193  1
  O  O219  1  0.25729487  0.62409354  0.91576588  1
  O  O220  1  0.25133974  0.87355881  0.16582074  1
  O  O221  1  0.25327582  0.87808541  0.41259177  1
  O  O222  1  0.24109884  0.87310093  0.66264579  1
  O  O223  1  0.25928648  0.87541704  0.91564379  1
  O  O224  1  0.50874352  0.12043453  0.16680613  1
  O  O225  1  0.50692903  0.12623775  0.40635894  1
  O  O226  1  0.50711213  0.12868657  0.66115878  1
  O  O227  1  0.50711482  0.12959648  0.91344857  1
  O  O228  1  0.49496381  0.37315789  0.16376923  1
  O  O229  1  0.50841923  0.36611787  0.40825228  1
  O  O230  1  0.49356853  0.37410611  0.65512493  1
  O  O231  1  0.50601879  0.37156880  0.91340177  1
  O  O232  1  0.50105832  0.62795726  0.17150624  1
  O  O233  1  0.50007118  0.62488649  0.40739774  1
  O  O234  1  0.49735829  0.61899929  0.65660837  1
  O  O235  1  0.49347329  0.62400797  0.91506346  1
  O  O236  1  0.49947661  0.87607075  0.16569769  1
  O  O237  1  0.49185067  0.87906614  0.41344282  1
  O  O238  1  0.50189185  0.87709251  0.65654594  1
  O  O239  1  0.49236600  0.87625227  0.91416722  1
  O  O240  1  0.74213938  0.12016761  0.16385299  1
  O  O241  1  0.75449956  0.12416695  0.41458202  1
  O  O242  1  0.74666997  0.13066688  0.66330805  1
  O  O243  1  0.74569051  0.12984402  0.91520547  1
  O  O244  1  0.75510060  0.37384601  0.16459340  1
  O  O245  1  0.74660210  0.36831347  0.41203514  1
  O  O246  1  0.75889668  0.37568984  0.65969494  1
  O  O247  1  0.74847681  0.37407062  0.91970509  1
  O  O248  1  0.75523950  0.62696865  0.16464108  1
  O  O249  1  0.75322177  0.62537869  0.41321318  1
  O  O250  1  0.76002534  0.61749603  0.65840002  1
  O  O251  1  0.75645778  0.62051775  0.91440068  1
  O  O252  1  0.74347002  0.87649096  0.16014999  1
  O  O253  1  0.76051500  0.88069944  0.41529695  1
  O  O254  1  0.74951293  0.87508322  0.66041369  1
  O  O255  1  0.74933245  0.87635088  0.91293088  1
  O  O256  1  0.12757935  0.12219471  0.04662560  1
  O  O257  1  0.12017586  0.11897423  0.29522845  1
  O  O258  1  0.11786639  0.13106740  0.53422637  1
  O  O259  1  0.12176853  0.12956557  0.80056950  1
  O  O260  1  0.12096974  0.38058216  0.04590950  1
  O  O261  1  0.11779204  0.37093687  0.27301472  1
  O  O262  1  0.12407261  0.37730948  0.54688133  1
  O  O263  1  0.12519536  0.37504338  0.80382713  1
  O  O264  1  0.12590035  0.62461226  0.04933482  1
  O  O265  1  0.12197253  0.63423814  0.29263309  1
  O  O266  1  0.12170396  0.62352561  0.54960859  1
  O  O267  1  0.12514165  0.61916488  0.78752887  1
  O  O268  1  0.12987861  0.87418166  0.04826223  1
  O  O269  1  0.12680546  0.87661108  0.28501048  1
  O  O270  1  0.12209334  0.87146530  0.54741287  1
  O  O271  1  0.12465618  0.86781943  0.78698462  1
  O  O272  1  0.37508675  0.11397203  0.04564172  1
  O  O273  1  0.37569220  0.13153804  0.27724855  1
  O  O274  1  0.37340168  0.11745853  0.53773509  1
  O  O275  1  0.37346083  0.13744557  0.78477981  1
  O  O276  1  0.37539378  0.37557582  0.04962733  1
  O  O277  1  0.37191660  0.36740685  0.28202620  1
  O  O278  1  0.37328368  0.37525886  0.54384804  1
  O  O279  1  0.37425536  0.36884514  0.78728543  1
  O  O280  1  0.38292056  0.62577439  0.04505973  1
  O  O281  1  0.36847659  0.62570970  0.28095212  1
  O  O282  1  0.36727982  0.62088628  0.52781418  1
  O  O283  1  0.37393465  0.62039313  0.79829095  1
  O  O284  1  0.37741388  0.87656463  0.05078216  1
  O  O285  1  0.37372664  0.87605331  0.29852580  1
  O  O286  1  0.36854439  0.88613245  0.53215882  1
  O  O287  1  0.37602388  0.87419042  0.79685134  1
  O  O288  1  0.62287028  0.12272537  0.04835080  1
  O  O289  1  0.62995239  0.12159732  0.29768325  1
  O  O290  1  0.62695226  0.13280122  0.54523782  1
  O  O291  1  0.62841208  0.13045767  0.79789502  1
  O  O292  1  0.62835649  0.37440880  0.03646934  1
  O  O293  1  0.63041288  0.36511766  0.29704479  1
  O  O294  1  0.62873383  0.36873123  0.53043800  1
  O  O295  1  0.62657956  0.37294835  0.80302124  1
  O  O296  1  0.61866462  0.62035615  0.03844760  1
  O  O297  1  0.63225742  0.63039991  0.28432243  1
  O  O298  1  0.62634532  0.61701411  0.52673638  1
  O  O299  1  0.62576737  0.61772745  0.78629845  1
  O  O300  1  0.62187344  0.87763991  0.04880501  1
  O  O301  1  0.62584025  0.88666157  0.29574390  1
  O  O302  1  0.62968263  0.87571209  0.52426116  1
  O  O303  1  0.62698421  0.87273065  0.78375495  1
  O  O304  1  0.87460207  0.11652945  0.03314769  1
  O  O305  1  0.87286052  0.12278964  0.29951947  1
  O  O306  1  0.88386004  0.12374087  0.53601353  1
  O  O307  1  0.87673131  0.13720788  0.80432532  1
  O  O308  1  0.87419739  0.37798938  0.05092591  1
  O  O309  1  0.87705470  0.36775364  0.28153777  1
  O  O310  1  0.87991990  0.37920223  0.54704136  1
  O  O311  1  0.87359185  0.37666201  0.80287294  1
  O  O312  1  0.87542369  0.62593698  0.05300151  1
  O  O313  1  0.87253758  0.62941064  0.28137561  1
  O  O314  1  0.88075743  0.62305764  0.54649315  1
  O  O315  1  0.87647643  0.61649835  0.79841424  1
  O  O316  1  0.87507885  0.87969208  0.03223220  1
  O  O317  1  0.87550864  0.87803597  0.29830866  1
  O  O318  1  0.88210064  0.87729530  0.53847262  1
  O  O319  1  0.87873180  0.87715004  0.78375682  1
