# generated using pymatgen
data_VFe(PbO3)2
_symmetry_space_group_name_H-M   'P 1'
_cell_length_a   15.38657698
_cell_length_b   15.37684158
_cell_length_c   18.49240299
_cell_angle_alpha   89.98779634
_cell_angle_beta   89.97602471
_cell_angle_gamma   90.01242524
_symmetry_Int_Tables_number   1
_chemical_formula_structural   VFe(PbO3)2
_chemical_formula_sum   'V32 Fe32 Pb64 O192'
_cell_volume   4375.24568540
_cell_formula_units_Z   32
loop_
 _symmetry_equiv_pos_site_id
 _symmetry_equiv_pos_as_xyz
  1  'x, y, z'
loop_
 _atom_site_type_symbol
 _atom_site_label
 _atom_site_symmetry_multiplicity
 _atom_site_fract_x
 _atom_site_fract_y
 _atom_site_fract_z
 _atom_site_occupancy
  V  V0  1  0.87879727  0.62427517  0.63734709  1
  V  V1  1  0.87526021  0.12359800  0.63925313  1
  V  V2  1  0.12480375  0.37657914  0.14790333  1
  V  V3  1  0.12301699  0.62841007  0.15559776  1
  V  V4  1  0.87735966  0.62548781  0.89364104  1
  V  V5  1  0.37276609  0.12607283  0.88738810  1
  V  V6  1  0.62595195  0.12596260  0.89077870  1
  V  V7  1  0.87055595  0.12340415  0.38119889  1
  V  V8  1  0.62729878  0.37382276  0.63690392  1
  V  V9  1  0.37373432  0.12522345  0.14081846  1
  V  V10  1  0.62361852  0.87586644  0.38899005  1
  V  V11  1  0.62313636  0.87264000  0.13565868  1
  V  V12  1  0.62406956  0.62450514  0.38974099  1
  V  V13  1  0.12240166  0.37535694  0.63293281  1
  V  V14  1  0.37982437  0.12411344  0.38831537  1
  V  V15  1  0.37413041  0.37454686  0.14208231  1
  V  V16  1  0.37679641  0.62592508  0.39288952  1
  V  V17  1  0.87867935  0.12457363  0.89328838  1
  V  V18  1  0.86707164  0.62439337  0.14586255  1
  V  V19  1  0.87543150  0.37490489  0.63661481  1
  V  V20  1  0.12209169  0.87436740  0.63373019  1
  V  V21  1  0.37574950  0.37485314  0.88856676  1
  V  V22  1  0.87701081  0.87431573  0.63721723  1
  V  V23  1  0.62409053  0.37539599  0.89247554  1
  V  V24  1  0.12680814  0.12705252  0.14578267  1
  V  V25  1  0.62451551  0.37131633  0.38678778  1
  V  V26  1  0.37359151  0.62484861  0.14103108  1
  V  V27  1  0.12516253  0.87612540  0.89326800  1
  V  V28  1  0.62394273  0.37762070  0.14060115  1
  V  V29  1  0.87574785  0.12637220  0.13989194  1
  V  V30  1  0.37124580  0.62487485  0.88734638  1
  V  V31  1  0.12342304  0.62549785  0.89072515  1
  Fe  Fe32  1  0.12461548  0.12489326  0.88499039  1
  Fe  Fe33  1  0.37462723  0.12680201  0.63143756  1
  Fe  Fe34  1  0.37453693  0.87613348  0.62593845  1
  Fe  Fe35  1  0.62610899  0.62155960  0.88657874  1
  Fe  Fe36  1  0.37602698  0.87552855  0.13412824  1
  Fe  Fe37  1  0.63077031  0.12567410  0.63582627  1
  Fe  Fe38  1  0.12089924  0.62638156  0.63148951  1
  Fe  Fe39  1  0.37201599  0.62326462  0.63074392  1
  Fe  Fe40  1  0.12622315  0.37434733  0.38153728  1
  Fe  Fe41  1  0.37820421  0.37596664  0.39778757  1
  Fe  Fe42  1  0.62999629  0.87569873  0.63665460  1
  Fe  Fe43  1  0.12565755  0.62510873  0.37455889  1
  Fe  Fe44  1  0.61766425  0.62429974  0.13503624  1
  Fe  Fe45  1  0.62252302  0.12708348  0.14533464  1
  Fe  Fe46  1  0.87114727  0.37461674  0.37716667  1
  Fe  Fe47  1  0.11980984  0.12312528  0.63374638  1
  Fe  Fe48  1  0.37437653  0.37424133  0.62547801  1
  Fe  Fe49  1  0.87450525  0.37392101  0.89264279  1
  Fe  Fe50  1  0.62916317  0.62409594  0.63860074  1
  Fe  Fe51  1  0.12616170  0.87589346  0.37774327  1
  Fe  Fe52  1  0.12822375  0.87599218  0.14978096  1
  Fe  Fe53  1  0.37666490  0.87345100  0.39714352  1
  Fe  Fe54  1  0.87561973  0.87724308  0.14073246  1
  Fe  Fe55  1  0.87595237  0.87452456  0.89399689  1
  Fe  Fe56  1  0.87140832  0.87514340  0.37792045  1
  Fe  Fe57  1  0.37311657  0.87537046  0.88649975  1
  Fe  Fe58  1  0.87019237  0.62688772  0.37598896  1
  Fe  Fe59  1  0.62483715  0.87457612  0.88328270  1
  Fe  Fe60  1  0.87583323  0.37510608  0.14591988  1
  Fe  Fe61  1  0.62438503  0.12313756  0.37785829  1
  Fe  Fe62  1  0.12478801  0.37551919  0.88773680  1
  Fe  Fe63  1  0.12683367  0.12615175  0.38209825  1
  Pb  Pb64  1  0.00223546  -0.01062187  0.01063055  1
  Pb  Pb65  1  0.00580718  -0.00111981  0.25119252  1
  Pb  Pb66  1  0.00536690  0.00248969  0.48941463  1
  Pb  Pb67  1  -0.00075403  0.00024215  0.75190846  1
  Pb  Pb68  1  -0.00036287  0.25500937  0.00173796  1
  Pb  Pb69  1  0.00885806  0.25073397  0.25695230  1
  Pb  Pb70  1  0.00473033  0.24798291  0.49178172  1
  Pb  Pb71  1  0.00685389  0.25322480  0.75454669  1
  Pb  Pb72  1  -0.00266580  0.49448634  0.00691256  1
  Pb  Pb73  1  0.00229835  0.50394009  0.25775967  1
  Pb  Pb74  1  -0.00015134  0.50270278  0.48158978  1
  Pb  Pb75  1  0.00032524  0.48814473  0.75258250  1
  Pb  Pb76  1  -0.00095145  0.75544541  0.01066721  1
  Pb  Pb77  1  -0.00787870  0.75893548  0.25540945  1
  Pb  Pb78  1  -0.00020960  0.74755534  0.48068649  1
  Pb  Pb79  1  -0.00831084  0.75449127  0.75144131  1
  Pb  Pb80  1  0.24723591  -0.01183702  0.00887539  1
  Pb  Pb81  1  0.25219821  -0.00721674  0.25589166  1
  Pb  Pb82  1  0.25135997  -0.00009197  0.49435812  1
  Pb  Pb83  1  0.25484139  -0.00074154  0.74247652  1
  Pb  Pb84  1  0.24728542  0.24988557  -0.00287822  1
  Pb  Pb85  1  0.24646647  0.25359988  0.25906114  1
  Pb  Pb86  1  0.25207478  0.24856163  0.49531461  1
  Pb  Pb87  1  0.24201135  0.24602898  0.74172885  1
  Pb  Pb88  1  0.24831586  0.50249022  0.00075481  1
  Pb  Pb89  1  0.24839000  0.49734263  0.25809081  1
  Pb  Pb90  1  0.24562997  0.50510941  0.49626328  1
  Pb  Pb91  1  0.24914955  0.49969523  0.73995332  1
  Pb  Pb92  1  0.24650500  0.75808983  0.00807348  1
  Pb  Pb93  1  0.25651717  0.76212429  0.25832567  1
  Pb  Pb94  1  0.24495993  0.74500291  0.49563834  1
  Pb  Pb95  1  0.25659674  0.75383650  0.74257437  1
  Pb  Pb96  1  0.49929378  -0.00342480  -0.00393530  1
  Pb  Pb97  1  0.49996957  0.00078828  0.25066327  1
  Pb  Pb98  1  0.49662576  0.00116684  0.50466483  1
  Pb  Pb99  1  0.49960922  -0.00676158  0.73997959  1
  Pb  Pb100  1  0.50381929  0.24217558  0.00511167  1
  Pb  Pb101  1  0.49309520  0.25602163  0.25605147  1
  Pb  Pb102  1  0.49400461  0.24326765  0.50350502  1
  Pb  Pb103  1  0.49670413  0.24666553  0.74207797  1
  Pb  Pb104  1  0.50291820  0.50473474  0.00161291  1
  Pb  Pb105  1  0.49205905  0.49474503  0.25619448  1
  Pb  Pb106  1  0.49837992  0.50658244  0.50634982  1
  Pb  Pb107  1  0.50242636  0.50655575  0.74369354  1
  Pb  Pb108  1  0.50188224  0.74891230  -0.00665483  1
  Pb  Pb109  1  0.49322905  0.75725427  0.25296148  1
  Pb  Pb110  1  0.50366929  0.75020708  0.50821253  1
  Pb  Pb111  1  0.49997804  0.75556729  0.73976607  1
  Pb  Pb112  1  0.74923604  -0.00345701  0.00146897  1
  Pb  Pb113  1  0.74665598  0.00166783  0.24728894  1
  Pb  Pb114  1  0.73989940  -0.00182607  0.49985633  1
  Pb  Pb115  1  0.74778284  -0.00866391  0.75273263  1
  Pb  Pb116  1  0.74634505  0.24377303  0.00777060  1
  Pb  Pb117  1  0.75129373  0.25225737  0.25008981  1
  Pb  Pb118  1  0.74718693  0.24182866  0.49562063  1
  Pb  Pb119  1  0.76153280  0.25666989  0.75214979  1
  Pb  Pb120  1  0.75681898  0.49552812  0.00638524  1
  Pb  Pb121  1  0.75399029  0.50016788  0.25309920  1
  Pb  Pb122  1  0.74869359  0.50493983  0.49574250  1
  Pb  Pb123  1  0.75162753  0.50428080  0.75249006  1
  Pb  Pb124  1  0.74393676  0.74923023  -0.00170223  1
  Pb  Pb125  1  0.75343074  0.75215363  0.25025616  1
  Pb  Pb126  1  0.74310888  0.75180573  0.50059669  1
  Pb  Pb127  1  0.74029991  0.75161369  0.75420471  1
  O  O128  1  0.12824801  0.00794954  0.16788526  1
  O  O129  1  0.12389799  0.00209689  0.40756163  1
  O  O130  1  0.11796127  -0.00803762  0.66204385  1
  O  O131  1  0.12545142  -0.00526230  0.91459451  1
  O  O132  1  0.12762418  0.25286302  0.16828191  1
  O  O133  1  0.12376679  0.24879326  0.41286612  1
  O  O134  1  0.11670765  0.25677046  0.65976612  1
  O  O135  1  0.12474635  0.24867229  0.91976008  1
  O  O136  1  0.12972111  0.49423789  0.16844316  1
  O  O137  1  0.12785922  0.50120749  0.40612898  1
  O  O138  1  0.11937178  0.49262110  0.65890150  1
  O  O139  1  0.12603535  0.50444005  0.91922431  1
  O  O140  1  0.13123169  0.74327625  0.16504544  1
  O  O141  1  0.12827350  0.74854366  0.40258056  1
  O  O142  1  0.11881217  0.75808228  0.66034677  1
  O  O143  1  0.12533638  0.75107175  0.92069434  1
  O  O144  1  0.37423125  0.00764219  0.16219585  1
  O  O145  1  0.38009309  0.00628168  0.41194266  1
  O  O146  1  0.37203791  0.00011567  0.66016391  1
  O  O147  1  0.37579825  0.00992137  0.91022325  1
  O  O148  1  0.37616004  0.25049518  0.16809956  1
  O  O149  1  0.38201441  0.24331090  0.41335966  1
  O  O150  1  0.37565747  0.25420814  0.66256088  1
  O  O151  1  0.37749350  0.24853691  0.91585259  1
  O  O152  1  0.37579684  0.49865899  0.16810019  1
  O  O153  1  0.38288361  0.50795912  0.41476006  1
  O  O154  1  0.37289328  0.49491093  0.66180103  1
  O  O155  1  0.37269048  0.50069109  0.91595564  1
  O  O156  1  0.37418249  0.74324219  0.16152634  1
  O  O157  1  0.38149014  0.74201033  0.41680313  1
  O  O158  1  0.37101668  0.75115060  0.65788056  1
  O  O159  1  0.37084132  0.74092680  0.90966492  1
  O  O160  1  0.62187720  -0.00750728  0.16205757  1
  O  O161  1  0.62587702  -0.00545037  0.40769385  1
  O  O162  1  0.63284355  0.00174901  0.66608081  1
  O  O163  1  0.62435485  0.00515384  0.91413765  1
  O  O164  1  0.62212999  0.25986224  0.16636190  1
  O  O165  1  0.62694074  0.25365698  0.40287397  1
  O  O166  1  0.63295572  0.25770080  0.66415679  1
  O  O167  1  0.62420045  0.25339598  0.92054376  1
  O  O168  1  0.61995692  0.49521652  0.16615248  1
  O  O169  1  0.62532039  0.50409486  0.41081135  1
  O  O170  1  0.63246771  0.49200371  0.66520461  1
  O  O171  1  0.62293481  0.49316539  0.91566404  1
  O  O172  1  0.62147928  0.75516626  0.16133409  1
  O  O173  1  0.62416277  0.74846379  0.41418997  1
  O  O174  1  0.63090824  0.74898244  0.66523177  1
  O  O175  1  0.62369703  0.74664398  0.91299894  1
  O  O176  1  0.87611802  0.00807845  0.16403798  1
  O  O177  1  0.86963051  0.00561403  0.40534891  1
  O  O178  1  0.87666631  0.00305026  0.66262926  1
  O  O179  1  0.87435931  0.00716600  0.91936523  1
  O  O180  1  0.87384208  0.24437152  0.16454774  1
  O  O181  1  0.86840681  0.24403549  0.40591927  1
  O  O182  1  0.87627010  0.24935445  0.66393449  1
  O  O183  1  0.87274886  0.24323601  0.91935193  1
  O  O184  1  0.87664947  0.50667083  0.16797699  1
  O  O185  1  0.86738544  0.50105119  0.40507840  1
  O  O186  1  0.87735611  0.50136805  0.66190769  1
  O  O187  1  0.87698904  0.50603735  0.92034495  1
  O  O188  1  0.87626328  0.74349817  0.16244584  1
  O  O189  1  0.86973174  0.75012773  0.40851860  1
  O  O190  1  0.87958146  0.74598747  0.66104756  1
  O  O191  1  0.87929110  0.74267159  0.92095575  1
  O  O192  1  -0.00208004  0.12790962  0.16477029  1
  O  O193  1  -0.01107182  0.12573652  0.40464703  1
  O  O194  1  -0.00852765  0.12515366  0.66625751  1
  O  O195  1  -0.00528959  0.12504348  0.91527829  1
  O  O196  1  0.00701467  0.37554230  0.16558024  1
  O  O197  1  -0.00360002  0.37500526  0.40313291  1
  O  O198  1  -0.00152616  0.37547843  0.66413515  1
  O  O199  1  -0.00036412  0.37568320  0.92217134  1
  O  O200  1  0.00478902  0.62228684  0.16717398  1
  O  O201  1  -0.00184955  0.62431974  0.39651770  1
  O  O202  1  -0.00548150  0.62324396  0.66441451  1
  O  O203  1  -0.00021467  0.62498468  0.92173699  1
  O  O204  1  0.00078477  0.87463149  0.16664019  1
  O  O205  1  -0.00204846  0.87525993  0.40123133  1
  O  O206  1  -0.00126559  0.87569291  0.66753011  1
  O  O207  1  0.00696805  0.87399765  0.92169546  1
  O  O208  1  0.25612931  0.13034064  0.16743713  1
  O  O209  1  0.25867451  0.12608296  0.40721154  1
  O  O210  1  0.24562986  0.12794072  0.65916380  1
  O  O211  1  0.25662838  0.12921730  0.90985619  1
  O  O212  1  0.25108319  0.37340830  0.16837430  1
  O  O213  1  0.25162084  0.37299741  0.41250489  1
  O  O214  1  0.24015897  0.37289797  0.65060398  1
  O  O215  1  0.25472719  0.37389708  0.91619622  1
  O  O216  1  0.25897847  0.61915522  0.17024163  1
  O  O217  1  0.25783624  0.62448931  0.40577675  1
  O  O218  1  0.24420880  0.62289337  0.66382118  1
  O  O219  1  0.25087403  0.62287556  0.91785130  1
  O  O220  1  0.25636216  0.87575095  0.17041031  1
  O  O221  1  0.24980082  0.87662684  0.41255642  1
  O  O222  1  0.23971667  0.87621977  0.65369100  1
  O  O223  1  0.24445838  0.87397712  0.91805854  1
  O  O224  1  0.49123699  0.12738750  0.16568437  1
  O  O225  1  0.50051348  0.12389668  0.41094451  1
  O  O226  1  0.50383248  0.12767301  0.66220877  1
  O  O227  1  0.49828396  0.12899208  0.91575315  1
  O  O228  1  0.49970921  0.37553682  0.16760615  1
  O  O229  1  0.51315079  0.37788760  0.41819657  1
  O  O230  1  0.51030971  0.37561205  0.65567258  1
  O  O231  1  0.50247896  0.37389476  0.91750222  1
  O  O232  1  0.49122343  0.62290325  0.16648153  1
  O  O233  1  0.50598046  0.62618518  0.41824335  1
  O  O234  1  0.50042161  0.62192137  0.66143619  1
  O  O235  1  0.49048417  0.62042802  0.90898564  1
  O  O236  1  0.50234250  0.87472445  0.16275066  1
  O  O237  1  0.50892995  0.87247829  0.41686881  1
  O  O238  1  0.50087356  0.87532864  0.65519052  1
  O  O239  1  0.49841933  0.87602852  0.91242025  1
  O  O240  1  0.75480375  0.12512878  0.16243411  1
  O  O241  1  0.75114592  0.12446973  0.40898417  1
  O  O242  1  0.76093728  0.12756707  0.66873665  1
  O  O243  1  0.75075275  0.12693796  0.91999059  1
  O  O244  1  0.74176716  0.37803015  0.16162343  1
  O  O245  1  0.74077587  0.37702497  0.41262381  1
  O  O246  1  0.75302903  0.37535095  0.66649324  1
  O  O247  1  0.74293796  0.37461121  0.91777870  1
  O  O248  1  0.74872380  0.62387976  0.15860503  1
  O  O249  1  0.74149130  0.62679242  0.41039110  1
  O  O250  1  0.76262812  0.62275863  0.66642462  1
  O  O251  1  0.75833882  0.62336597  0.91483813  1
  O  O252  1  0.74256007  0.87436577  0.15748323  1
  O  O253  1  0.74231042  0.87292373  0.40946986  1
  O  O254  1  0.76059096  0.87419074  0.66523946  1
  O  O255  1  0.74979244  0.87489000  0.91856440  1
  O  O256  1  0.12754912  0.12793305  0.05412039  1
  O  O257  1  0.12363839  0.13440548  0.28126640  1
  O  O258  1  0.11170232  0.12398232  0.53376695  1
  O  O259  1  0.12049409  0.12900050  0.78541734  1
  O  O260  1  0.12870990  0.37438696  0.05617352  1
  O  O261  1  0.12936390  0.36905252  0.27996823  1
  O  O262  1  0.11472488  0.37422009  0.54192456  1
  O  O263  1  0.11600731  0.37341018  0.78811727  1
  O  O264  1  0.13177288  0.61886633  0.06420775  1
  O  O265  1  0.13125747  0.61492072  0.27176920  1
  O  O266  1  0.12716994  0.62544774  0.53202806  1
  O  O267  1  0.12220063  0.62619613  0.80012424  1
  O  O268  1  0.13342094  0.87850005  0.04654463  1
  O  O269  1  0.13185769  0.87850414  0.27509842  1
  O  O270  1  0.11543292  0.87609413  0.54278189  1
  O  O271  1  0.12337018  0.87281100  0.80265798  1
  O  O272  1  0.37311965  0.12786712  0.04953714  1
  O  O273  1  0.38236119  0.12525592  0.29660906  1
  O  O274  1  0.38152985  0.12666683  0.53123566  1
  O  O275  1  0.37661055  0.12992234  0.79635608  1
  O  O276  1  0.37507179  0.37464899  0.05114617  1
  O  O277  1  0.38834631  0.37503724  0.29559154  1
  O  O278  1  0.38154454  0.37051176  0.52457159  1
  O  O279  1  0.37698881  0.37523461  0.79802954  1
  O  O280  1  0.37236113  0.62098599  0.04952724  1
  O  O281  1  0.38515865  0.62690666  0.30115222  1
  O  O282  1  0.37416209  0.62109973  0.53086548  1
  O  O283  1  0.36576497  0.62053421  0.79650531  1
  O  O284  1  0.36597377  0.87790146  0.03363750  1
  O  O285  1  0.37904073  0.86817258  0.29402848  1
  O  O286  1  0.37857537  0.88102041  0.52434254  1
  O  O287  1  0.36430456  0.87599223  0.78688301  1
  O  O288  1  0.62242162  0.13395110  0.04464472  1
  O  O289  1  0.62493876  0.11740170  0.27669923  1
  O  O290  1  0.63895402  0.12466200  0.53566932  1
  O  O291  1  0.62866216  0.13129219  0.80031381  1
  O  O292  1  0.61977331  0.37796217  0.04910529  1
  O  O293  1  0.62227522  0.37824563  0.29513874  1
  O  O294  1  0.63339815  0.37497695  0.54603642  1
  O  O295  1  0.62388638  0.37292052  0.80189368  1
  O  O296  1  0.61471719  0.62140157  0.03535652  1
  O  O297  1  0.62036216  0.62704477  0.29856677  1
  O  O298  1  0.63270016  0.62450596  0.53808333  1
  O  O299  1  0.63324452  0.61571137  0.78631852  1
  O  O300  1  0.61968286  0.87332248  0.04399917  1
  O  O301  1  0.61971441  0.87134912  0.29719347  1
  O  O302  1  0.63705418  0.87393316  0.53561854  1
  O  O303  1  0.63275701  0.87447423  0.78280896  1
  O  O304  1  0.87593298  0.12617456  0.04859081  1
  O  O305  1  0.86803356  0.12454805  0.28979469  1
  O  O306  1  0.87291820  0.12527136  0.54827218  1
  O  O307  1  0.87500010  0.12478621  0.80216593  1
  O  O308  1  0.87434608  0.38266608  0.04488962  1
  O  O309  1  0.86238046  0.37463767  0.27530444  1
  O  O310  1  0.87379320  0.37356077  0.54589477  1
  O  O311  1  0.87771564  0.37401526  0.79262454  1
  O  O312  1  0.87637047  0.62204060  0.05420541  1
  O  O313  1  0.86464253  0.62912476  0.27485999  1
  O  O314  1  0.87612012  0.62401312  0.54638501  1
  O  O315  1  0.88100918  0.62591297  0.80271612  1
  O  O316  1  0.88528036  0.87796542  0.03895824  1
  O  O317  1  0.86723703  0.86817869  0.27615662  1
  O  O318  1  0.87823823  0.87588048  0.54634120  1
  O  O319  1  0.88402523  0.87267724  0.79416619  1
