# generated using pymatgen
data_VFe(PbO3)2
_symmetry_space_group_name_H-M   'P 1'
_cell_length_a   15.37260699
_cell_length_b   15.37705112
_cell_length_c   18.54810151
_cell_angle_alpha   90.02091369
_cell_angle_beta   90.03052126
_cell_angle_gamma   89.99900554
_symmetry_Int_Tables_number   1
_chemical_formula_structural   VFe(PbO3)2
_chemical_formula_sum   'V32 Fe32 Pb64 O192'
_cell_volume   4384.49880532
_cell_formula_units_Z   32
loop_
 _symmetry_equiv_pos_site_id
 _symmetry_equiv_pos_as_xyz
  1  'x, y, z'
loop_
 _atom_site_type_symbol
 _atom_site_label
 _atom_site_symmetry_multiplicity
 _atom_site_fract_x
 _atom_site_fract_y
 _atom_site_fract_z
 _atom_site_occupancy
  V  V0  1  0.37280230  0.12568466  0.13565898  1
  V  V1  1  0.87717114  0.87501795  0.13861511  1
  V  V2  1  0.12254268  0.12691858  0.63918915  1
  V  V3  1  0.37538767  0.62468306  0.89268482  1
  V  V4  1  0.12894268  0.87831237  0.39422305  1
  V  V5  1  0.12715319  0.63468971  0.13737995  1
  V  V6  1  0.37480896  0.37396344  0.14029199  1
  V  V7  1  0.12508478  0.37393358  0.14136761  1
  V  V8  1  0.87511637  0.87478759  0.88981501  1
  V  V9  1  0.37311724  0.37457294  0.88707783  1
  V  V10  1  0.12606906  0.62290855  0.63836810  1
  V  V11  1  0.87654520  0.12699633  0.64238309  1
  V  V12  1  0.62213883  0.87607191  0.38899438  1
  V  V13  1  0.62654907  0.37737656  0.64086998  1
  V  V14  1  0.87613394  0.12695676  0.13904605  1
  V  V15  1  0.12556592  0.12577636  0.39138875  1
  V  V16  1  0.87542887  0.12501145  0.88769542  1
  V  V17  1  0.37465828  0.87585047  0.88777868  1
  V  V18  1  0.87620310  0.62491086  0.63939751  1
  V  V19  1  0.12202126  0.37602641  0.64058338  1
  V  V20  1  0.37657472  0.62869232  0.38615729  1
  V  V21  1  0.62618471  0.62444421  0.89297039  1
  V  V22  1  0.12756390  0.62634978  0.38784770  1
  V  V23  1  0.62764538  0.12579074  0.64182536  1
  V  V24  1  0.63044143  0.62287694  0.63455222  1
  V  V25  1  0.12582193  0.12441204  0.88670158  1
  V  V26  1  0.62455347  0.62485498  0.13921295  1
  V  V27  1  0.38464155  0.62345554  0.64022670  1
  V  V28  1  0.37687845  0.12121867  0.39389205  1
  V  V29  1  0.62564594  0.12423796  0.38786477  1
  V  V30  1  0.12663628  0.12626972  0.13751239  1
  V  V31  1  0.12374337  0.62500649  0.88855113  1
  Fe  Fe32  1  0.37291954  0.87476333  0.13196616  1
  Fe  Fe33  1  0.62195852  0.37353327  0.37859032  1
  Fe  Fe34  1  0.12444363  0.88106739  0.12941851  1
  Fe  Fe35  1  0.37614117  0.87250855  0.63635826  1
  Fe  Fe36  1  0.87621878  0.37619914  0.88563883  1
  Fe  Fe37  1  0.12844594  0.37286884  0.38481106  1
  Fe  Fe38  1  0.62390391  0.62656467  0.37897620  1
  Fe  Fe39  1  0.62644600  0.87096067  0.89637676  1
  Fe  Fe40  1  0.87474407  0.62506744  0.88727186  1
  Fe  Fe41  1  0.37433863  0.87470415  0.38934232  1
  Fe  Fe42  1  0.87265049  0.37365631  0.63989643  1
  Fe  Fe43  1  0.87257676  0.87634846  0.63522569  1
  Fe  Fe44  1  0.62371476  0.37798417  0.89111720  1
  Fe  Fe45  1  0.62508969  0.87227084  0.63665312  1
  Fe  Fe46  1  0.87862893  0.62554619  0.14448196  1
  Fe  Fe47  1  0.87538585  0.12155439  0.38272163  1
  Fe  Fe48  1  0.37319276  0.37422040  0.38773656  1
  Fe  Fe49  1  0.62422992  0.12349120  0.13259677  1
  Fe  Fe50  1  0.37175980  0.62123050  0.13376584  1
  Fe  Fe51  1  0.12231462  0.87400138  0.63707687  1
  Fe  Fe52  1  0.37559222  0.12876796  0.64521820  1
  Fe  Fe53  1  0.37332371  0.12497429  0.87593342  1
  Fe  Fe54  1  0.87590303  0.87791887  0.38677301  1
  Fe  Fe55  1  0.87655009  0.62897026  0.37650315  1
  Fe  Fe56  1  0.12343596  0.87215915  0.89059957  1
  Fe  Fe57  1  0.62454815  0.37161596  0.13749711  1
  Fe  Fe58  1  0.87701886  0.37238925  0.37826053  1
  Fe  Fe59  1  0.62590296  0.87646879  0.12717615  1
  Fe  Fe60  1  0.37567370  0.37867750  0.63631787  1
  Fe  Fe61  1  0.62340758  0.12511362  0.88538669  1
  Fe  Fe62  1  0.87665144  0.37461895  0.14128380  1
  Fe  Fe63  1  0.12590099  0.37776638  0.88508857  1
  Pb  Pb64  1  0.00404858  -0.00220401  -0.00022963  1
  Pb  Pb65  1  -0.00617951  0.00184420  0.25216798  1
  Pb  Pb66  1  -0.00152989  -0.00694398  0.50294542  1
  Pb  Pb67  1  0.00496721  -0.00826574  0.75152071  1
  Pb  Pb68  1  -0.00467930  0.25709659  -0.00136847  1
  Pb  Pb69  1  -0.00179565  0.25036510  0.25341676  1
  Pb  Pb70  1  -0.00823044  0.25905710  0.49950218  1
  Pb  Pb71  1  -0.00123594  0.26163639  0.75434877  1
  Pb  Pb72  1  -0.01225527  0.49670955  0.00376197  1
  Pb  Pb73  1  -0.00484160  0.49634563  0.25037183  1
  Pb  Pb74  1  -0.00659652  0.49734061  0.49111079  1
  Pb  Pb75  1  -0.00991612  0.50064700  0.75521244  1
  Pb  Pb76  1  -0.00252334  0.74382320  0.00252279  1
  Pb  Pb77  1  -0.00905034  0.75735202  0.25557165  1
  Pb  Pb78  1  0.00004366  0.75680669  0.49990626  1
  Pb  Pb79  1  -0.00119790  0.75166011  0.74998882  1
  Pb  Pb80  1  0.25128202  -0.00980771  -0.00104401  1
  Pb  Pb81  1  0.25388932  -0.00575901  0.24837377  1
  Pb  Pb82  1  0.25857406  0.00218056  0.50859683  1
  Pb  Pb83  1  0.25382543  -0.00170032  0.74580667  1
  Pb  Pb84  1  0.25038463  0.24799275  -0.00508629  1
  Pb  Pb85  1  0.25214210  0.25528769  0.25609595  1
  Pb  Pb86  1  0.25949959  0.24913976  0.50628051  1
  Pb  Pb87  1  0.25168747  0.25347515  0.74839315  1
  Pb  Pb88  1  0.25092903  0.50623771  0.00138313  1
  Pb  Pb89  1  0.24917499  0.48899736  0.25383618  1
  Pb  Pb90  1  0.25378989  0.49533984  0.49844660  1
  Pb  Pb91  1  0.24337015  0.49732635  0.75119374  1
  Pb  Pb92  1  0.25573501  0.75267063  0.00238624  1
  Pb  Pb93  1  0.25940427  0.75871725  0.24742132  1
  Pb  Pb94  1  0.24940861  0.75714757  0.50444553  1
  Pb  Pb95  1  0.24493702  0.75502865  0.75000719  1
  Pb  Pb96  1  0.50512575  0.00405132  -0.00511680  1
  Pb  Pb97  1  0.50117535  -0.00704346  0.24135234  1
  Pb  Pb98  1  0.50050621  -0.00509292  0.50778937  1
  Pb  Pb99  1  0.49880567  0.00437687  0.74899318  1
  Pb  Pb100  1  0.51045979  0.24675136  -0.00163334  1
  Pb  Pb101  1  0.50189443  0.25374804  0.24924116  1
  Pb  Pb102  1  0.49293368  0.24977142  0.50221155  1
  Pb  Pb103  1  0.50365065  0.25051124  0.75321316  1
  Pb  Pb104  1  0.49831805  0.50160887  0.00341329  1
  Pb  Pb105  1  0.50767123  0.49950385  0.25159591  1
  Pb  Pb106  1  0.50137347  0.49487957  0.49204154  1
  Pb  Pb107  1  0.50943733  0.49512328  0.75422998  1
  Pb  Pb108  1  0.49429478  0.75544277  0.00479916  1
  Pb  Pb109  1  0.49949882  0.75009480  0.24155808  1
  Pb  Pb110  1  0.50246983  0.76054764  0.50321014  1
  Pb  Pb111  1  0.50809934  0.76125727  0.75540966  1
  Pb  Pb112  1  0.74117115  0.00120084  -0.00034766  1
  Pb  Pb113  1  0.75648333  0.00008761  0.24731562  1
  Pb  Pb114  1  0.75254466  -0.00639000  0.50045096  1
  Pb  Pb115  1  0.74097046  0.00034346  0.75255765  1
  Pb  Pb116  1  0.74071589  0.25647251  0.00106995  1
  Pb  Pb117  1  0.74866366  0.25500452  0.24634042  1
  Pb  Pb118  1  0.75680534  0.25893381  0.49436811  1
  Pb  Pb119  1  0.73959469  0.25286910  0.75797652  1
  Pb  Pb120  1  0.75791934  0.48793730  0.00468317  1
  Pb  Pb121  1  0.74818956  0.49780423  0.24657213  1
  Pb  Pb122  1  0.75181161  0.49981132  0.48360254  1
  Pb  Pb123  1  0.75986048  0.50056422  0.75592243  1
  Pb  Pb124  1  0.75626791  0.74063233  0.00514087  1
  Pb  Pb125  1  0.74888097  0.74497914  0.24939962  1
  Pb  Pb126  1  0.75515856  0.75099957  0.49186996  1
  Pb  Pb127  1  0.74628905  0.75552398  0.75094103  1
  O  O128  1  0.12688670  0.00762690  0.16267680  1
  O  O129  1  0.13103245  -0.00169005  0.41861377  1
  O  O130  1  0.12059140  0.00770000  0.66203918  1
  O  O131  1  0.12327107  0.00629906  0.91194556  1
  O  O132  1  0.12788569  0.24749367  0.16787242  1
  O  O133  1  0.13134446  0.24014438  0.41247864  1
  O  O134  1  0.12111762  0.24809766  0.66462715  1
  O  O135  1  0.12457240  0.24265132  0.91305642  1
  O  O136  1  0.12691342  0.48872636  0.16122458  1
  O  O137  1  0.12723662  0.50835890  0.40937273  1
  O  O138  1  0.12068456  0.50429935  0.66489043  1
  O  O139  1  0.12778569  0.50784402  0.91245886  1
  O  O140  1  0.12795613  0.74944502  0.14966537  1
  O  O141  1  0.12796363  0.75332778  0.41479564  1
  O  O142  1  0.11951374  0.74070234  0.66430181  1
  O  O143  1  0.12727511  0.74273475  0.91539071  1
  O  O144  1  0.37141750  0.00778361  0.15712681  1
  O  O145  1  0.37466835  0.00330915  0.41967018  1
  O  O146  1  0.37506527  -0.00094280  0.66364938  1
  O  O147  1  0.37221677  -0.00661704  0.90322276  1
  O  O148  1  0.37289848  0.25030932  0.16445767  1
  O  O149  1  0.37334619  0.24134302  0.41603708  1
  O  O150  1  0.37448134  0.25648286  0.66776496  1
  O  O151  1  0.36915672  0.25649735  0.90339527  1
  O  O152  1  0.36942126  0.49204623  0.16121601  1
  O  O153  1  0.37030008  0.50966836  0.41175417  1
  O  O154  1  0.37161869  0.50798630  0.66842483  1
  O  O155  1  0.37271033  0.49785704  0.91728681  1
  O  O156  1  0.37050260  0.74623532  0.16066250  1
  O  O157  1  0.37181926  0.74448770  0.41365876  1
  O  O158  1  0.37232463  0.73719644  0.66814538  1
  O  O159  1  0.37307807  0.75030518  0.91577384  1
  O  O160  1  0.62514546  -0.00022361  0.16257749  1
  O  O161  1  0.61976810  0.00123095  0.41690879  1
  O  O162  1  0.62657984  0.00667674  0.66146578  1
  O  O163  1  0.62652240  -0.00091720  0.91190186  1
  O  O164  1  0.62219821  0.24532787  0.16590766  1
  O  O165  1  0.61915507  0.24001854  0.40961804  1
  O  O166  1  0.62635364  0.25466295  0.66455020  1
  O  O167  1  0.62510278  0.25061731  0.91427036  1
  O  O168  1  0.62333544  0.50421558  0.16163262  1
  O  O169  1  0.62279257  0.50051957  0.40872522  1
  O  O170  1  0.62571987  0.50016345  0.66588985  1
  O  O171  1  0.62064203  0.50747079  0.91881780  1
  O  O172  1  0.62533364  0.74719871  0.15866754  1
  O  O173  1  0.62299779  0.75808895  0.40867696  1
  O  O174  1  0.62611698  0.74142400  0.66489813  1
  O  O175  1  0.62276356  0.74059269  0.92013035  1
  O  O176  1  0.87834785  -0.00026759  0.16243626  1
  O  O177  1  0.87535389  0.00146754  0.41885974  1
  O  O178  1  0.87168258  0.01009048  0.66684913  1
  O  O179  1  0.87781276  -0.00117049  0.91349077  1
  O  O180  1  0.87826156  0.24243050  0.16094395  1
  O  O181  1  0.87701254  0.24520471  0.41308462  1
  O  O182  1  0.87222637  0.24348804  0.66904872  1
  O  O183  1  0.87968188  0.24210801  0.90886189  1
  O  O184  1  0.88119338  0.50054243  0.16521169  1
  O  O185  1  0.87965557  0.50185991  0.40343167  1
  O  O186  1  0.87446996  0.50454736  0.66506122  1
  O  O187  1  0.87645879  0.50210749  0.91779093  1
  O  O188  1  0.87971413  0.75753065  0.16307101  1
  O  O189  1  0.87728320  0.75245718  0.41226572  1
  O  O190  1  0.87469594  0.74287251  0.66121437  1
  O  O191  1  0.87637240  0.75438943  0.91470873  1
  O  O192  1  -0.00038082  0.12427709  0.16238375  1
  O  O193  1  0.01062029  0.11895025  0.41133090  1
  O  O194  1  -0.00237651  0.12764610  0.66449434  1
  O  O195  1  0.00020087  0.12272363  0.91401028  1
  O  O196  1  0.00854165  0.36723320  0.16253624  1
  O  O197  1  0.00384204  0.37261748  0.41315970  1
  O  O198  1  0.00106698  0.37460567  0.66619623  1
  O  O199  1  0.00269014  0.37448972  0.91569535  1
  O  O200  1  0.01518381  0.62283557  0.16767423  1
  O  O201  1  0.00965166  0.63011720  0.41032122  1
  O  O202  1  -0.00267218  0.62306096  0.66239530  1
  O  O203  1  0.00668233  0.62722671  0.91165209  1
  O  O204  1  -0.00190219  0.87857377  0.16204881  1
  O  O205  1  0.00857974  0.87750568  0.41439513  1
  O  O206  1  -0.00343828  0.87527412  0.66778979  1
  O  O207  1  -0.00657485  0.87517820  0.91629062  1
  O  O208  1  0.25436202  0.12829004  0.16454875  1
  O  O209  1  0.25241697  0.12025225  0.41927372  1
  O  O210  1  0.23879447  0.12738434  0.66299273  1
  O  O211  1  0.24492121  0.12445817  0.90788810  1
  O  O212  1  0.25012590  0.36895415  0.16605805  1
  O  O213  1  0.24963936  0.37498797  0.41944308  1
  O  O214  1  0.24417485  0.37907508  0.66482756  1
  O  O215  1  0.25384718  0.37738164  0.91555379  1
  O  O216  1  0.24007735  0.61866987  0.16586002  1
  O  O217  1  0.24789947  0.62916384  0.41597776  1
  O  O218  1  0.24195847  0.62338257  0.66170266  1
  O  O219  1  0.24867624  0.62476778  0.91481090  1
  O  O220  1  0.24747895  0.87845236  0.16424993  1
  O  O221  1  0.24732092  0.87520086  0.41965803  1
  O  O222  1  0.24872633  0.87042411  0.66364524  1
  O  O223  1  0.25408338  0.87281291  0.91103030  1
  O  O224  1  0.48933168  0.12647799  0.15968187  1
  O  O225  1  0.49732948  0.12197104  0.41699152  1
  O  O226  1  0.50950221  0.12939053  0.66333541  1
  O  O227  1  0.49493560  0.12480143  0.90770145  1
  O  O228  1  0.49173138  0.37383244  0.16045716  1
  O  O229  1  0.49837659  0.37292098  0.41408349  1
  O  O230  1  0.50673209  0.37939241  0.66543900  1
  O  O231  1  0.48882566  0.37755961  0.91372421  1
  O  O232  1  0.50248592  0.62383744  0.15994575  1
  O  O233  1  0.49243392  0.62648515  0.40718929  1
  O  O234  1  0.49983284  0.62124066  0.65849252  1
  O  O235  1  0.49956189  0.62445921  0.91875862  1
  O  O236  1  0.49927193  0.87448824  0.15757195  1
  O  O237  1  0.50279754  0.87706150  0.41524303  1
  O  O238  1  0.50086286  0.87128331  0.66914831  1
  O  O239  1  0.49195809  0.87072226  0.91200050  1
  O  O240  1  0.75780904  0.12224773  0.15975320  1
  O  O241  1  0.74120413  0.12115174  0.40887372  1
  O  O242  1  0.74815679  0.12875380  0.66755071  1
  O  O243  1  0.76026606  0.12249203  0.91082517  1
  O  O244  1  0.75022990  0.37314208  0.16244778  1
  O  O245  1  0.74890907  0.37098878  0.40538986  1
  O  O246  1  0.74345762  0.37685017  0.66506442  1
  O  O247  1  0.75111866  0.37631334  0.91430153  1
  O  O248  1  0.74562710  0.62676747  0.16217532  1
  O  O249  1  0.75025150  0.62842095  0.40678855  1
  O  O250  1  0.75290378  0.62228212  0.66165048  1
  O  O251  1  0.74391848  0.62543128  0.91465432  1
  O  O252  1  0.75765305  0.87630383  0.15881319  1
  O  O253  1  0.74209545  0.87981246  0.41037001  1
  O  O254  1  0.74953708  0.87456776  0.66774888  1
  O  O255  1  0.75987734  0.87377430  0.91658186  1
  O  O256  1  0.12825507  0.12894360  0.04653337  1
  O  O257  1  0.12986513  0.12184086  0.30068258  1
  O  O258  1  0.12131337  0.12846398  0.54870322  1
  O  O259  1  0.12179945  0.12493148  0.79597483  1
  O  O260  1  0.12937397  0.36898916  0.05016920  1
  O  O261  1  0.13412898  0.37023182  0.28520942  1
  O  O262  1  0.12235046  0.37626883  0.54946152  1
  O  O263  1  0.12736865  0.37456156  0.78573149  1
  O  O264  1  0.12564510  0.62115945  0.04638835  1
  O  O265  1  0.12976565  0.63057898  0.29764013  1
  O  O266  1  0.12373967  0.62279616  0.54777074  1
  O  O267  1  0.12588211  0.62644541  0.79720287  1
  O  O268  1  0.12715873  0.88464542  0.02901828  1
  O  O269  1  0.12975938  0.87956013  0.30324130  1
  O  O270  1  0.12032222  0.87073155  0.53743238  1
  O  O271  1  0.11893992  0.87152154  0.79032105  1
  O  O272  1  0.36943411  0.13000734  0.04475569  1
  O  O273  1  0.37708448  0.12067606  0.30343751  1
  O  O274  1  0.37160838  0.13161709  0.54391223  1
  O  O275  1  0.37353358  0.12318363  0.77540628  1
  O  O276  1  0.37046371  0.37002681  0.04962910  1
  O  O277  1  0.36705018  0.37330774  0.28741409  1
  O  O278  1  0.37529424  0.37667862  0.53647731  1
  O  O279  1  0.37221461  0.38323040  0.79601588  1
  O  O280  1  0.36944232  0.62044568  0.03399727  1
  O  O281  1  0.37158430  0.62833518  0.29504697  1
  O  O282  1  0.37757698  0.62425296  0.54959527  1
  O  O283  1  0.37654804  0.62339329  0.80210413  1
  O  O284  1  0.36776982  0.87434406  0.03177166  1
  O  O285  1  0.36698833  0.87595978  0.28963519  1
  O  O286  1  0.38116471  0.86880545  0.53569691  1
  O  O287  1  0.37430029  0.86693877  0.79637508  1
  O  O288  1  0.62192047  0.12510612  0.03184850  1
  O  O289  1  0.62077387  0.12032230  0.29720149  1
  O  O290  1  0.63055870  0.12948197  0.55143562  1
  O  O291  1  0.62953804  0.13097849  0.78453011  1
  O  O292  1  0.62338830  0.36770694  0.03585640  1
  O  O293  1  0.61650469  0.37537994  0.27789777  1
  O  O294  1  0.62518166  0.37748087  0.55022723  1
  O  O295  1  0.61808867  0.37762243  0.79074448  1
  O  O296  1  0.62567304  0.62331700  0.04826839  1
  O  O297  1  0.62214495  0.62652561  0.27943875  1
  O  O298  1  0.62861778  0.62309870  0.54384756  1
  O  O299  1  0.62326175  0.62347875  0.80182282  1
  O  O300  1  0.62421764  0.87815430  0.02652656  1
  O  O301  1  0.62019662  0.88040903  0.29821636  1
  O  O302  1  0.61797687  0.87423831  0.53683139  1
  O  O303  1  0.62762430  0.86230087  0.79485997  1
  O  O304  1  0.87756492  0.12393830  0.04828597  1
  O  O305  1  0.87816421  0.11639191  0.28287953  1
  O  O306  1  0.87420696  0.12770981  0.55158790  1
  O  O307  1  0.87673975  0.12191084  0.79722825  1
  O  O308  1  0.88135615  0.37802898  0.03938840  1
  O  O309  1  0.88417364  0.36702647  0.27770119  1
  O  O310  1  0.87524608  0.36703634  0.53968546  1
  O  O311  1  0.87798863  0.38285232  0.78416641  1
  O  O312  1  0.88154809  0.63200820  0.04280357  1
  O  O313  1  0.88022482  0.63677988  0.27522365  1
  O  O314  1  0.87659192  0.62252570  0.54858653  1
  O  O315  1  0.87399168  0.61773250  0.78768184  1
  O  O316  1  0.87903055  0.87534563  0.04772392  1
  O  O317  1  0.88237410  0.87854313  0.28623080  1
  O  O318  1  0.87462035  0.87930746  0.53505148  1
  O  O319  1  0.87488936  0.87486430  0.79855489  1
