# generated using pymatgen
data_VFe(PbO3)2
_symmetry_space_group_name_H-M   'P 1'
_cell_length_a   15.38126230
_cell_length_b   15.40522016
_cell_length_c   18.53186744
_cell_angle_alpha   89.98757176
_cell_angle_beta   90.01364566
_cell_angle_gamma   89.99361987
_symmetry_Int_Tables_number   1
_chemical_formula_structural   VFe(PbO3)2
_chemical_formula_sum   'V32 Fe32 Pb64 O192'
_cell_volume   4391.15783497
_cell_formula_units_Z   32
loop_
 _symmetry_equiv_pos_site_id
 _symmetry_equiv_pos_as_xyz
  1  'x, y, z'
loop_
 _atom_site_type_symbol
 _atom_site_label
 _atom_site_symmetry_multiplicity
 _atom_site_fract_x
 _atom_site_fract_y
 _atom_site_fract_z
 _atom_site_occupancy
  V  V0  1  0.87540561  0.12869918  0.38753668  1
  V  V1  1  0.37669975  0.87634427  0.88546194  1
  V  V2  1  0.62343468  0.37335185  0.64916789  1
  V  V3  1  0.12245528  0.37638080  0.39111520  1
  V  V4  1  0.12680132  0.86866363  0.14189769  1
  V  V5  1  0.87375806  0.62253534  0.39147000  1
  V  V6  1  0.62620495  0.87335206  0.13944702  1
  V  V7  1  0.62697647  0.37772659  0.38720352  1
  V  V8  1  0.37549875  0.63100058  0.64784294  1
  V  V9  1  0.87257865  0.12482348  0.64383685  1
  V  V10  1  0.12577601  0.61928073  0.13615995  1
  V  V11  1  0.37792700  0.87455665  0.14443433  1
  V  V12  1  0.12637818  0.12849808  0.64301364  1
  V  V13  1  0.37645226  0.62265899  0.39151178  1
  V  V14  1  0.37425884  0.37585910  0.64320176  1
  V  V15  1  0.62339978  0.62630725  0.13188467  1
  V  V16  1  0.12479997  0.36640883  0.13358931  1
  V  V17  1  0.87493652  0.37431603  0.64689282  1
  V  V18  1  0.62568979  0.62187303  0.38783574  1
  V  V19  1  0.12413008  0.62292532  0.39090510  1
  V  V20  1  0.37464838  0.12319442  0.89030428  1
  V  V21  1  0.12342016  0.87341367  0.64196658  1
  V  V22  1  0.12493376  0.62916238  0.88436516  1
  V  V23  1  0.12628637  0.35722491  0.88285961  1
  V  V24  1  0.87461726  0.87713819  0.88457217  1
  V  V25  1  0.87424551  0.87522010  0.64032655  1
  V  V26  1  0.87397516  0.62408598  0.65003040  1
  V  V27  1  0.62601032  0.62275839  0.65526680  1
  V  V28  1  0.63022394  0.12018811  0.89141487  1
  V  V29  1  0.37512477  0.88240143  0.63571946  1
  V  V30  1  0.37746863  0.12955326  0.63535178  1
  V  V31  1  0.12576421  0.11608727  0.14441717  1
  Fe  Fe32  1  0.62424368  0.12846803  0.63608042  1
  Fe  Fe33  1  0.37475653  0.12933516  0.37810009  1
  Fe  Fe34  1  0.87356767  0.37838066  0.38569686  1
  Fe  Fe35  1  0.62486630  0.12498171  0.13411210  1
  Fe  Fe36  1  0.37328157  0.62567686  0.88167383  1
  Fe  Fe37  1  0.62793749  0.12725477  0.37988706  1
  Fe  Fe38  1  0.87920162  0.12206304  0.88568620  1
  Fe  Fe39  1  0.37445436  0.87430745  0.38632613  1
  Fe  Fe40  1  0.12533875  0.62073965  0.64056687  1
  Fe  Fe41  1  0.37281700  0.12381854  0.14776370  1
  Fe  Fe42  1  0.87619664  0.87525957  0.13710942  1
  Fe  Fe43  1  0.62381832  0.37258117  0.89571036  1
  Fe  Fe44  1  0.62530690  0.87451835  0.64394353  1
  Fe  Fe45  1  0.12779456  0.11471326  0.88148717  1
  Fe  Fe46  1  0.62288311  0.87847656  0.88153507  1
  Fe  Fe47  1  0.62439749  0.62725277  0.87935764  1
  Fe  Fe48  1  0.12395461  0.37485851  0.64055108  1
  Fe  Fe49  1  0.87667511  0.62768401  0.88263072  1
  Fe  Fe50  1  0.87947713  0.37312451  0.89161896  1
  Fe  Fe51  1  0.87490297  0.63025332  0.12860159  1
  Fe  Fe52  1  0.87826752  0.37644707  0.12577194  1
  Fe  Fe53  1  0.12128667  0.12687134  0.38077273  1
  Fe  Fe54  1  0.12320857  0.87377139  0.38646852  1
  Fe  Fe55  1  0.62629220  0.87229508  0.38458790  1
  Fe  Fe56  1  0.87699007  0.12231391  0.13054613  1
  Fe  Fe57  1  0.37582810  0.38106021  0.38475694  1
  Fe  Fe58  1  0.12755008  0.87403852  0.88285931  1
  Fe  Fe59  1  0.62495809  0.37716261  0.12116849  1
  Fe  Fe60  1  0.37126155  0.37096201  0.89233874  1
  Fe  Fe61  1  0.37342912  0.63028711  0.13234470  1
  Fe  Fe62  1  0.37280883  0.37773659  0.12992279  1
  Fe  Fe63  1  0.87441268  0.87497867  0.38575371  1
  Pb  Pb64  1  -0.00222658  -0.00194808  -0.00221244  1
  Pb  Pb65  1  -0.00052868  -0.00297884  0.25128096  1
  Pb  Pb66  1  0.00011120  -0.00036719  0.49522243  1
  Pb  Pb67  1  0.00198826  0.00680628  0.75293123  1
  Pb  Pb68  1  -0.00959435  0.23805932  -0.00108769  1
  Pb  Pb69  1  -0.00209408  0.24728370  0.24626724  1
  Pb  Pb70  1  0.00211601  0.25682989  0.50087516  1
  Pb  Pb71  1  -0.00881187  0.24392414  0.75575190  1
  Pb  Pb72  1  -0.00581017  0.50421393  -0.00569400  1
  Pb  Pb73  1  -0.00846774  0.49746253  0.24531577  1
  Pb  Pb74  1  0.00691163  0.50078774  0.50952060  1
  Pb  Pb75  1  -0.00302572  0.49797731  0.75494396  1
  Pb  Pb76  1  -0.00766934  0.75264660  -0.00167715  1
  Pb  Pb77  1  -0.00426434  0.75628774  0.25100514  1
  Pb  Pb78  1  0.00035680  0.74624090  0.50025483  1
  Pb  Pb79  1  -0.00307053  0.74799205  0.75237769  1
  Pb  Pb80  1  0.25341002  0.00160189  0.00117656  1
  Pb  Pb81  1  0.25129263  -0.00533224  0.25874858  1
  Pb  Pb82  1  0.25048374  0.00394046  0.48847931  1
  Pb  Pb83  1  0.24097611  0.00044276  0.75044009  1
  Pb  Pb84  1  0.26743960  0.24004682  0.01199689  1
  Pb  Pb85  1  0.26067251  0.25098058  0.25306980  1
  Pb  Pb86  1  0.25219609  0.25043489  0.49289753  1
  Pb  Pb87  1  0.25627017  0.25045844  0.75173857  1
  Pb  Pb88  1  0.25724829  0.50180427  -0.00400657  1
  Pb  Pb89  1  0.25604068  0.49805668  0.24675951  1
  Pb  Pb90  1  0.23992655  0.50009679  0.50781189  1
  Pb  Pb91  1  0.25656739  0.49747001  0.75550417  1
  Pb  Pb92  1  0.25376021  0.74553177  -0.00253427  1
  Pb  Pb93  1  0.24919848  0.75734495  0.25606346  1
  Pb  Pb94  1  0.24742718  0.74763989  0.49957948  1
  Pb  Pb95  1  0.24496766  0.75455795  0.75187190  1
  Pb  Pb96  1  0.50146089  0.00974992  0.00635075  1
  Pb  Pb97  1  0.50588656  0.01158404  0.25470639  1
  Pb  Pb98  1  0.50465571  0.00518989  0.48944576  1
  Pb  Pb99  1  0.50830949  0.00007708  0.74873854  1
  Pb  Pb100  1  0.50575966  0.24768200  0.00474247  1
  Pb  Pb101  1  0.50153797  0.25097681  0.23860549  1
  Pb  Pb102  1  0.50126854  0.24553774  0.49258996  1
  Pb  Pb103  1  0.50114163  0.26263443  0.76147873  1
  Pb  Pb104  1  0.49837680  0.49737658  -0.01120325  1
  Pb  Pb105  1  0.49532451  0.49512376  0.23788071  1
  Pb  Pb106  1  0.49947486  0.50296621  0.50328894  1
  Pb  Pb107  1  0.49784453  0.50333863  0.76350217  1
  Pb  Pb108  1  0.49979132  0.74456712  -0.00835986  1
  Pb  Pb109  1  0.50189868  0.75721613  0.25329176  1
  Pb  Pb110  1  0.50748139  0.76058014  0.50383726  1
  Pb  Pb111  1  0.50450189  0.74697595  0.75580374  1
  Pb  Pb112  1  0.76032491  -0.00314143  0.00353290  1
  Pb  Pb113  1  0.74889249  0.00431748  0.24603535  1
  Pb  Pb114  1  0.73921829  -0.00136276  0.49749562  1
  Pb  Pb115  1  0.74802488  0.00115241  0.74892314  1
  Pb  Pb116  1  0.75279522  0.25538479  -0.00095144  1
  Pb  Pb117  1  0.74984752  0.25183562  0.23309493  1
  Pb  Pb118  1  0.74610157  0.24478191  0.50056021  1
  Pb  Pb119  1  0.75053689  0.25739771  0.76292156  1
  Pb  Pb120  1  0.75188495  0.49908061  -0.01169130  1
  Pb  Pb121  1  0.75572538  0.49406747  0.23703622  1
  Pb  Pb122  1  0.75090780  0.50166780  0.50353199  1
  Pb  Pb123  1  0.75049844  0.48807970  0.76575371  1
  Pb  Pb124  1  0.75291877  0.74898613  -0.00800228  1
  Pb  Pb125  1  0.75131637  0.75586668  0.24911124  1
  Pb  Pb126  1  0.74411053  0.75677159  0.50421982  1
  Pb  Pb127  1  0.74896697  0.74329265  0.75696643  1
  O  O128  1  0.12645286  -0.00223723  0.16454171  1
  O  O129  1  0.12178086  0.00132859  0.41371134  1
  O  O130  1  0.12826118  -0.00189720  0.66362811  1
  O  O131  1  0.13031761  -0.00588379  0.91688399  1
  O  O132  1  0.12319835  0.25243932  0.15856511  1
  O  O133  1  0.12002657  0.25814135  0.41248657  1
  O  O134  1  0.12461074  0.24738444  0.66705381  1
  O  O135  1  0.12519174  0.24486963  0.89454735  1
  O  O136  1  0.12552327  0.50386966  0.15245207  1
  O  O137  1  0.12212292  0.49931323  0.42020003  1
  O  O138  1  0.12498313  0.49780469  0.67243110  1
  O  O139  1  0.12604544  0.51709382  0.90839932  1
  O  O140  1  0.12706558  0.75395067  0.16290564  1
  O  O141  1  0.12340441  0.74326565  0.41790302  1
  O  O142  1  0.12792859  0.75078790  0.66551313  1
  O  O143  1  0.12704589  0.75035870  0.91486023  1
  O  O144  1  0.37110426  -0.00981678  0.16839534  1
  O  O145  1  0.37437611  0.00246411  0.40905315  1
  O  O146  1  0.37339354  -0.00213380  0.65201426  1
  O  O147  1  0.37463259  0.00096617  0.91459427  1
  O  O148  1  0.36913525  0.25416189  0.16293787  1
  O  O149  1  0.37426465  0.25709591  0.41219572  1
  O  O150  1  0.37665812  0.25354291  0.66632406  1
  O  O151  1  0.37004677  0.24015115  0.91534951  1
  O  O152  1  0.36941496  0.50513751  0.16070648  1
  O  O153  1  0.37493330  0.50533214  0.42184026  1
  O  O154  1  0.37802118  0.49141445  0.66729873  1
  O  O155  1  0.36758544  0.49944303  0.90891713  1
  O  O156  1  0.37135137  0.75553559  0.16721924  1
  O  O157  1  0.37480352  0.73713319  0.41806912  1
  O  O158  1  0.37580633  0.74731374  0.66207921  1
  O  O159  1  0.37722806  0.75809341  0.90464672  1
  O  O160  1  0.62156781  -0.01055680  0.16153202  1
  O  O161  1  0.62778650  0.00086244  0.40967872  1
  O  O162  1  0.62366835  0.00249031  0.66473948  1
  O  O163  1  0.61999601  0.00396448  0.91713450  1
  O  O164  1  0.62535351  0.25343418  0.15502952  1
  O  O165  1  0.62875997  0.26043352  0.40801197  1
  O  O166  1  0.62573908  0.25520576  0.67023066  1
  O  O167  1  0.62101514  0.23606172  0.91467904  1
  O  O168  1  0.62412329  0.50973413  0.15062765  1
  O  O169  1  0.62619922  0.50085198  0.42211823  1
  O  O170  1  0.62591970  0.49099124  0.67509473  1
  O  O171  1  0.62525638  0.50228226  0.90800944  1
  O  O172  1  0.62157231  0.75206729  0.16389897  1
  O  O173  1  0.62563820  0.74044479  0.41770627  1
  O  O174  1  0.62236257  0.74711913  0.66875171  1
  O  O175  1  0.62173719  0.75469037  0.90757205  1
  O  O176  1  0.87887828  -0.00077270  0.16585287  1
  O  O177  1  0.87461563  0.00887525  0.41091617  1
  O  O178  1  0.87616673  -0.00451983  0.66263407  1
  O  O179  1  0.87413364  -0.00598784  0.91252376  1
  O  O180  1  0.88052240  0.25045424  0.15519338  1
  O  O181  1  0.87512450  0.24923845  0.41426987  1
  O  O182  1  0.87452374  0.25268997  0.66758527  1
  O  O183  1  0.88094967  0.24638746  0.91223868  1
  O  O184  1  0.87956302  0.50523744  0.15736630  1
  O  O185  1  0.87431707  0.50567461  0.42152649  1
  O  O186  1  0.87150866  0.49482972  0.67039076  1
  O  O187  1  0.88247261  0.50183170  0.90668620  1
  O  O188  1  0.87754843  0.74995826  0.16607952  1
  O  O189  1  0.87447338  0.73794230  0.41696620  1
  O  O190  1  0.87553727  0.75506249  0.66664191  1
  O  O191  1  0.87497135  0.75890736  0.90922345  1
  O  O192  1  0.00719344  0.12450716  0.16433672  1
  O  O193  1  -0.00675203  0.12933190  0.41647716  1
  O  O194  1  -0.00122020  0.12296352  0.66646440  1
  O  O195  1  0.00486424  0.11708915  0.91358367  1
  O  O196  1  0.00934747  0.37990615  0.16093875  1
  O  O197  1  0.00242429  0.37926221  0.41762322  1
  O  O198  1  -0.00792602  0.37463321  0.66590958  1
  O  O199  1  0.01655524  0.37828676  0.91241838  1
  O  O200  1  0.01069674  0.63072795  0.16207420  1
  O  O201  1  -0.00381173  0.62190608  0.41618416  1
  O  O202  1  -0.00343662  0.62413959  0.66795336  1
  O  O203  1  0.00617818  0.63526049  0.90814328  1
  O  O204  1  0.00873628  0.87504663  0.16321481  1
  O  O205  1  -0.00287345  0.87138755  0.41972763  1
  O  O206  1  -0.00255251  0.87439888  0.66365811  1
  O  O207  1  -0.00519902  0.87613536  0.90607554  1
  O  O208  1  0.24028068  0.12497217  0.16925630  1
  O  O209  1  0.24738726  0.13116235  0.40971860  1
  O  O210  1  0.25542314  0.12639720  0.66335064  1
  O  O211  1  0.25531211  0.11970576  0.91529339  1
  O  O212  1  0.23857561  0.37883330  0.16291792  1
  O  O213  1  0.24107826  0.37998735  0.41324237  1
  O  O214  1  0.25676261  0.37291357  0.66292368  1
  O  O215  1  0.23526006  0.37645880  0.91369882  1
  O  O216  1  0.24116998  0.63058365  0.16514239  1
  O  O217  1  0.25158757  0.62105932  0.41516679  1
  O  O218  1  0.25799515  0.61919331  0.66578879  1
  O  O219  1  0.24600565  0.63409316  0.90906633  1
  O  O220  1  0.24770970  0.87479506  0.16718926  1
  O  O221  1  0.24914253  0.87045428  0.41888642  1
  O  O222  1  0.25701124  0.87161100  0.66158915  1
  O  O223  1  0.26106095  0.87623870  0.91360223  1
  O  O224  1  0.49967766  0.12167236  0.16426333  1
  O  O225  1  0.50190971  0.13039586  0.40842324  1
  O  O226  1  0.49350220  0.12627598  0.66220656  1
  O  O227  1  0.49285874  0.12195104  0.91555078  1
  O  O228  1  0.50002036  0.38015177  0.15295179  1
  O  O229  1  0.50903056  0.38152735  0.41269917  1
  O  O230  1  0.50151842  0.37284022  0.66904634  1
  O  O231  1  0.49633979  0.37016402  0.91185548  1
  O  O232  1  0.50505937  0.63043200  0.15975807  1
  O  O233  1  0.49817038  0.62014831  0.41528431  1
  O  O234  1  0.49454989  0.61866693  0.67072475  1
  O  O235  1  0.49814318  0.62601230  0.90917819  1
  O  O236  1  0.49754050  0.87142336  0.16418095  1
  O  O237  1  0.50024619  0.87004186  0.41626915  1
  O  O238  1  0.48907212  0.87289873  0.66310262  1
  O  O239  1  0.49193279  0.88077229  0.91274210  1
  O  O240  1  0.75130047  0.12117996  0.15885089  1
  O  O241  1  0.75644369  0.12982863  0.41309400  1
  O  O242  1  0.75326366  0.12490492  0.66704560  1
  O  O243  1  0.74620024  0.12041943  0.90428987  1
  O  O244  1  0.75089779  0.38029571  0.15183548  1
  O  O245  1  0.74454818  0.38136184  0.41683475  1
  O  O246  1  0.75011401  0.37305159  0.67245538  1
  O  O247  1  0.75239656  0.37083557  0.91250181  1
  O  O248  1  0.74159834  0.63143966  0.15581343  1
  O  O249  1  0.75204110  0.62086554  0.41621958  1
  O  O250  1  0.75080322  0.62395429  0.67467042  1
  O  O251  1  0.75061332  0.62909474  0.90447706  1
  O  O252  1  0.74308069  0.87193262  0.16011062  1
  O  O253  1  0.75184785  0.87057161  0.41869738  1
  O  O254  1  0.75790413  0.87482803  0.66496461  1
  O  O255  1  0.75388835  0.87817566  0.90813349  1
  O  O256  1  0.12748558  0.11859880  0.05314419  1
  O  O257  1  0.11453965  0.12806674  0.28218954  1
  O  O258  1  0.12394303  0.12714935  0.55194623  1
  O  O259  1  0.12796652  0.10989853  0.78050663  1
  O  O260  1  0.12560430  0.36571623  0.04327499  1
  O  O261  1  0.12010099  0.38030489  0.30054716  1
  O  O262  1  0.12015155  0.38026886  0.54050026  1
  O  O263  1  0.12695826  0.37379206  0.79152872  1
  O  O264  1  0.12741731  0.62958914  0.04528447  1
  O  O265  1  0.12288420  0.62143516  0.30031969  1
  O  O266  1  0.12479228  0.61518055  0.54021446  1
  O  O267  1  0.12635334  0.63230820  0.79236114  1
  O  O268  1  0.12877896  0.87165024  0.05118336  1
  O  O269  1  0.12696518  0.87214769  0.28660964  1
  O  O270  1  0.12378222  0.87274757  0.55100160  1
  O  O271  1  0.13729670  0.87473113  0.78238790  1
  O  O272  1  0.36545198  0.12334001  0.04573318  1
  O  O273  1  0.37252597  0.12908866  0.27675234  1
  O  O274  1  0.37632147  0.13549895  0.54420753  1
  O  O275  1  0.37512430  0.12394853  0.79924542  1
  O  O276  1  0.36133136  0.37222548  0.02929418  1
  O  O277  1  0.37051471  0.38686715  0.28549703  1
  O  O278  1  0.37907892  0.37624030  0.55232183  1
  O  O279  1  0.36850973  0.36494422  0.79053272  1
  O  O280  1  0.36791246  0.63215700  0.03282958  1
  O  O281  1  0.37557616  0.62148252  0.30077977  1
  O  O282  1  0.37834868  0.62170986  0.55703552  1
  O  O283  1  0.37606762  0.61829621  0.78086656  1
  O  O284  1  0.37662618  0.87420340  0.05362993  1
  O  O285  1  0.36876003  0.86673200  0.28680060  1
  O  O286  1  0.37638332  0.87205992  0.54506334  1
  O  O287  1  0.37551693  0.88130045  0.79428808  1
  O  O288  1  0.61686213  0.12067332  0.03353567  1
  O  O289  1  0.62786789  0.12243442  0.27998394  1
  O  O290  1  0.62924550  0.13311299  0.53629546  1
  O  O291  1  0.61879630  0.11834562  0.79987626  1
  O  O292  1  0.62618199  0.37065992  0.02039756  1
  O  O293  1  0.62897934  0.38459557  0.29680063  1
  O  O294  1  0.62537452  0.37584556  0.55848282  1
  O  O295  1  0.62832246  0.36367835  0.79250042  1
  O  O296  1  0.62128261  0.63377743  0.04105216  1
  O  O297  1  0.62625719  0.61919526  0.29747307  1
  O  O298  1  0.62424014  0.61698827  0.56370858  1
  O  O299  1  0.61667763  0.62668578  0.77681894  1
  O  O300  1  0.62306148  0.87204934  0.04872968  1
  O  O301  1  0.62496127  0.86456860  0.28509970  1
  O  O302  1  0.62758822  0.86850821  0.54294318  1
  O  O303  1  0.61881408  0.88306985  0.78084943  1
  O  O304  1  0.88213513  0.11702854  0.02937853  1
  O  O305  1  0.87804302  0.13034695  0.29658509  1
  O  O306  1  0.87379881  0.12797662  0.55294830  1
  O  O307  1  0.88453221  0.12100877  0.78416423  1
  O  O308  1  0.88419862  0.37571271  0.02513059  1
  O  O309  1  0.87528244  0.38730917  0.28686516  1
  O  O310  1  0.87016005  0.37546807  0.55582977  1
  O  O311  1  0.87439941  0.37040251  0.78893974  1
  O  O312  1  0.88127277  0.63482914  0.02846245  1
  O  O313  1  0.87442391  0.62060507  0.30060175  1
  O  O314  1  0.86996470  0.62426900  0.55864507  1
  O  O315  1  0.87988891  0.63413350  0.78147918  1
  O  O316  1  0.87228904  0.87705010  0.03661515  1
  O  O317  1  0.87634719  0.86733460  0.28594885  1
  O  O318  1  0.87383830  0.87301303  0.54945449  1
  O  O319  1  0.87359765  0.87806722  0.79340129  1
