# generated using pymatgen
data_VFe(PbO3)2
_symmetry_space_group_name_H-M   'P 1'
_cell_length_a   15.37706406
_cell_length_b   15.38837919
_cell_length_c   18.50715587
_cell_angle_alpha   89.95735386
_cell_angle_beta   89.97486516
_cell_angle_gamma   89.99501254
_symmetry_Int_Tables_number   1
_chemical_formula_structural   VFe(PbO3)2
_chemical_formula_sum   'V32 Fe32 Pb64 O192'
_cell_volume   4379.31134133
_cell_formula_units_Z   32
loop_
 _symmetry_equiv_pos_site_id
 _symmetry_equiv_pos_as_xyz
  1  'x, y, z'
loop_
 _atom_site_type_symbol
 _atom_site_label
 _atom_site_symmetry_multiplicity
 _atom_site_fract_x
 _atom_site_fract_y
 _atom_site_fract_z
 _atom_site_occupancy
  V  V0  1  0.12470515  0.12637704  0.13601130  1
  V  V1  1  0.12655385  0.37576229  0.65135594  1
  V  V2  1  0.37414659  0.62437656  0.39050281  1
  V  V3  1  0.62275717  0.11360131  0.88865117  1
  V  V4  1  0.87534005  0.37321682  0.38999252  1
  V  V5  1  0.87986336  0.12067177  0.39015331  1
  V  V6  1  0.87102924  0.87337976  0.88483074  1
  V  V7  1  0.12725942  0.12671969  0.64693201  1
  V  V8  1  0.62317961  0.62671229  0.88604612  1
  V  V9  1  0.87722931  0.87469355  0.63672371  1
  V  V10  1  0.12643796  0.62889497  0.88641455  1
  V  V11  1  0.12371201  0.87216627  0.13836115  1
  V  V12  1  0.12670938  0.62472669  0.64412779  1
  V  V13  1  0.62458609  0.36589900  0.89103192  1
  V  V14  1  0.37537076  0.37390554  0.64627354  1
  V  V15  1  0.87621775  0.12541291  0.64175677  1
  V  V16  1  0.12244319  0.37581689  0.38834053  1
  V  V17  1  0.37844780  0.87404183  0.88765081  1
  V  V18  1  0.87521265  0.62501267  0.13985392  1
  V  V19  1  0.87508535  0.87529839  0.14314588  1
  V  V20  1  0.62478473  0.62619973  0.14514757  1
  V  V21  1  0.37736605  0.12545786  0.63943354  1
  V  V22  1  0.87424198  0.37062065  0.13250804  1
  V  V23  1  0.62513142  0.87540285  0.14753042  1
  V  V24  1  0.37437420  0.62702992  0.13873671  1
  V  V25  1  0.62548266  0.37759274  0.38826740  1
  V  V26  1  0.62274899  0.62058952  0.63666581  1
  V  V27  1  0.12528597  0.62329251  0.38975893  1
  V  V28  1  0.37344544  0.62308604  0.64410594  1
  V  V29  1  0.12278613  0.87382069  0.38975001  1
  V  V30  1  0.62369677  0.37084241  0.63984788  1
  V  V31  1  0.37696891  0.37568904  0.13743719  1
  Fe  Fe32  1  0.62757584  0.37970200  0.13298032  1
  Fe  Fe33  1  0.87671911  0.62331007  0.64617787  1
  Fe  Fe34  1  0.12511954  0.62740659  0.13139868  1
  Fe  Fe35  1  0.87178030  0.62756713  0.87678233  1
  Fe  Fe36  1  0.87773839  0.87337746  0.38400383  1
  Fe  Fe37  1  0.12615994  0.87677432  0.64676556  1
  Fe  Fe38  1  0.87915811  0.62232410  0.38771578  1
  Fe  Fe39  1  0.37885141  0.37526986  0.88494328  1
  Fe  Fe40  1  0.37585099  0.87410033  0.14812490  1
  Fe  Fe41  1  0.37034681  0.12874366  0.37799289  1
  Fe  Fe42  1  0.37290316  0.87537756  0.62990874  1
  Fe  Fe43  1  0.37766324  0.62547512  0.88218703  1
  Fe  Fe44  1  0.12656500  0.12062362  0.88351672  1
  Fe  Fe45  1  0.87411778  0.12115573  0.12972106  1
  Fe  Fe46  1  0.62424010  0.87655636  0.63378560  1
  Fe  Fe47  1  0.62562464  0.12778092  0.62769067  1
  Fe  Fe48  1  0.62782838  0.12849113  0.39030616  1
  Fe  Fe49  1  0.12484225  0.87531605  0.87772949  1
  Fe  Fe50  1  0.62338416  0.87140500  0.88040933  1
  Fe  Fe51  1  0.87129467  0.12381470  0.88973299  1
  Fe  Fe52  1  0.12592214  0.37410691  0.88776482  1
  Fe  Fe53  1  0.62826317  0.12737511  0.13777016  1
  Fe  Fe54  1  0.37169137  0.37687494  0.38225893  1
  Fe  Fe55  1  0.87566156  0.37310797  0.64883841  1
  Fe  Fe56  1  0.37140484  0.87384806  0.38258211  1
  Fe  Fe57  1  0.62709671  0.62114345  0.38465919  1
  Fe  Fe58  1  0.62758640  0.87276571  0.38473092  1
  Fe  Fe59  1  0.37840642  0.12381185  0.88554674  1
  Fe  Fe60  1  0.12041562  0.12844363  0.38456368  1
  Fe  Fe61  1  0.37628099  0.12422101  0.14344686  1
  Fe  Fe62  1  0.87113437  0.37560511  0.87970752  1
  Fe  Fe63  1  0.12284519  0.37917072  0.12637518  1
  Pb  Pb64  1  -0.00220811  0.00159127  -0.00761624  1
  Pb  Pb65  1  0.00528471  0.00319182  0.24894047  1
  Pb  Pb66  1  0.01056091  -0.00958404  0.50589528  1
  Pb  Pb67  1  0.00121599  0.00755396  0.75643612  1
  Pb  Pb68  1  -0.00030959  0.25210126  -0.01216797  1
  Pb  Pb69  1  0.00515957  0.24433987  0.24442233  1
  Pb  Pb70  1  -0.00695828  0.25674138  0.50641092  1
  Pb  Pb71  1  0.00799655  0.24804393  0.76207375  1
  Pb  Pb72  1  0.00014983  0.49815688  -0.00941931  1
  Pb  Pb73  1  -0.00100826  0.50378595  0.24465551  1
  Pb  Pb74  1  -0.01117250  0.49692479  0.51129464  1
  Pb  Pb75  1  -0.00103611  0.49282262  0.75756600  1
  Pb  Pb76  1  0.00370563  0.74587387  -0.00398583  1
  Pb  Pb77  1  -0.01052925  0.74815982  0.25408740  1
  Pb  Pb78  1  -0.00396970  0.74356057  0.50257186  1
  Pb  Pb79  1  -0.00007111  0.75169721  0.75153096  1
  Pb  Pb80  1  0.25305212  0.00079422  -0.00371835  1
  Pb  Pb81  1  0.25465252  0.00327618  0.25109166  1
  Pb  Pb82  1  0.25332829  -0.00360965  0.49574158  1
  Pb  Pb83  1  0.24991538  0.00309778  0.75148958  1
  Pb  Pb84  1  0.25178538  0.24869226  -0.00886231  1
  Pb  Pb85  1  0.25692892  0.25303484  0.24871230  1
  Pb  Pb86  1  0.25042921  0.24718806  0.49503386  1
  Pb  Pb87  1  0.25105428  0.24747934  0.76128018  1
  Pb  Pb88  1  0.24785487  0.49692132  -0.00537612  1
  Pb  Pb89  1  0.25009307  0.49473550  0.24424862  1
  Pb  Pb90  1  0.24704655  0.50060813  0.50091520  1
  Pb  Pb91  1  0.25390548  0.49358921  0.76037206  1
  Pb  Pb92  1  0.24803211  0.75051042  -0.00177566  1
  Pb  Pb93  1  0.25258172  0.75376443  0.25132956  1
  Pb  Pb94  1  0.24801848  0.76058502  0.50592557  1
  Pb  Pb95  1  0.25350779  0.75427928  0.74996850  1
  Pb  Pb96  1  0.48525516  -0.00307780  0.01415744  1
  Pb  Pb97  1  0.50054796  0.00874292  0.25469528  1
  Pb  Pb98  1  0.49740307  -0.00174882  0.48610874  1
  Pb  Pb99  1  0.50698136  -0.00626451  0.74216332  1
  Pb  Pb100  1  0.49706810  0.23651438  0.00639565  1
  Pb  Pb101  1  0.50375331  0.24562292  0.24956135  1
  Pb  Pb102  1  0.49708320  0.24390942  0.49329039  1
  Pb  Pb103  1  0.49071606  0.24607282  0.75404696  1
  Pb  Pb104  1  0.50395518  0.49741857  -0.00141958  1
  Pb  Pb105  1  0.50244178  0.50317134  0.25046428  1
  Pb  Pb106  1  0.50017123  0.49874726  0.49900106  1
  Pb  Pb107  1  0.49409655  0.50036048  0.75488694  1
  Pb  Pb108  1  0.49388982  0.75693069  0.00278806  1
  Pb  Pb109  1  0.50864008  0.75492913  0.25962765  1
  Pb  Pb110  1  0.50583851  0.76355932  0.49743858  1
  Pb  Pb111  1  0.50129041  0.75304943  0.74525050  1
  Pb  Pb112  1  0.74607529  0.00599461  0.00432869  1
  Pb  Pb113  1  0.74623714  0.00155806  0.25419887  1
  Pb  Pb114  1  0.73661342  -0.00692970  0.49773843  1
  Pb  Pb115  1  0.75139563  0.00356564  0.74672207  1
  Pb  Pb116  1  0.74809188  0.24249824  0.00174457  1
  Pb  Pb117  1  0.74343589  0.24323050  0.24852838  1
  Pb  Pb118  1  0.74907639  0.24960822  0.50245837  1
  Pb  Pb119  1  0.76156365  0.24436870  0.75582923  1
  Pb  Pb120  1  0.74742406  0.49801284  -0.00467845  1
  Pb  Pb121  1  0.75313542  0.50980072  0.25230542  1
  Pb  Pb122  1  0.76130589  0.50355015  0.50400430  1
  Pb  Pb123  1  0.75530711  0.49883245  0.75040137  1
  Pb  Pb124  1  0.74818110  0.75090102  -0.00383395  1
  Pb  Pb125  1  0.75168094  0.75669861  0.25909124  1
  Pb  Pb126  1  0.75061427  0.74777473  0.49292133  1
  Pb  Pb127  1  0.74779161  0.74929718  0.74467047  1
  O  O128  1  0.12217380  -0.00156884  0.16304409  1
  O  O129  1  0.12318549  -0.00633233  0.41176045  1
  O  O130  1  0.12519407  0.00903160  0.66585095  1
  O  O131  1  0.12569086  -0.00530003  0.91363235  1
  O  O132  1  0.11966297  0.24666939  0.15309662  1
  O  O133  1  0.12028591  0.25898963  0.41451260  1
  O  O134  1  0.12612242  0.24945927  0.67136371  1
  O  O135  1  0.12519872  0.24660021  0.91072233  1
  O  O136  1  0.12281879  0.50217993  0.16055717  1
  O  O137  1  0.12538885  0.49578360  0.41489940  1
  O  O138  1  0.12789400  0.49710418  0.67112132  1
  O  O139  1  0.12530210  0.51056289  0.90643072  1
  O  O140  1  0.12418378  0.75561543  0.16250500  1
  O  O141  1  0.12419122  0.75118124  0.41490852  1
  O  O142  1  0.12673016  0.74233700  0.66357021  1
  O  O143  1  0.12547458  0.75113622  0.91227301  1
  O  O144  1  0.37485247  -0.00079811  0.17098055  1
  O  O145  1  0.36971395  0.00105630  0.40408126  1
  O  O146  1  0.37200380  0.00918720  0.65743525  1
  O  O147  1  0.38045448  -0.00750152  0.91400630  1
  O  O148  1  0.37316195  0.25825163  0.15702158  1
  O  O149  1  0.37176598  0.25445519  0.41423305  1
  O  O150  1  0.37325797  0.24792331  0.66846702  1
  O  O151  1  0.38133646  0.24984875  0.91628823  1
  O  O152  1  0.37452029  0.50379756  0.16291659  1
  O  O153  1  0.36921537  0.50301517  0.41748467  1
  O  O154  1  0.37415030  0.49810218  0.67104789  1
  O  O155  1  0.37822919  0.50221628  0.91290429  1
  O  O156  1  0.37597703  0.74226220  0.16620727  1
  O  O157  1  0.36838982  0.73972040  0.41350898  1
  O  O158  1  0.37276294  0.74448849  0.66008611  1
  O  O159  1  0.37761422  0.75412123  0.91404583  1
  O  O160  1  0.62862897  -0.00669962  0.16607049  1
  O  O161  1  0.62775853  0.00106032  0.40861608  1
  O  O162  1  0.62506011  0.00400898  0.65876319  1
  O  O163  1  0.62633917  -0.00045901  0.90569782  1
  O  O164  1  0.62908741  0.25656926  0.16371444  1
  O  O165  1  0.62941799  0.26092424  0.41455361  1
  O  O166  1  0.62197787  0.25486412  0.65977311  1
  O  O167  1  0.62498203  0.25095405  0.90959490  1
  O  O168  1  0.62678290  0.50383285  0.16812951  1
  O  O169  1  0.62512153  0.49352055  0.41779149  1
  O  O170  1  0.62136714  0.50003341  0.66579312  1
  O  O171  1  0.62553519  0.50789342  0.91024653  1
  O  O172  1  0.62551095  0.74934080  0.17037652  1
  O  O173  1  0.62421506  0.74481820  0.41286184  1
  O  O174  1  0.62264036  0.74102500  0.65685712  1
  O  O175  1  0.62357194  0.74574323  0.91467744  1
  O  O176  1  0.87546279  -0.00510743  0.16507226  1
  O  O177  1  0.88002897  0.00568769  0.40694372  1
  O  O178  1  0.87753772  0.00257833  0.66430141  1
  O  O179  1  0.86800182  -0.01019744  0.91164437  1
  O  O180  1  0.87666041  0.25500498  0.14865930  1
  O  O181  1  0.87911315  0.25254371  0.42019581  1
  O  O182  1  0.87683771  0.24252680  0.66613871  1
  O  O183  1  0.86854519  0.25109967  0.91092187  1
  O  O184  1  0.87599700  0.50688022  0.16063070  1
  O  O185  1  0.87947558  0.49398312  0.41891989  1
  O  O186  1  0.87610934  0.49851873  0.67093448  1
  O  O187  1  0.87096655  0.50364298  0.90408863  1
  O  O188  1  0.87547940  0.74806928  0.16635426  1
  O  O189  1  0.88124891  0.74809121  0.41693341  1
  O  O190  1  0.87691824  0.75663978  0.65826613  1
  O  O191  1  0.87230979  0.75396473  0.91229466  1
  O  O192  1  0.00221655  0.12275215  0.16074201  1
  O  O193  1  -0.00469854  0.12899697  0.42036179  1
  O  O194  1  0.00105299  0.12634385  0.66844424  1
  O  O195  1  -0.00192569  0.11971042  0.91021498  1
  O  O196  1  -0.00892737  0.38046998  0.15866752  1
  O  O197  1  0.00326654  0.37682094  0.41683082  1
  O  O198  1  0.00845577  0.37287731  0.67122119  1
  O  O199  1  -0.00270939  0.37788711  0.90723962  1
  O  O200  1  -0.00546172  0.62819980  0.16076220  1
  O  O201  1  0.00815412  0.62186252  0.41939501  1
  O  O202  1  0.01042212  0.62143378  0.66896179  1
  O  O203  1  0.00384004  0.63134656  0.90598387  1
  O  O204  1  0.00431991  0.87412974  0.16432861  1
  O  O205  1  0.00560498  0.87418326  0.41714660  1
  O  O206  1  -0.00743003  0.87854893  0.66701064  1
  O  O207  1  -0.00873663  0.87352315  0.90581952  1
  O  O208  1  0.24065188  0.12455229  0.15893768  1
  O  O209  1  0.24425296  0.12910960  0.41286648  1
  O  O210  1  0.24893570  0.12907031  0.66553334  1
  O  O211  1  0.25331688  0.12051712  0.91394661  1
  O  O212  1  0.25365392  0.37922245  0.15738366  1
  O  O213  1  0.24081382  0.37615099  0.41316867  1
  O  O214  1  0.24894357  0.37329342  0.67190871  1
  O  O215  1  0.25256517  0.37724162  0.91215510  1
  O  O216  1  0.25624030  0.62549192  0.16047890  1
  O  O217  1  0.24729124  0.62215238  0.42058445  1
  O  O218  1  0.24562497  0.62025296  0.67011452  1
  O  O219  1  0.24611259  0.63081688  0.90993564  1
  O  O220  1  0.24089325  0.87526727  0.16467813  1
  O  O221  1  0.24179266  0.87166322  0.41418049  1
  O  O222  1  0.25322403  0.87634458  0.66765086  1
  O  O223  1  0.25848456  0.87382776  0.90775350  1
  O  O224  1  0.50372189  0.12661781  0.16841351  1
  O  O225  1  0.49831603  0.13012953  0.40733322  1
  O  O226  1  0.49424201  0.12941050  0.65602538  1
  O  O227  1  0.50858481  0.12526843  0.91483168  1
  O  O228  1  0.49441185  0.38018315  0.16081949  1
  O  O229  1  0.50553948  0.37706130  0.40843312  1
  O  O230  1  0.50258912  0.37577749  0.66753046  1
  O  O231  1  0.50898940  0.37972822  0.91512397  1
  O  O232  1  0.49600952  0.62370439  0.16688250  1
  O  O233  1  0.49069762  0.61948387  0.41212542  1
  O  O234  1  0.50217633  0.62091681  0.66350683  1
  O  O235  1  0.50661725  0.62740413  0.91300724  1
  O  O236  1  0.50791188  0.87274827  0.17051055  1
  O  O237  1  0.49755773  0.87136720  0.40599940  1
  O  O238  1  0.49701633  0.87451835  0.65973124  1
  O  O239  1  0.49714389  0.87223074  0.91481895  1
  O  O240  1  0.75412140  0.12399752  0.16734555  1
  O  O241  1  0.76327164  0.13096925  0.41545057  1
  O  O242  1  0.75618415  0.12517889  0.65883188  1
  O  O243  1  0.73954449  0.12453782  0.91556206  1
  O  O244  1  0.76138132  0.38294553  0.16172515  1
  O  O245  1  0.75021783  0.37724012  0.41522668  1
  O  O246  1  0.73963345  0.37577975  0.66271908  1
  O  O247  1  0.74171939  0.37917208  0.91348876  1
  O  O248  1  0.75454012  0.62682610  0.16569501  1
  O  O249  1  0.75228246  0.61904732  0.41420977  1
  O  O250  1  0.74082173  0.62212971  0.65976642  1
  O  O251  1  0.74301120  0.62956047  0.91143589  1
  O  O252  1  0.74855343  0.87049168  0.16748724  1
  O  O253  1  0.75443708  0.87344296  0.41349397  1
  O  O254  1  0.75858461  0.87736502  0.65835280  1
  O  O255  1  0.75131730  0.87017948  0.91184393  1
  O  O256  1  0.12294785  0.11845022  0.04538828  1
  O  O257  1  0.11340762  0.12971359  0.28486566  1
  O  O258  1  0.12440832  0.12986538  0.55602201  1
  O  O259  1  0.12562022  0.12297243  0.78222916  1
  O  O260  1  0.12101298  0.38475740  0.02672515  1
  O  O261  1  0.12064139  0.37521518  0.29702176  1
  O  O262  1  0.12764370  0.37477802  0.56039912  1
  O  O263  1  0.12664580  0.37361451  0.78610389  1
  O  O264  1  0.12396403  0.63582107  0.03215233  1
  O  O265  1  0.12550252  0.62373637  0.29863481  1
  O  O266  1  0.12857296  0.61956308  0.55305056  1
  O  O267  1  0.12709990  0.63266965  0.79526225  1
  O  O268  1  0.12373269  0.87275943  0.04719711  1
  O  O269  1  0.12280070  0.87246826  0.29880271  1
  O  O270  1  0.12427191  0.87926777  0.54575282  1
  O  O271  1  0.12394472  0.87371129  0.77695194  1
  O  O272  1  0.38639318  0.11758013  0.04155498  1
  O  O273  1  0.36834005  0.13515237  0.27600494  1
  O  O274  1  0.37085005  0.13291538  0.54844144  1
  O  O275  1  0.37857928  0.12766811  0.78535688  1
  O  O276  1  0.37861352  0.38157440  0.04642364  1
  O  O277  1  0.36430377  0.37515185  0.28298753  1
  O  O278  1  0.37455943  0.37469816  0.55518057  1
  O  O279  1  0.38068690  0.37259313  0.78375050  1
  O  O280  1  0.37745703  0.62838932  0.04769675  1
  O  O281  1  0.36997815  0.62242445  0.29953416  1
  O  O282  1  0.36970131  0.61550814  0.55326496  1
  O  O283  1  0.37882405  0.62399003  0.78239809  1
  O  O284  1  0.38397121  0.87581922  0.04666770  1
  O  O285  1  0.36417713  0.86566407  0.28116735  1
  O  O286  1  0.36643967  0.87399047  0.52918416  1
  O  O287  1  0.38171599  0.87378523  0.79620927  1
  O  O288  1  0.62955052  0.12371415  0.03696621  1
  O  O289  1  0.63424588  0.13381701  0.28894646  1
  O  O290  1  0.63014393  0.13173661  0.52748746  1
  O  O291  1  0.62397617  0.12189616  0.79721842  1
  O  O292  1  0.62724493  0.38529221  0.03354665  1
  O  O293  1  0.62971193  0.37944267  0.29732043  1
  O  O294  1  0.62047491  0.37620605  0.54883947  1
  O  O295  1  0.62491515  0.37112208  0.80000161  1
  O  O296  1  0.62447369  0.62821415  0.05406921  1
  O  O297  1  0.62297972  0.61756769  0.28453372  1
  O  O298  1  0.61828281  0.61512681  0.54561596  1
  O  O299  1  0.62377736  0.62969282  0.79464249  1
  O  O300  1  0.62429030  0.87160474  0.05611450  1
  O  O301  1  0.63153971  0.86843958  0.28335613  1
  O  O302  1  0.62400346  0.87480523  0.53300512  1
  O  O303  1  0.61936571  0.87037293  0.78044339  1
  O  O304  1  0.86409226  0.11576763  0.02961412  1
  O  O305  1  0.88285309  0.13031015  0.29887153  1
  O  O306  1  0.88304797  0.12548620  0.55125784  1
  O  O307  1  0.86416862  0.12110362  0.78820360  1
  O  O308  1  0.87227571  0.38131093  0.04135210  1
  O  O309  1  0.87654839  0.37206879  0.29918776  1
  O  O310  1  0.88335462  0.37586698  0.54733571  1
  O  O311  1  0.86693446  0.36969461  0.77751494  1
  O  O312  1  0.87315942  0.62789191  0.04889953  1
  O  O313  1  0.88369141  0.62145000  0.28738323  1
  O  O314  1  0.88210986  0.61599472  0.54486930  1
  O  O315  1  0.86861371  0.63518665  0.77584263  1
  O  O316  1  0.87411777  0.87207383  0.05216008  1
  O  O317  1  0.87784073  0.86512417  0.28371318  1
  O  O318  1  0.88286774  0.88040530  0.54558110  1
  O  O319  1  0.86842797  0.87255461  0.79338548  1
