# generated using pymatgen
data_VFe(PbO3)2
_symmetry_space_group_name_H-M   'P 1'
_cell_length_a   15.39037534
_cell_length_b   15.38765931
_cell_length_c   18.47685858
_cell_angle_alpha   89.98088597
_cell_angle_beta   90.02978148
_cell_angle_gamma   89.99964766
_symmetry_Int_Tables_number   1
_chemical_formula_structural   VFe(PbO3)2
_chemical_formula_sum   'V32 Fe32 Pb64 O192'
_cell_volume   4375.72304255
_cell_formula_units_Z   32
loop_
 _symmetry_equiv_pos_site_id
 _symmetry_equiv_pos_as_xyz
  1  'x, y, z'
loop_
 _atom_site_type_symbol
 _atom_site_label
 _atom_site_symmetry_multiplicity
 _atom_site_fract_x
 _atom_site_fract_y
 _atom_site_fract_z
 _atom_site_occupancy
  V  V0  1  0.12659413  0.62362472  0.64255704  1
  V  V1  1  0.87409690  0.87249158  0.89550845  1
  V  V2  1  0.87472768  0.37355331  0.14155131  1
  V  V3  1  0.37872483  0.87443623  0.89275863  1
  V  V4  1  0.37469699  0.12313169  0.64332760  1
  V  V5  1  0.13166142  0.87587346  0.38579612  1
  V  V6  1  0.87646923  0.12391560  0.64346058  1
  V  V7  1  0.87501202  0.87598533  0.64113207  1
  V  V8  1  0.37478403  0.12791384  0.13568310  1
  V  V9  1  0.37610157  0.37438652  0.64393675  1
  V  V10  1  0.37577649  0.87668648  0.13461075  1
  V  V11  1  0.62309870  0.62390457  0.63992885  1
  V  V12  1  0.88707847  0.87688261  0.38655743  1
  V  V13  1  0.87378771  0.62539226  0.13956150  1
  V  V14  1  0.62450721  0.87487601  0.89309373  1
  V  V15  1  0.37359517  0.12202683  0.88841858  1
  V  V16  1  0.37300090  0.12859398  0.38962966  1
  V  V17  1  0.37578926  0.87817369  0.38675149  1
  V  V18  1  0.62502083  0.12448168  0.89317555  1
  V  V19  1  0.62921823  0.87545316  0.13704611  1
  V  V20  1  0.62236296  0.37660444  0.13967744  1
  V  V21  1  0.12230589  0.12595103  0.13351321  1
  V  V22  1  0.62694890  0.62479150  0.89185110  1
  V  V23  1  0.62577806  0.37415403  0.64322196  1
  V  V24  1  0.62955195  0.87517714  0.38517962  1
  V  V25  1  0.87036480  0.37809966  0.88702118  1
  V  V26  1  0.62550637  0.87300692  0.64098665  1
  V  V27  1  0.37440214  0.62428582  0.64397206  1
  V  V28  1  0.12340972  0.62556078  0.88929276  1
  V  V29  1  0.12782936  0.87140168  0.64543458  1
  V  V30  1  0.37310394  0.37721508  0.38536088  1
  V  V31  1  0.62314647  0.12422334  0.63905277  1
  Fe  Fe32  1  0.87438684  0.62482981  0.88410769  1
  Fe  Fe33  1  0.12686738  0.37573942  0.64322466  1
  Fe  Fe34  1  0.37841073  0.37386332  0.89517434  1
  Fe  Fe35  1  0.12681853  0.37236692  0.38154072  1
  Fe  Fe36  1  0.87579790  0.62832500  0.64131636  1
  Fe  Fe37  1  0.12367636  0.62520859  0.13619668  1
  Fe  Fe38  1  0.87354392  0.12596045  0.13540942  1
  Fe  Fe39  1  0.12187527  0.37469628  0.88315599  1
  Fe  Fe40  1  0.37286382  0.62632276  0.38072597  1
  Fe  Fe41  1  0.37630458  0.62325614  0.12657831  1
  Fe  Fe42  1  0.12680313  0.62537222  0.38012640  1
  Fe  Fe43  1  0.62666245  0.62531600  0.14236928  1
  Fe  Fe44  1  0.62777354  0.37453467  0.88423785  1
  Fe  Fe45  1  0.87691335  0.87526715  0.13004575  1
  Fe  Fe46  1  0.87615722  0.12066463  0.38212081  1
  Fe  Fe47  1  0.87416341  0.37610173  0.63089468  1
  Fe  Fe48  1  0.12618944  0.12259905  0.38603101  1
  Fe  Fe49  1  0.62466924  0.12590880  0.13912656  1
  Fe  Fe50  1  0.12582023  0.87636962  0.89699333  1
  Fe  Fe51  1  0.62176892  0.12257960  0.38243737  1
  Fe  Fe52  1  0.37703945  0.87408660  0.63856979  1
  Fe  Fe53  1  0.12716948  0.12207714  0.64884078  1
  Fe  Fe54  1  0.37395782  0.37172027  0.12642567  1
  Fe  Fe55  1  0.62238015  0.62617749  0.37937659  1
  Fe  Fe56  1  0.87473294  0.37324805  0.38461818  1
  Fe  Fe57  1  0.12407267  0.37439877  0.13417461  1
  Fe  Fe58  1  0.87177650  0.12632944  0.88617319  1
  Fe  Fe59  1  0.12583714  0.87600803  0.12668230  1
  Fe  Fe60  1  0.37500806  0.62756453  0.89794726  1
  Fe  Fe61  1  0.87588106  0.62776193  0.38521484  1
  Fe  Fe62  1  0.62202978  0.37359437  0.38109489  1
  Fe  Fe63  1  0.12193789  0.12339266  0.87935946  1
  Pb  Pb64  1  -0.00792263  0.00274245  -0.00254554  1
  Pb  Pb65  1  -0.00210973  0.00464187  0.24235342  1
  Pb  Pb66  1  0.00846037  0.01157460  0.50544721  1
  Pb  Pb67  1  0.00546225  -0.00190983  0.75983476  1
  Pb  Pb68  1  0.00040660  0.24962000  -0.00860972  1
  Pb  Pb69  1  -0.00055369  0.25885744  0.25520530  1
  Pb  Pb70  1  -0.00195435  0.25482043  0.49406624  1
  Pb  Pb71  1  0.00891811  0.25485957  0.74976553  1
  Pb  Pb72  1  0.00853702  0.49873780  0.00057633  1
  Pb  Pb73  1  0.00340993  0.49822691  0.25063811  1
  Pb  Pb74  1  -0.00323160  0.49254211  0.49189437  1
  Pb  Pb75  1  -0.00106425  0.49527166  0.74649171  1
  Pb  Pb76  1  0.00631105  0.74786543  0.00397454  1
  Pb  Pb77  1  0.00553167  0.74698928  0.24342894  1
  Pb  Pb78  1  -0.00314456  0.73764555  0.50301263  1
  Pb  Pb79  1  0.00122976  0.75352109  0.75629162  1
  Pb  Pb80  1  0.24371219  -0.00057801  -0.00130896  1
  Pb  Pb81  1  0.24467369  0.00621270  0.24588290  1
  Pb  Pb82  1  0.24765681  0.00413869  0.50620339  1
  Pb  Pb83  1  0.23806781  -0.00702003  0.76039418  1
  Pb  Pb84  1  0.24154013  0.26289710  -0.00273480  1
  Pb  Pb85  1  0.24125209  0.25350547  0.24733229  1
  Pb  Pb86  1  0.23037976  0.25054518  0.50899983  1
  Pb  Pb87  1  0.24800044  0.25771923  0.75542409  1
  Pb  Pb88  1  0.24967289  0.49408567  -0.00158277  1
  Pb  Pb89  1  0.24932158  0.50159094  0.23597880  1
  Pb  Pb90  1  0.24064807  0.49565851  0.49572479  1
  Pb  Pb91  1  0.26562860  0.49693460  0.76347607  1
  Pb  Pb92  1  0.23966673  0.74023331  0.00776969  1
  Pb  Pb93  1  0.24882411  0.73959599  0.24250086  1
  Pb  Pb94  1  0.25453479  0.74970276  0.49656520  1
  Pb  Pb95  1  0.25528885  0.74422970  0.75921134  1
  Pb  Pb96  1  0.50723101  0.00504450  0.00586752  1
  Pb  Pb97  1  0.50278561  0.00340637  0.24814451  1
  Pb  Pb98  1  0.49311579  -0.00693411  0.50079818  1
  Pb  Pb99  1  0.50148858  -0.00124791  0.74996219  1
  Pb  Pb100  1  0.50246473  0.25221470  0.00025775  1
  Pb  Pb101  1  0.51022629  0.25098948  0.25043961  1
  Pb  Pb102  1  0.50093992  0.24934243  0.49677400  1
  Pb  Pb103  1  0.50111726  0.25815523  0.75640400  1
  Pb  Pb104  1  0.49455378  0.49939358  0.00012512  1
  Pb  Pb105  1  0.49515820  0.50794062  0.24359720  1
  Pb  Pb106  1  0.50290495  0.50510614  0.49206696  1
  Pb  Pb107  1  0.49923855  0.49110443  0.76192083  1
  Pb  Pb108  1  0.50446215  0.74000053  0.00830198  1
  Pb  Pb109  1  0.49700833  0.74286920  0.24766887  1
  Pb  Pb110  1  0.49511530  0.75356220  0.49592042  1
  Pb  Pb111  1  0.49627981  0.74089621  0.75460873  1
  Pb  Pb112  1  0.75691049  0.00316199  0.00734057  1
  Pb  Pb113  1  0.75671186  0.01131998  0.24690215  1
  Pb  Pb114  1  0.74750387  0.00214000  0.49524120  1
  Pb  Pb115  1  0.75434533  0.00347156  0.75536274  1
  Pb  Pb116  1  0.75096062  0.23885348  0.00513324  1
  Pb  Pb117  1  0.75146842  0.25454108  0.25262167  1
  Pb  Pb118  1  0.75272354  0.25161557  0.49001162  1
  Pb  Pb119  1  0.75366800  0.24429400  0.75023629  1
  Pb  Pb120  1  0.74621106  0.50455956  0.00260712  1
  Pb  Pb121  1  0.75500972  0.49426036  0.25572029  1
  Pb  Pb122  1  0.75544327  0.49684707  0.49109579  1
  Pb  Pb123  1  0.75477360  0.50064264  0.74689282  1
  Pb  Pb124  1  0.74973024  0.75046441  0.00473534  1
  Pb  Pb125  1  0.75408281  0.73887721  0.25381610  1
  Pb  Pb126  1  0.75321935  0.74099643  0.50017184  1
  Pb  Pb127  1  0.75418861  0.74670974  0.75380585  1
  O  O128  1  0.13127969  0.00658490  0.15635331  1
  O  O129  1  0.12724910  -0.00861916  0.41918485  1
  O  O130  1  0.12463851  -0.01004331  0.66862197  1
  O  O131  1  0.12553319  0.00282970  0.91690380  1
  O  O132  1  0.12531581  0.24154684  0.15949233  1
  O  O133  1  0.12865850  0.24728153  0.41583430  1
  O  O134  1  0.12767316  0.24781362  0.66751103  1
  O  O135  1  0.12344866  0.24757146  0.90685060  1
  O  O136  1  0.12110356  0.49957698  0.15948515  1
  O  O137  1  0.12983978  0.49871765  0.40871904  1
  O  O138  1  0.12738084  0.50923230  0.66264989  1
  O  O139  1  0.12202936  0.50532852  0.91067841  1
  O  O140  1  0.12684795  0.75321485  0.15918869  1
  O  O141  1  0.12639548  0.76260898  0.41191333  1
  O  O142  1  0.12644524  0.75197087  0.67214844  1
  O  O143  1  0.12404861  0.74617969  0.91363083  1
  O  O144  1  0.37513365  0.00488468  0.16220067  1
  O  O145  1  0.37451637  0.00107474  0.41640900  1
  O  O146  1  0.38127631  0.00421704  0.66419180  1
  O  O147  1  0.38292912  0.00234378  0.91870429  1
  O  O148  1  0.37606454  0.24294320  0.15916262  1
  O  O149  1  0.37604133  0.24541677  0.41070490  1
  O  O150  1  0.37911978  0.24740688  0.66791275  1
  O  O151  1  0.38107908  0.23739620  0.91012198  1
  O  O152  1  0.37742740  0.49705951  0.15246653  1
  O  O153  1  0.37314450  0.49323259  0.40731054  1
  O  O154  1  0.37557041  0.50167689  0.67202166  1
  O  O155  1  0.37814361  0.50189721  0.91510318  1
  O  O156  1  0.37695048  0.75989373  0.15337539  1
  O  O157  1  0.37465219  0.75664768  0.41256077  1
  O  O158  1  0.37600882  0.74664305  0.67039558  1
  O  O159  1  0.38061257  0.76065199  0.91430836  1
  O  O160  1  0.61984662  -0.00694861  0.16248994  1
  O  O161  1  0.61937554  -0.00710179  0.41429627  1
  O  O162  1  0.62382632  -0.00019916  0.66673669  1
  O  O163  1  0.62502020  0.00143333  0.91767167  1
  O  O164  1  0.62735702  0.25690468  0.16284661  1
  O  O165  1  0.61846882  0.24709387  0.41428759  1
  O  O166  1  0.62326661  0.24734672  0.66605100  1
  O  O167  1  0.62640737  0.24304874  0.91206254  1
  O  O168  1  0.62836121  0.49309354  0.16270528  1
  O  O169  1  0.62009366  0.49999282  0.41027418  1
  O  O170  1  0.62271814  0.50527664  0.66396532  1
  O  O171  1  0.62683197  0.50705900  0.91181186  1
  O  O172  1  0.62084427  0.76036653  0.16271698  1
  O  O173  1  0.61915388  0.75957995  0.41049652  1
  O  O174  1  0.62304667  0.74582171  0.66589255  1
  O  O175  1  0.62625738  0.75013652  0.91767797  1
  O  O176  1  0.87434341  -0.00077186  0.16177390  1
  O  O177  1  0.87284349  -0.01137009  0.41758580  1
  O  O178  1  0.87067471  -0.00174197  0.67110178  1
  O  O179  1  0.86832297  -0.00597736  0.91324579  1
  O  O180  1  0.87466644  0.25580517  0.16033429  1
  O  O181  1  0.87477254  0.24513338  0.41095488  1
  O  O182  1  0.86999033  0.24148748  0.65958907  1
  O  O183  1  0.87023692  0.25836068  0.91061936  1
  O  O184  1  0.87399189  0.49986037  0.16555079  1
  O  O185  1  0.87474147  0.50197153  0.40952924  1
  O  O186  1  0.87360542  0.50228250  0.66250615  1
  O  O187  1  0.87244404  0.49688316  0.91373242  1
  O  O188  1  0.87257564  0.74482492  0.15744517  1
  O  O189  1  0.87373685  0.76394261  0.41726524  1
  O  O190  1  0.87412761  0.75625253  0.67111255  1
  O  O191  1  0.87031034  0.75326051  0.91580265  1
  O  O192  1  0.00643822  0.12214751  0.15205223  1
  O  O193  1  0.00065417  0.11802973  0.41721358  1
  O  O194  1  -0.00834396  0.11871574  0.66253296  1
  O  O195  1  -0.00364474  0.12318734  0.90792008  1
  O  O196  1  -0.00622503  0.37468115  0.16281558  1
  O  O197  1  0.00187844  0.37311314  0.41008859  1
  O  O198  1  -0.00186284  0.37482206  0.66440790  1
  O  O199  1  -0.00918085  0.37686685  0.91099112  1
  O  O200  1  -0.00851286  0.62451420  0.16144796  1
  O  O201  1  0.00268252  0.63097983  0.41487176  1
  O  O202  1  0.00921996  0.63159372  0.66487769  1
  O  O203  1  0.00263309  0.62680055  0.91141895  1
  O  O204  1  0.00209141  0.87669082  0.15580296  1
  O  O205  1  0.00142438  0.87785680  0.40374151  1
  O  O206  1  0.00105454  0.87338556  0.66969551  1
  O  O207  1  -0.00850476  0.87506714  0.91146607  1
  O  O208  1  0.25265979  0.12547396  0.15947107  1
  O  O209  1  0.25745038  0.11956617  0.41796725  1
  O  O210  1  0.26122178  0.12330872  0.66787928  1
  O  O211  1  0.25804342  0.11925150  0.90521101  1
  O  O212  1  0.25035896  0.36982164  0.15733060  1
  O  O213  1  0.25918715  0.36932774  0.41343694  1
  O  O214  1  0.25687055  0.37551197  0.67131658  1
  O  O215  1  0.24862409  0.37513907  0.90942297  1
  O  O216  1  0.25279532  0.62734662  0.15450865  1
  O  O217  1  0.25025303  0.63032089  0.41502722  1
  O  O218  1  0.24748588  0.62924065  0.67102873  1
  O  O219  1  0.24225743  0.62680419  0.91415626  1
  O  O220  1  0.25836155  0.88104754  0.15620172  1
  O  O221  1  0.24909216  0.87754073  0.41311149  1
  O  O222  1  0.24674704  0.87343691  0.66560764  1
  O  O223  1  0.26238581  0.88026516  0.91212551  1
  O  O224  1  0.49371072  0.12412036  0.16087879  1
  O  O225  1  0.49069737  0.12097347  0.41617581  1
  O  O226  1  0.49994814  0.12505875  0.66881672  1
  O  O227  1  0.50412342  0.12222302  0.91620576  1
  O  O228  1  0.50509628  0.37229346  0.15446286  1
  O  O229  1  0.48949741  0.37144465  0.41406426  1
  O  O230  1  0.50018597  0.37650490  0.67224396  1
  O  O231  1  0.50643520  0.37296117  0.91754568  1
  O  O232  1  0.49955627  0.62745407  0.16054666  1
  O  O233  1  0.49681740  0.62729868  0.41360192  1
  O  O234  1  0.50236968  0.62559591  0.66751164  1
  O  O235  1  0.50959056  0.62935165  0.91512242  1
  O  O236  1  0.49524554  0.88001977  0.16278503  1
  O  O237  1  0.49923188  0.87711689  0.41285641  1
  O  O238  1  0.50538450  0.87303979  0.66897704  1
  O  O239  1  0.50193660  0.87851397  0.92056595  1
  O  O240  1  0.74898448  0.12603547  0.16356244  1
  O  O241  1  0.74817431  0.11743789  0.41120055  1
  O  O242  1  0.74771027  0.12161200  0.66719982  1
  O  O243  1  0.74369661  0.12328288  0.91543320  1
  O  O244  1  0.75265657  0.37571506  0.16560794  1
  O  O245  1  0.74690234  0.37355331  0.41077618  1
  O  O246  1  0.74638312  0.37492721  0.66250731  1
  O  O247  1  0.75334680  0.37786179  0.91439026  1
  O  O248  1  0.75562297  0.62370589  0.16591682  1
  O  O249  1  0.74739100  0.63233876  0.41254975  1
  O  O250  1  0.74082608  0.62739992  0.66297120  1
  O  O251  1  0.74584393  0.62771637  0.91671064  1
  O  O252  1  0.74347631  0.87622662  0.15603180  1
  O  O253  1  0.74382715  0.87676893  0.40759683  1
  O  O254  1  0.74765516  0.87389751  0.66723255  1
  O  O255  1  0.74603276  0.87420080  0.91784819  1
  O  O256  1  0.12865411  0.12734850  0.04212958  1
  O  O257  1  0.13077831  0.12101747  0.28629750  1
  O  O258  1  0.13182133  0.11407088  0.54666085  1
  O  O259  1  0.12389281  0.11286704  0.77668888  1
  O  O260  1  0.12253011  0.37187970  0.03192220  1
  O  O261  1  0.12267554  0.36448480  0.28020630  1
  O  O262  1  0.13697228  0.37434145  0.54207005  1
  O  O263  1  0.11981521  0.37346994  0.78161384  1
  O  O264  1  0.11902169  0.63129355  0.03427925  1
  O  O265  1  0.12639856  0.63318202  0.27912002  1
  O  O266  1  0.12969912  0.63103547  0.55148911  1
  O  O267  1  0.12569417  0.62720262  0.79783164  1
  O  O268  1  0.12917080  0.87104566  0.02445453  1
  O  O269  1  0.13319175  0.88042692  0.29471760  1
  O  O270  1  0.12375137  0.86962716  0.55460667  1
  O  O271  1  0.12507705  0.88106262  0.79479652  1
  O  O272  1  0.37445550  0.12578912  0.04450939  1
  O  O273  1  0.37211374  0.12590865  0.29850811  1
  O  O274  1  0.37506492  0.12556464  0.55208191  1
  O  O275  1  0.38053266  0.11678984  0.79745973  1
  O  O276  1  0.37318227  0.36839787  0.02469372  1
  O  O277  1  0.37390252  0.37338801  0.29429172  1
  O  O278  1  0.37721815  0.37740856  0.55322306  1
  O  O279  1  0.38134301  0.37831299  0.79180697  1
  O  O280  1  0.38052460  0.63123641  0.02412807  1
  O  O281  1  0.37698492  0.62743460  0.28063657  1
  O  O282  1  0.37187464  0.62346693  0.55300463  1
  O  O283  1  0.37262335  0.63118035  0.79523331  1
  O  O284  1  0.37984301  0.88222654  0.04374375  1
  O  O285  1  0.37364093  0.87875347  0.29578371  1
  O  O286  1  0.38061223  0.87279376  0.53923629  1
  O  O287  1  0.38329720  0.87806233  0.80101111  1
  O  O288  1  0.62537457  0.12660344  0.03824481  1
  O  O289  1  0.61415035  0.12466981  0.28182922  1
  O  O290  1  0.62228922  0.12276212  0.54824702  1
  O  O291  1  0.62431847  0.12126219  0.80166030  1
  O  O292  1  0.63096131  0.37616469  0.04811223  1
  O  O293  1  0.62257364  0.36849321  0.28123616  1
  O  O294  1  0.61722732  0.37447596  0.55236337  1
  O  O295  1  0.62028333  0.37693426  0.78410988  1
  O  O296  1  0.62935040  0.62884861  0.04147123  1
  O  O297  1  0.62292742  0.63201434  0.27807497  1
  O  O298  1  0.62022173  0.62485661  0.54892756  1
  O  O299  1  0.62746350  0.62849676  0.80025908  1
  O  O300  1  0.62317350  0.87502052  0.04505641  1
  O  O301  1  0.62630587  0.87721260  0.29403802  1
  O  O302  1  0.62484273  0.87264070  0.54989999  1
  O  O303  1  0.62279871  0.87431618  0.80196704  1
  O  O304  1  0.86674899  0.12461520  0.03301932  1
  O  O305  1  0.87885131  0.11365582  0.28157156  1
  O  O306  1  0.87114528  0.11411257  0.55261428  1
  O  O307  1  0.86169231  0.12414343  0.78562963  1
  O  O308  1  0.87232095  0.37808984  0.05064796  1
  O  O309  1  0.87518868  0.37207485  0.28247229  1
  O  O310  1  0.87467781  0.37656528  0.53091770  1
  O  O311  1  0.86997481  0.37940672  0.79521280  1
  O  O312  1  0.87108738  0.61992316  0.04801972  1
  O  O313  1  0.87273236  0.63537520  0.28543026  1
  O  O314  1  0.87476566  0.64198858  0.54065645  1
  O  O315  1  0.86819157  0.62910755  0.78403290  1
  O  O316  1  0.86988166  0.87960384  0.03005189  1
  O  O317  1  0.87789774  0.87613838  0.29530607  1
  O  O318  1  0.87691713  0.87686389  0.55037032  1
  O  O319  1  0.86859922  0.87174471  0.80346612  1
