# generated using pymatgen
data_VFe(PbO3)2
_symmetry_space_group_name_H-M   'P 1'
_cell_length_a   15.39068024
_cell_length_b   15.38176894
_cell_length_c   18.51553001
_cell_angle_alpha   89.99543461
_cell_angle_beta   89.99585510
_cell_angle_gamma   90.00137585
_symmetry_Int_Tables_number   1
_chemical_formula_structural   VFe(PbO3)2
_chemical_formula_sum   'V32 Fe32 Pb64 O192'
_cell_volume   4383.29039954
_cell_formula_units_Z   32
loop_
 _symmetry_equiv_pos_site_id
 _symmetry_equiv_pos_as_xyz
  1  'x, y, z'
loop_
 _atom_site_type_symbol
 _atom_site_label
 _atom_site_symmetry_multiplicity
 _atom_site_fract_x
 _atom_site_fract_y
 _atom_site_fract_z
 _atom_site_occupancy
  V  V0  1  0.87607690  0.12301564  0.88977410  1
  V  V1  1  0.12585015  0.12733049  0.39072842  1
  V  V2  1  0.12508677  0.37806913  0.64366546  1
  V  V3  1  0.62428559  0.12493257  0.63945018  1
  V  V4  1  0.12765426  0.87443660  0.89073662  1
  V  V5  1  0.12339098  0.62437771  0.38814179  1
  V  V6  1  0.37610102  0.62457722  0.14146730  1
  V  V7  1  0.62507504  0.87424905  0.14180073  1
  V  V8  1  0.87575782  0.62306848  0.64156947  1
  V  V9  1  0.62406782  0.37547604  0.13617415  1
  V  V10  1  0.62525425  0.37165443  0.38574463  1
  V  V11  1  0.87730238  0.12638418  0.38982349  1
  V  V12  1  0.62421971  0.37409102  0.89218151  1
  V  V13  1  0.87574002  0.37561597  0.64484356  1
  V  V14  1  0.37096036  0.62879045  0.89041394  1
  V  V15  1  0.62374346  0.37475513  0.64141602  1
  V  V16  1  0.37407025  0.62022040  0.63695737  1
  V  V17  1  0.62340138  0.62542960  0.88901433  1
  V  V18  1  0.12386376  0.87632042  0.39276674  1
  V  V19  1  0.87786066  0.37695348  0.38587406  1
  V  V20  1  0.87345801  0.12365807  0.13242813  1
  V  V21  1  0.12095425  0.62591510  0.89525421  1
  V  V22  1  0.37675534  0.87537547  0.14084195  1
  V  V23  1  0.62650082  0.12347934  0.88984163  1
  V  V24  1  0.37611404  0.12171517  0.89113137  1
  V  V25  1  0.62468393  0.87427431  0.88948509  1
  V  V26  1  0.87214464  0.62689936  0.89835043  1
  V  V27  1  0.37832381  0.12425567  0.38873906  1
  V  V28  1  0.87537690  0.87460968  0.89917838  1
  V  V29  1  0.37484761  0.87680610  0.63719708  1
  V  V30  1  0.87788860  0.87771928  0.39328346  1
  V  V31  1  0.87691040  0.62635070  0.38754699  1
  Fe  Fe32  1  0.37352977  0.62529396  0.38220632  1
  Fe  Fe33  1  0.62889997  0.62381592  0.37831562  1
  Fe  Fe34  1  0.12461793  0.12609637  0.63798651  1
  Fe  Fe35  1  0.36922163  0.37548501  0.38528753  1
  Fe  Fe36  1  0.12846489  0.12133975  0.12463627  1
  Fe  Fe37  1  0.37571603  0.12848617  0.63518447  1
  Fe  Fe38  1  0.12557121  0.37558576  0.12633301  1
  Fe  Fe39  1  0.12758996  0.62867337  0.12946233  1
  Fe  Fe40  1  0.12681843  0.87483647  0.13181102  1
  Fe  Fe41  1  0.87472936  0.12950089  0.63674575  1
  Fe  Fe42  1  0.87081492  0.37370498  0.12503452  1
  Fe  Fe43  1  0.37771129  0.12322747  0.13202788  1
  Fe  Fe44  1  0.12474627  0.62164355  0.63946712  1
  Fe  Fe45  1  0.87289758  0.87580897  0.63175790  1
  Fe  Fe46  1  0.37981064  0.37650305  0.89920343  1
  Fe  Fe47  1  0.37934244  0.87318922  0.88540589  1
  Fe  Fe48  1  0.62217822  0.12471420  0.14201248  1
  Fe  Fe49  1  0.62939044  0.12726676  0.38168519  1
  Fe  Fe50  1  0.87218041  0.87695396  0.12754881  1
  Fe  Fe51  1  0.62502401  0.61874463  0.63568221  1
  Fe  Fe52  1  0.12510882  0.12354932  0.89325743  1
  Fe  Fe53  1  0.62213781  0.62505358  0.14695870  1
  Fe  Fe54  1  0.87119851  0.37566919  0.89981766  1
  Fe  Fe55  1  0.87327130  0.62750678  0.12901081  1
  Fe  Fe56  1  0.62571758  0.87790874  0.38767439  1
  Fe  Fe57  1  0.12030064  0.37356915  0.38047954  1
  Fe  Fe58  1  0.37367313  0.37366745  0.63538102  1
  Fe  Fe59  1  0.12356811  0.87147627  0.63392817  1
  Fe  Fe60  1  0.37804645  0.37580352  0.12667090  1
  Fe  Fe61  1  0.37113311  0.87387413  0.38584757  1
  Fe  Fe62  1  0.62535382  0.87170625  0.63034527  1
  Fe  Fe63  1  0.12610485  0.37540620  0.89700715  1
  Pb  Pb64  1  0.00907027  -0.00404086  0.00337811  1
  Pb  Pb65  1  0.00068264  -0.00111717  0.23893360  1
  Pb  Pb66  1  0.00238030  0.00618620  0.50810330  1
  Pb  Pb67  1  0.00061190  0.00243854  0.74373378  1
  Pb  Pb68  1  0.00578584  0.25718514  -0.00074482  1
  Pb  Pb69  1  0.00786489  0.25614111  0.23655927  1
  Pb  Pb70  1  -0.00149513  0.24331580  0.50288423  1
  Pb  Pb71  1  0.00918507  0.24701419  0.75745650  1
  Pb  Pb72  1  0.00037919  0.49453239  0.00534124  1
  Pb  Pb73  1  0.00134896  0.49808221  0.23168299  1
  Pb  Pb74  1  0.00504956  0.50554136  0.50071497  1
  Pb  Pb75  1  0.00049599  0.48698868  0.76257425  1
  Pb  Pb76  1  0.00624349  0.74979712  0.00788348  1
  Pb  Pb77  1  -0.00108686  0.75170189  0.23564693  1
  Pb  Pb78  1  0.00279251  0.75374981  0.50537141  1
  Pb  Pb79  1  0.00089026  0.75279349  0.74743526  1
  Pb  Pb80  1  0.25113944  0.00135439  0.00073976  1
  Pb  Pb81  1  0.25146485  0.00098006  0.24423621  1
  Pb  Pb82  1  0.24113058  0.00538685  0.50343479  1
  Pb  Pb83  1  0.24008626  0.00913743  0.74909627  1
  Pb  Pb84  1  0.25215365  0.25475537  -0.00165367  1
  Pb  Pb85  1  0.24977284  0.25436234  0.23511784  1
  Pb  Pb86  1  0.25488866  0.25246199  0.50237786  1
  Pb  Pb87  1  0.24566281  0.24867809  0.75482807  1
  Pb  Pb88  1  0.25217570  0.49302175  0.00477229  1
  Pb  Pb89  1  0.24648982  0.48775608  0.24448855  1
  Pb  Pb90  1  0.25294271  0.49512178  0.49466639  1
  Pb  Pb91  1  0.24955131  0.48358164  0.76158227  1
  Pb  Pb92  1  0.24369453  0.75136994  0.00373789  1
  Pb  Pb93  1  0.25603247  0.74985466  0.25117771  1
  Pb  Pb94  1  0.24327880  0.74994700  0.49960786  1
  Pb  Pb95  1  0.25404215  0.75136967  0.74703266  1
  Pb  Pb96  1  0.50251773  0.00692791  0.00555530  1
  Pb  Pb97  1  0.50422833  -0.00530371  0.25502788  1
  Pb  Pb98  1  0.50473032  -0.00292001  0.49503225  1
  Pb  Pb99  1  0.49289356  -0.00590398  0.74919643  1
  Pb  Pb100  1  0.49988719  0.23675454  0.00715998  1
  Pb  Pb101  1  0.49131072  0.25116603  0.24399769  1
  Pb  Pb102  1  0.48770495  0.25152253  0.50167535  1
  Pb  Pb103  1  0.49066863  0.25448462  0.75338236  1
  Pb  Pb104  1  0.50558105  0.50590883  0.00473047  1
  Pb  Pb105  1  0.48678172  0.49949414  0.25462300  1
  Pb  Pb106  1  0.50324362  0.50582449  0.49292601  1
  Pb  Pb107  1  0.49176389  0.49494717  0.75284462  1
  Pb  Pb108  1  0.50762524  0.74381743  0.00433742  1
  Pb  Pb109  1  0.49308325  0.75144277  0.25920994  1
  Pb  Pb110  1  0.50604233  0.74784619  0.48837704  1
  Pb  Pb111  1  0.49685594  0.75136823  0.74493963  1
  Pb  Pb112  1  0.74999548  -0.00311430  0.00330573  1
  Pb  Pb113  1  0.74169432  -0.00068363  0.25337789  1
  Pb  Pb114  1  0.75097195  -0.00518111  0.50152529  1
  Pb  Pb115  1  0.75257232  -0.00151465  0.74449375  1
  Pb  Pb116  1  0.74810221  0.25001161  0.00270443  1
  Pb  Pb117  1  0.74790719  0.24529607  0.24582145  1
  Pb  Pb118  1  0.75742104  0.24754757  0.49812693  1
  Pb  Pb119  1  0.75473269  0.25644443  0.75528295  1
  Pb  Pb120  1  0.74916371  0.51264106  0.00848762  1
  Pb  Pb121  1  0.74971425  0.50466933  0.24291089  1
  Pb  Pb122  1  0.74698431  0.50409671  0.49865745  1
  Pb  Pb123  1  0.75550668  0.49403849  0.75769334  1
  Pb  Pb124  1  0.75318174  0.74763252  0.00716752  1
  Pb  Pb125  1  0.74606377  0.74891660  0.24809995  1
  Pb  Pb126  1  0.74620605  0.75505603  0.49874100  1
  Pb  Pb127  1  0.74501721  0.75059534  0.74449824  1
  O  O128  1  0.12653213  -0.00071162  0.16305851  1
  O  O129  1  0.12133774  0.00262735  0.41790784  1
  O  O130  1  0.12577752  -0.00340662  0.66423093  1
  O  O131  1  0.12519312  -0.00851436  0.91083642  1
  O  O132  1  0.12503275  0.24667222  0.15115335  1
  O  O133  1  0.11836105  0.24291883  0.40959474  1
  O  O134  1  0.12418831  0.25894681  0.66781720  1
  O  O135  1  0.12631093  0.24740430  0.91465311  1
  O  O136  1  0.12620391  0.50275718  0.15327730  1
  O  O137  1  0.11817250  0.50661570  0.40956834  1
  O  O138  1  0.12343367  0.49537038  0.67089626  1
  O  O139  1  0.12609494  0.51146512  0.91594773  1
  O  O140  1  0.12864652  0.75219619  0.16379155  1
  O  O141  1  0.12020587  0.74712341  0.41480550  1
  O  O142  1  0.12503489  0.74669001  0.66955140  1
  O  O143  1  0.12497028  0.75172126  0.91627902  1
  O  O144  1  0.37854936  -0.00794949  0.16217968  1
  O  O145  1  0.36964211  0.00923957  0.41395654  1
  O  O146  1  0.37918053  -0.00459542  0.65979310  1
  O  O147  1  0.38216234  0.00081950  0.91373895  1
  O  O148  1  0.37820248  0.25135366  0.15548047  1
  O  O149  1  0.37025309  0.24447952  0.41302318  1
  O  O150  1  0.37594867  0.25216027  0.67087724  1
  O  O151  1  0.38113319  0.24090254  0.91148374  1
  O  O152  1  0.37743669  0.50566469  0.15785497  1
  O  O153  1  0.37172615  0.50007967  0.41424299  1
  O  O154  1  0.37479615  0.50256143  0.66238865  1
  O  O155  1  0.37809671  0.51449912  0.91777197  1
  O  O156  1  0.37839018  0.75271170  0.16650981  1
  O  O157  1  0.37190142  0.74841399  0.41562511  1
  O  O158  1  0.37790496  0.74833262  0.66021104  1
  O  O159  1  0.37947033  0.74535706  0.91690227  1
  O  O160  1  0.62245542  -0.00652392  0.16475025  1
  O  O161  1  0.62781067  0.00565052  0.41596374  1
  O  O162  1  0.62519155  0.00767085  0.65818280  1
  O  O163  1  0.62568068  -0.00508878  0.91212040  1
  O  O164  1  0.62302525  0.25690772  0.16352398  1
  O  O165  1  0.63269865  0.25547838  0.41202382  1
  O  O166  1  0.62512590  0.25657401  0.66847929  1
  O  O167  1  0.62411891  0.25272343  0.91200587  1
  O  O168  1  0.62601606  0.49175364  0.16326387  1
  O  O169  1  0.63223774  0.49093711  0.41080053  1
  O  O170  1  0.62581271  0.49157158  0.66843329  1
  O  O171  1  0.62545392  0.50234352  0.91607343  1
  O  O172  1  0.62160981  0.75792619  0.16667430  1
  O  O173  1  0.62948127  0.74915045  0.40685455  1
  O  O174  1  0.62640235  0.74524036  0.66104919  1
  O  O175  1  0.62647928  0.75104643  0.91501944  1
  O  O176  1  0.87103679  0.00550357  0.15973897  1
  O  O177  1  0.87865281  -0.00327480  0.41271951  1
  O  O178  1  0.87100030  0.00310894  0.66281657  1
  O  O179  1  0.86775439  0.00387983  0.91666465  1
  O  O180  1  0.87327273  0.24215250  0.15682305  1
  O  O181  1  0.87837510  0.25108107  0.41471543  1
  O  O182  1  0.87347503  0.25618322  0.67143700  1
  O  O183  1  0.86900006  0.23930198  0.91373252  1
  O  O184  1  0.87212495  0.49889972  0.15251506  1
  O  O185  1  0.87898673  0.50498748  0.41157392  1
  O  O186  1  0.87491491  0.49812460  0.67341549  1
  O  O187  1  0.87313123  0.51008419  0.91713982  1
  O  O188  1  0.87127288  0.75414044  0.15927484  1
  O  O189  1  0.87692287  0.74690447  0.41263913  1
  O  O190  1  0.87231552  0.74056850  0.66148376  1
  O  O191  1  0.87233697  0.74844174  0.91916141  1
  O  O192  1  -0.00662865  0.12158058  0.15373414  1
  O  O193  1  0.00067950  0.12247174  0.41851317  1
  O  O194  1  -0.00040591  0.12938877  0.66873584  1
  O  O195  1  -0.00882721  0.11935442  0.90959845  1
  O  O196  1  -0.00254034  0.37229732  0.15186956  1
  O  O197  1  -0.00431316  0.37576989  0.41503323  1
  O  O198  1  0.00181063  0.37637074  0.67119730  1
  O  O199  1  -0.00224455  0.37757993  0.91606150  1
  O  O200  1  -0.00045747  0.62879305  0.15492009  1
  O  O201  1  -0.00236970  0.62724981  0.41701082  1
  O  O202  1  -0.00845712  0.62037548  0.67005909  1
  O  O203  1  0.00090430  0.63033479  0.91530016  1
  O  O204  1  -0.00207715  0.87844225  0.15551175  1
  O  O205  1  -0.00276936  0.87294610  0.41814732  1
  O  O206  1  -0.00335921  0.87166418  0.66366822  1
  O  O207  1  0.00252495  0.87312326  0.91576922  1
  O  O208  1  0.25274306  0.12073114  0.15906257  1
  O  O209  1  0.24357880  0.12471286  0.41189638  1
  O  O210  1  0.25093061  0.12665379  0.66709714  1
  O  O211  1  0.25994398  0.11898737  0.90902555  1
  O  O212  1  0.25195979  0.37726442  0.15359256  1
  O  O213  1  0.24282371  0.37383910  0.41381367  1
  O  O214  1  0.24416914  0.37697151  0.66495401  1
  O  O215  1  0.25386936  0.37859079  0.91661233  1
  O  O216  1  0.25877169  0.62973545  0.16037029  1
  O  O217  1  0.23906106  0.62562633  0.40930469  1
  O  O218  1  0.25832110  0.62594174  0.66394486  1
  O  O219  1  0.25300097  0.63139909  0.91136864  1
  O  O220  1  0.25859779  0.87376654  0.16026848  1
  O  O221  1  0.24387960  0.87623626  0.41683341  1
  O  O222  1  0.25847711  0.87113272  0.66122391  1
  O  O223  1  0.24704654  0.87225295  0.90947165  1
  O  O224  1  0.49869447  0.12307010  0.16963740  1
  O  O225  1  0.49568174  0.12847223  0.40538311  1
  O  O226  1  0.50770072  0.13006561  0.66609305  1
  O  O227  1  0.50381708  0.12228636  0.91682155  1
  O  O228  1  0.50492233  0.37771160  0.16014929  1
  O  O229  1  0.50891825  0.37315206  0.40673651  1
  O  O230  1  0.50485852  0.37606698  0.66389591  1
  O  O231  1  0.51010260  0.37916259  0.91767998  1
  O  O232  1  0.49320268  0.62771345  0.16857112  1
  O  O233  1  0.50322262  0.61999064  0.40635798  1
  O  O234  1  0.49230343  0.62178446  0.66363268  1
  O  O235  1  0.50103076  0.62793515  0.91606531  1
  O  O236  1  0.49948603  0.87419730  0.16754808  1
  O  O237  1  0.49710091  0.87868772  0.41315377  1
  O  O238  1  0.49731909  0.87325692  0.66076943  1
  O  O239  1  0.50944997  0.87184675  0.91455444  1
  O  O240  1  0.75365957  0.12507190  0.16078125  1
  O  O241  1  0.75754730  0.12651959  0.41374526  1
  O  O242  1  0.74145892  0.13192775  0.66604955  1
  O  O243  1  0.74698247  0.12340482  0.91647314  1
  O  O244  1  0.74448946  0.37128306  0.15835985  1
  O  O245  1  0.75543670  0.37511085  0.41412136  1
  O  O246  1  0.74775330  0.37564566  0.66932327  1
  O  O247  1  0.73908361  0.37638582  0.91927289  1
  O  O248  1  0.74946683  0.62717564  0.16354895  1
  O  O249  1  0.75961601  0.62277313  0.41034738  1
  O  O250  1  0.75732660  0.61760174  0.66653850  1
  O  O251  1  0.74873847  0.62727825  0.91576784  1
  O  O252  1  0.74295890  0.87670058  0.16004285  1
  O  O253  1  0.75934570  0.87525277  0.41308318  1
  O  O254  1  0.74836115  0.87409324  0.66609997  1
  O  O255  1  0.74250904  0.87360653  0.91764832  1
  O  O256  1  0.12818867  0.11018482  0.02293286  1
  O  O257  1  0.12231758  0.12211961  0.30024513  1
  O  O258  1  0.12031326  0.12174587  0.53726221  1
  O  O259  1  0.12891215  0.12425247  0.79130227  1
  O  O260  1  0.12415275  0.37771665  0.02381340  1
  O  O261  1  0.12285754  0.37398954  0.28065535  1
  O  O262  1  0.12055101  0.37895211  0.55284422  1
  O  O263  1  0.12790580  0.38218980  0.79462472  1
  O  O264  1  0.12866703  0.63852746  0.02869328  1
  O  O265  1  0.11918869  0.62726545  0.29779656  1
  O  O266  1  0.11785835  0.62154778  0.54029439  1
  O  O267  1  0.12291132  0.62807235  0.80431986  1
  O  O268  1  0.12842459  0.87445754  0.03125486  1
  O  O269  1  0.12236443  0.87736793  0.30189369  1
  O  O270  1  0.12444692  0.86954819  0.53368537  1
  O  O271  1  0.12335611  0.86950769  0.79976048  1
  O  O272  1  0.38533711  0.11935291  0.03132351  1
  O  O273  1  0.37077902  0.12461644  0.29791723  1
  O  O274  1  0.37695525  0.13617395  0.53555911  1
  O  O275  1  0.38391362  0.11981445  0.79956564  1
  O  O276  1  0.37600412  0.38042158  0.02513211  1
  O  O277  1  0.37326646  0.38085473  0.28494848  1
  O  O278  1  0.37248582  0.36455799  0.53504614  1
  O  O279  1  0.38067774  0.38346077  0.79636088  1
  O  O280  1  0.38116948  0.63078060  0.05006691  1
  O  O281  1  0.37345504  0.62718583  0.28222307  1
  O  O282  1  0.37417358  0.62006889  0.54597241  1
  O  O283  1  0.37452863  0.62686205  0.79912655  1
  O  O284  1  0.38103386  0.87199792  0.04972083  1
  O  O285  1  0.37248053  0.87130382  0.28594283  1
  O  O286  1  0.37451586  0.87637156  0.54670609  1
  O  O287  1  0.38519609  0.87200252  0.78623410  1
  O  O288  1  0.61553884  0.12547767  0.04040890  1
  O  O289  1  0.63622639  0.12311648  0.28154681  1
  O  O290  1  0.62496203  0.13143979  0.54864479  1
  O  O291  1  0.62397606  0.12385818  0.79913459  1
  O  O292  1  0.62372418  0.37515336  0.04492778  1
  O  O293  1  0.62938427  0.37134731  0.29512649  1
  O  O294  1  0.62691278  0.37414488  0.55072291  1
  O  O295  1  0.62501846  0.37712453  0.80078817  1
  O  O296  1  0.61915335  0.62451005  0.04452652  1
  O  O297  1  0.63350919  0.62181262  0.27754636  1
  O  O298  1  0.62804037  0.61068320  0.53624999  1
  O  O299  1  0.62327175  0.62401781  0.79812029  1
  O  O300  1  0.62034769  0.87371948  0.05031839  1
  O  O301  1  0.62806777  0.88615418  0.28703056  1
  O  O302  1  0.63160669  0.87682991  0.53031744  1
  O  O303  1  0.62616397  0.87278903  0.79827388  1
  O  O304  1  0.86977693  0.12239795  0.04131589  1
  O  O305  1  0.88053432  0.12708666  0.29914142  1
  O  O306  1  0.87896301  0.13365088  0.53659621  1
  O  O307  1  0.87039816  0.12193545  0.79852013  1
  O  O308  1  0.87002349  0.37010846  0.02374295  1
  O  O309  1  0.87689077  0.37458316  0.29511963  1
  O  O310  1  0.87601780  0.37785358  0.55402792  1
  O  O311  1  0.86567005  0.37990336  0.79792822  1
  O  O312  1  0.86515484  0.62903042  0.02770342  1
  O  O313  1  0.88022022  0.62640154  0.29702738  1
  O  O314  1  0.87759791  0.61737931  0.55045952  1
  O  O315  1  0.87269609  0.62832938  0.80738583  1
  O  O316  1  0.86517108  0.87921971  0.02654443  1
  O  O317  1  0.87848928  0.87602951  0.30265556  1
  O  O318  1  0.86794972  0.87130539  0.53211561  1
  O  O319  1  0.87105151  0.87501896  0.80800369  1
