# generated using pymatgen
data_VFe(PbO3)2
_symmetry_space_group_name_H-M   'P 1'
_cell_length_a   15.38498680
_cell_length_b   15.38683126
_cell_length_c   18.53099765
_cell_angle_alpha   90.01849851
_cell_angle_beta   89.99512476
_cell_angle_gamma   89.99719184
_symmetry_Int_Tables_number   1
_chemical_formula_structural   VFe(PbO3)2
_chemical_formula_sum   'V32 Fe32 Pb64 O192'
_cell_volume   4386.77232900
_cell_formula_units_Z   32
loop_
 _symmetry_equiv_pos_site_id
 _symmetry_equiv_pos_as_xyz
  1  'x, y, z'
loop_
 _atom_site_type_symbol
 _atom_site_label
 _atom_site_symmetry_multiplicity
 _atom_site_fract_x
 _atom_site_fract_y
 _atom_site_fract_z
 _atom_site_occupancy
  V  V0  1  0.87730627  0.37337848  0.88244511  1
  V  V1  1  0.12263908  0.62291648  0.13448841  1
  V  V2  1  0.37307488  0.87529862  0.39021994  1
  V  V3  1  0.37267174  0.12551830  0.39599103  1
  V  V4  1  0.62446162  0.62812406  0.64088736  1
  V  V5  1  0.37511607  0.12689690  0.88753778  1
  V  V6  1  0.62617421  0.87479779  0.64262173  1
  V  V7  1  0.88059457  0.37276020  0.13761603  1
  V  V8  1  0.87732967  0.37795869  0.39627669  1
  V  V9  1  0.86856482  0.87355602  0.64499011  1
  V  V10  1  0.62457943  0.12192794  0.63928157  1
  V  V11  1  0.87618143  0.12606013  0.39120270  1
  V  V12  1  0.37957650  0.37566877  0.88676927  1
  V  V13  1  0.87374314  0.62696504  0.64324067  1
  V  V14  1  0.37425458  0.62308241  0.13756598  1
  V  V15  1  0.11169502  0.87475785  0.65332995  1
  V  V16  1  0.38005130  0.37665862  0.63514838  1
  V  V17  1  0.62563891  0.12506726  0.38772271  1
  V  V18  1  0.87351608  0.12193379  0.64329946  1
  V  V19  1  0.62489229  0.37729536  0.14278579  1
  V  V20  1  0.37349998  0.37630884  0.39441012  1
  V  V21  1  0.87191827  0.87526972  0.88778298  1
  V  V22  1  0.12390617  0.62587095  0.39384228  1
  V  V23  1  0.62710406  0.12523913  0.13778145  1
  V  V24  1  0.37578281  0.62741916  0.88369846  1
  V  V25  1  0.37333621  0.87422420  0.64226600  1
  V  V26  1  0.62568077  0.62454248  0.38555996  1
  V  V27  1  0.12343245  0.12716190  0.13532205  1
  V  V28  1  0.62248292  0.12503007  0.89105255  1
  V  V29  1  0.12562625  0.87576205  0.39099727  1
  V  V30  1  0.12595474  0.37459767  0.39862613  1
  V  V31  1  0.62767541  0.37130516  0.88930382  1
  Fe  Fe32  1  0.87473839  0.62251090  0.89055753  1
  Fe  Fe33  1  0.12826528  0.62294238  0.87691198  1
  Fe  Fe34  1  0.62300598  0.87537275  0.38004669  1
  Fe  Fe35  1  0.12296008  0.12550358  0.39222522  1
  Fe  Fe36  1  0.12652891  0.87592958  0.87575317  1
  Fe  Fe37  1  0.37184704  0.37371819  0.13662218  1
  Fe  Fe38  1  0.12712586  0.87243308  0.13215032  1
  Fe  Fe39  1  0.62831149  0.37619894  0.63256674  1
  Fe  Fe40  1  0.12708607  0.12048375  0.64274136  1
  Fe  Fe41  1  0.12537962  0.12636965  0.87592150  1
  Fe  Fe42  1  0.62202057  0.62115870  0.89541070  1
  Fe  Fe43  1  0.12937948  0.37291941  0.87704727  1
  Fe  Fe44  1  0.87483733  0.62226971  0.12830559  1
  Fe  Fe45  1  0.12710771  0.62847053  0.64425732  1
  Fe  Fe46  1  0.37301484  0.62484495  0.39320152  1
  Fe  Fe47  1  0.87239311  0.12704480  0.88868473  1
  Fe  Fe48  1  0.87850439  0.87660642  0.13023391  1
  Fe  Fe49  1  0.87062671  0.37723741  0.63590342  1
  Fe  Fe50  1  0.62287517  0.87423351  0.13060798  1
  Fe  Fe51  1  0.37939721  0.62870839  0.63280615  1
  Fe  Fe52  1  0.87671184  0.62427435  0.38447986  1
  Fe  Fe53  1  0.36997185  0.87826984  0.13064096  1
  Fe  Fe54  1  0.37946316  0.12151497  0.63374913  1
  Fe  Fe55  1  0.12345716  0.37516617  0.63782845  1
  Fe  Fe56  1  0.12629940  0.37712072  0.13335852  1
  Fe  Fe57  1  0.87748700  0.87505917  0.38286521  1
  Fe  Fe58  1  0.87280140  0.12903097  0.13180542  1
  Fe  Fe59  1  0.37444098  0.12916193  0.13295960  1
  Fe  Fe60  1  0.62369596  0.62206851  0.12829001  1
  Fe  Fe61  1  0.62401389  0.37391752  0.39142945  1
  Fe  Fe62  1  0.37717550  0.87649999  0.88742924  1
  Fe  Fe63  1  0.62417713  0.87602822  0.89472055  1
  Pb  Pb64  1  0.00155123  -0.00301363  -0.00814116  1
  Pb  Pb65  1  -0.00441372  -0.00396974  0.24352284  1
  Pb  Pb66  1  0.00530404  0.00361283  0.50515218  1
  Pb  Pb67  1  -0.00374078  0.01185582  0.76049441  1
  Pb  Pb68  1  0.00878374  0.24702786  -0.00954662  1
  Pb  Pb69  1  0.00886112  0.24035639  0.25256855  1
  Pb  Pb70  1  0.00046315  0.25584342  0.50959884  1
  Pb  Pb71  1  0.01020712  0.25233148  0.74758919  1
  Pb  Pb72  1  0.00602815  0.50095574  -0.00958382  1
  Pb  Pb73  1  -0.00406688  0.50482180  0.24926123  1
  Pb  Pb74  1  0.00831595  0.50043354  0.51083588  1
  Pb  Pb75  1  0.00870369  0.49624755  0.74873790  1
  Pb  Pb76  1  0.00285922  0.75298866  -0.00967850  1
  Pb  Pb77  1  -0.01272323  0.75256132  0.24462406  1
  Pb  Pb78  1  0.00116436  0.74672304  0.50167551  1
  Pb  Pb79  1  -0.00451975  0.73816169  0.76016734  1
  Pb  Pb80  1  0.24525052  -0.00838141  -0.00461387  1
  Pb  Pb81  1  0.24813780  0.00321043  0.24354939  1
  Pb  Pb82  1  0.24552169  0.00622764  0.50800504  1
  Pb  Pb83  1  0.24968878  -0.00271434  0.75176157  1
  Pb  Pb84  1  0.25434904  0.25202028  -0.00248947  1
  Pb  Pb85  1  0.24772703  0.25000937  0.24779379  1
  Pb  Pb86  1  0.24190552  0.24708273  0.50837283  1
  Pb  Pb87  1  0.24662062  0.24729406  0.74215322  1
  Pb  Pb88  1  0.24607250  0.48948535  -0.00516319  1
  Pb  Pb89  1  0.25299790  0.50236419  0.25138841  1
  Pb  Pb90  1  0.24084983  0.50335297  0.51051551  1
  Pb  Pb91  1  0.24771475  0.50226587  0.74253322  1
  Pb  Pb92  1  0.24526003  0.76059860  -0.00658003  1
  Pb  Pb93  1  0.25370067  0.74523363  0.24700535  1
  Pb  Pb94  1  0.24575261  0.74355509  0.50744691  1
  Pb  Pb95  1  0.24851340  0.75150013  0.75180882  1
  Pb  Pb96  1  0.49724584  -0.00642714  0.00366643  1
  Pb  Pb97  1  0.50027167  -0.00372355  0.24304620  1
  Pb  Pb98  1  0.49538494  0.00193205  0.50038229  1
  Pb  Pb99  1  0.50182102  -0.01148136  0.75832159  1
  Pb  Pb100  1  0.48982234  0.24985868  0.00629067  1
  Pb  Pb101  1  0.50174163  0.25493004  0.25090846  1
  Pb  Pb102  1  0.49752382  0.24610282  0.50165838  1
  Pb  Pb103  1  0.50046849  0.25149031  0.74582735  1
  Pb  Pb104  1  0.49812644  0.49880228  0.00181079  1
  Pb  Pb105  1  0.49612500  0.50551232  0.25239753  1
  Pb  Pb106  1  0.49928133  0.50277128  0.50083219  1
  Pb  Pb107  1  0.50718626  0.50866342  0.75024534  1
  Pb  Pb108  1  0.50813602  0.75658180  0.00077736  1
  Pb  Pb109  1  0.50423262  0.75469298  0.24243702  1
  Pb  Pb110  1  0.49630201  0.74700605  0.49884490  1
  Pb  Pb111  1  0.50484519  0.76134567  0.76010019  1
  Pb  Pb112  1  0.76251417  -0.00528346  0.00651407  1
  Pb  Pb113  1  0.75370402  -0.01131002  0.24423535  1
  Pb  Pb114  1  0.74909102  -0.00270827  0.49314614  1
  Pb  Pb115  1  0.75016424  0.00162143  0.75825271  1
  Pb  Pb116  1  0.75312483  0.24606921  0.00197456  1
  Pb  Pb117  1  0.74483172  0.25871234  0.25360318  1
  Pb  Pb118  1  0.75104382  0.25694947  0.50518395  1
  Pb  Pb119  1  0.75392719  0.24912853  0.74891791  1
  Pb  Pb120  1  0.75196763  0.50819321  0.00206845  1
  Pb  Pb121  1  0.75247725  0.50713162  0.24782986  1
  Pb  Pb122  1  0.74960569  0.49284123  0.50276073  1
  Pb  Pb123  1  0.74851882  0.50850300  0.75477715  1
  Pb  Pb124  1  0.74998662  0.74436115  -0.00087755  1
  Pb  Pb125  1  0.75072216  0.75250182  0.23624018  1
  Pb  Pb126  1  0.75211952  0.75283797  0.48992713  1
  Pb  Pb127  1  0.74546549  0.74057664  0.76286805  1
  O  O128  1  0.12474688  0.00909180  0.15736822  1
  O  O129  1  0.12530066  -0.00591613  0.41701689  1
  O  O130  1  0.12617233  -0.00773402  0.66943574  1
  O  O131  1  0.12661570  0.00179459  0.90255944  1
  O  O132  1  0.12301847  0.24761920  0.16345573  1
  O  O133  1  0.12429473  0.25260985  0.42338580  1
  O  O134  1  0.12458627  0.24846979  0.65787055  1
  O  O135  1  0.12683313  0.25053047  0.90823924  1
  O  O136  1  0.12694148  0.50682007  0.16489758  1
  O  O137  1  0.12466613  0.50047335  0.42259778  1
  O  O138  1  0.12504359  0.50099139  0.66219776  1
  O  O139  1  0.12894454  0.49685811  0.90710891  1
  O  O140  1  0.12826173  0.73850090  0.15996369  1
  O  O141  1  0.12586269  0.75433799  0.41868627  1
  O  O142  1  0.12595633  0.75696488  0.66813175  1
  O  O143  1  0.12736474  0.74885720  0.90469014  1
  O  O144  1  0.37260092  0.00518440  0.16337645  1
  O  O145  1  0.37216947  -0.00523262  0.41724534  1
  O  O146  1  0.38287814  -0.00721036  0.66475371  1
  O  O147  1  0.38073828  0.01197250  0.90699834  1
  O  O148  1  0.37567647  0.25037191  0.17054278  1
  O  O149  1  0.37329746  0.25238143  0.41994450  1
  O  O150  1  0.38172848  0.25497642  0.65964689  1
  O  O151  1  0.38051404  0.25143352  0.91361110  1
  O  O152  1  0.37336198  0.50347659  0.16682721  1
  O  O153  1  0.37377157  0.49322061  0.41778932  1
  O  O154  1  0.38122827  0.49508721  0.65880399  1
  O  O155  1  0.37786220  0.49250295  0.90833892  1
  O  O156  1  0.37190071  0.74198484  0.15984308  1
  O  O157  1  0.37138761  0.75826283  0.41573134  1
  O  O158  1  0.38361975  0.75698806  0.66469190  1
  O  O159  1  0.37697370  0.74194675  0.90254186  1
  O  O160  1  0.62468697  0.00836795  0.15747363  1
  O  O161  1  0.62402311  0.00378876  0.41373544  1
  O  O162  1  0.62696949  0.00186091  0.66640332  1
  O  O163  1  0.62186085  0.01120206  0.91189592  1
  O  O164  1  0.62679579  0.25385798  0.16746192  1
  O  O165  1  0.62546636  0.24391494  0.41692075  1
  O  O166  1  0.62877742  0.24098477  0.65966593  1
  O  O167  1  0.62167816  0.25411015  0.91873226  1
  O  O168  1  0.62283376  0.49454391  0.16420541  1
  O  O169  1  0.62414123  0.50599833  0.41324598  1
  O  O170  1  0.62855049  0.50835709  0.66143031  1
  O  O171  1  0.62059586  0.48615197  0.91563150  1
  O  O172  1  0.62105268  0.74678392  0.15604882  1
  O  O173  1  0.62332892  0.74466131  0.40936500  1
  O  O174  1  0.62615349  0.74782305  0.66715678  1
  O  O175  1  0.62168039  0.74820473  0.91474266  1
  O  O176  1  0.87509878  0.00533935  0.16199027  1
  O  O177  1  0.87647393  0.00650840  0.41288774  1
  O  O178  1  0.86934124  -0.00167861  0.67254245  1
  O  O179  1  0.87208292  -0.00348943  0.91114352  1
  O  O180  1  0.87157635  0.25778068  0.16416329  1
  O  O181  1  0.87534661  0.24735387  0.41951533  1
  O  O182  1  0.86943448  0.23918673  0.65937972  1
  O  O183  1  0.87001926  0.25884646  0.91229329  1
  O  O184  1  0.87479738  0.49136361  0.16473256  1
  O  O185  1  0.87650213  0.49507232  0.41467111  1
  O  O186  1  0.86884406  0.51066301  0.66065302  1
  O  O187  1  0.87021927  0.48739889  0.90961590  1
  O  O188  1  0.87705015  0.74781832  0.15595779  1
  O  O189  1  0.87702954  0.74948321  0.41474093  1
  O  O190  1  0.86997291  0.75000861  0.67224806  1
  O  O191  1  0.87443454  0.75616638  0.91024371  1
  O  O192  1  0.00331174  0.13024060  0.16013849  1
  O  O193  1  -0.00691306  0.12652982  0.42030340  1
  O  O194  1  -0.00933780  0.11683995  0.66194499  1
  O  O195  1  -0.00094895  0.12769044  0.90820743  1
  O  O196  1  -0.00406859  0.37601791  0.16060420  1
  O  O197  1  -0.00287287  0.37302592  0.42270487  1
  O  O198  1  -0.00536238  0.37587220  0.66055008  1
  O  O199  1  -0.00620446  0.37346225  0.90066910  1
  O  O200  1  0.00566327  0.61991957  0.15615920  1
  O  O201  1  0.00349238  0.62484496  0.42025497  1
  O  O202  1  -0.00919864  0.63093437  0.66310384  1
  O  O203  1  0.00197237  0.62129049  0.90790581  1
  O  O204  1  0.00485339  0.87506601  0.16272813  1
  O  O205  1  0.00794996  0.87494840  0.41545595  1
  O  O206  1  -0.00492566  0.87474182  0.67142981  1
  O  O207  1  -0.00495185  0.87639516  0.90460254  1
  O  O208  1  0.24227719  0.12981063  0.16137601  1
  O  O209  1  0.25117192  0.12367155  0.42105544  1
  O  O210  1  0.25602119  0.12095548  0.66181413  1
  O  O211  1  0.25928079  0.13207687  0.90152329  1
  O  O212  1  0.24782483  0.37579104  0.16996059  1
  O  O213  1  0.25291842  0.37387222  0.42114100  1
  O  O214  1  0.26124486  0.37479085  0.65789524  1
  O  O215  1  0.26010319  0.37089956  0.90502397  1
  O  O216  1  0.25087298  0.62168688  0.16336268  1
  O  O217  1  0.24495512  0.62661236  0.42064763  1
  O  O218  1  0.25622560  0.62837922  0.66150537  1
  O  O219  1  0.26041308  0.61723373  0.90579042  1
  O  O220  1  0.24817125  0.87422169  0.16851664  1
  O  O221  1  0.24716215  0.87544013  0.41870660  1
  O  O222  1  0.25800939  0.87481216  0.66195561  1
  O  O223  1  0.25207657  0.87678226  0.90830025  1
  O  O224  1  0.50935934  0.13106765  0.16279157  1
  O  O225  1  0.49988845  0.12406350  0.41745649  1
  O  O226  1  0.50840211  0.12360315  0.66197551  1
  O  O227  1  0.50319507  0.13251149  0.91707699  1
  O  O228  1  0.50510390  0.37429540  0.16499917  1
  O  O229  1  0.49286434  0.37320838  0.41567604  1
  O  O230  1  0.50124021  0.37496515  0.66116536  1
  O  O231  1  0.49893779  0.37167888  0.91499244  1
  O  O232  1  0.49301180  0.62058698  0.16005559  1
  O  O233  1  0.50520592  0.62538769  0.41480394  1
  O  O234  1  0.50752257  0.62576858  0.66288306  1
  O  O235  1  0.48964640  0.61633109  0.91607844  1
  O  O236  1  0.49560268  0.87685255  0.16014947  1
  O  O237  1  0.49201608  0.87592806  0.41076204  1
  O  O238  1  0.50525373  0.87496706  0.66771857  1
  O  O239  1  0.49803003  0.87844181  0.91950138  1
  O  O240  1  0.74296232  0.13082182  0.16563882  1
  O  O241  1  0.75399421  0.12462641  0.41405600  1
  O  O242  1  0.74739785  0.11944934  0.66823742  1
  O  O243  1  0.74022216  0.13231583  0.91408026  1
  O  O244  1  0.74912872  0.37603739  0.16497955  1
  O  O245  1  0.75622915  0.37322114  0.41460208  1
  O  O246  1  0.74838928  0.37438426  0.66872323  1
  O  O247  1  0.74467846  0.37129535  0.90787367  1
  O  O248  1  0.74930170  0.61890218  0.15821983  1
  O  O249  1  0.74400494  0.62459900  0.40898136  1
  O  O250  1  0.74751784  0.63010462  0.66943518  1
  O  O251  1  0.74929724  0.62094071  0.91631464  1
  O  O252  1  0.74927796  0.87702334  0.15595432  1
  O  O253  1  0.74936829  0.87651080  0.41040994  1
  O  O254  1  0.74733577  0.87433985  0.67147521  1
  O  O255  1  0.75414236  0.87611180  0.91272681  1
  O  O256  1  0.12405630  0.13058674  0.04421725  1
  O  O257  1  0.11832630  0.13187039  0.29327662  1
  O  O258  1  0.12356301  0.11237948  0.54066938  1
  O  O259  1  0.12190784  0.12693997  0.77377666  1
  O  O260  1  0.13074432  0.37875262  0.03386207  1
  O  O261  1  0.12280352  0.37740334  0.30771408  1
  O  O262  1  0.12443144  0.38085077  0.53565174  1
  O  O263  1  0.12406987  0.37264302  0.77586431  1
  O  O264  1  0.12717772  0.62012238  0.04344120  1
  O  O265  1  0.12355118  0.62541628  0.30293429  1
  O  O266  1  0.12358167  0.62897192  0.54221842  1
  O  O267  1  0.12450763  0.62496958  0.77516364  1
  O  O268  1  0.13450924  0.87430789  0.03188364  1
  O  O269  1  0.12752838  0.87410079  0.30068692  1
  O  O270  1  0.11775272  0.87585756  0.56131534  1
  O  O271  1  0.13450013  0.87354512  0.77420034  1
  O  O272  1  0.37378795  0.13676944  0.03329597  1
  O  O273  1  0.37490382  0.12461166  0.30514949  1
  O  O274  1  0.38268326  0.11904451  0.53349603  1
  O  O275  1  0.38528755  0.13254045  0.79651937  1
  O  O276  1  0.36995658  0.37011411  0.03671185  1
  O  O277  1  0.37123262  0.37551556  0.30343619  1
  O  O278  1  0.38124783  0.37577089  0.54410275  1
  O  O279  1  0.38488429  0.37180564  0.79594061  1
  O  O280  1  0.37179314  0.61933380  0.04725005  1
  O  O281  1  0.37290156  0.62090549  0.29369649  1
  O  O282  1  0.38288763  0.63155848  0.53196700  1
  O  O283  1  0.38213596  0.62016380  0.79233479  1
  O  O284  1  0.36477851  0.88036812  0.02998632  1
  O  O285  1  0.36884403  0.87642111  0.29966537  1
  O  O286  1  0.37763305  0.87454924  0.55076787  1
  O  O287  1  0.38766211  0.87667555  0.78634289  1
  O  O288  1  0.62970220  0.13078082  0.04691504  1
  O  O289  1  0.62515264  0.12615667  0.29689716  1
  O  O290  1  0.62811885  0.11800531  0.54841055  1
  O  O291  1  0.62117474  0.13015934  0.79974636  1
  O  O292  1  0.62599336  0.37467538  0.05209836  1
  O  O293  1  0.62631832  0.37001431  0.29191834  1
  O  O294  1  0.63430110  0.37806221  0.53205166  1
  O  O295  1  0.62239499  0.37002385  0.79807410  1
  O  O296  1  0.62158317  0.61524402  0.02776776  1
  O  O297  1  0.62154220  0.62179309  0.29444438  1
  O  O298  1  0.62766213  0.63036857  0.55012698  1
  O  O299  1  0.62548726  0.61583732  0.79354723  1
  O  O300  1  0.61705294  0.87856895  0.02935865  1
  O  O301  1  0.62048373  0.87626356  0.28075506  1
  O  O302  1  0.62585426  0.87428785  0.55171264  1
  O  O303  1  0.61511644  0.87699532  0.79295840  1
  O  O304  1  0.86538008  0.12790426  0.03167286  1
  O  O305  1  0.87868933  0.13133294  0.30069198  1
  O  O306  1  0.86897066  0.11509009  0.55254363  1
  O  O307  1  0.86871923  0.12105610  0.78804550  1
  O  O308  1  0.87782782  0.37326603  0.04686880  1
  O  O309  1  0.88235587  0.37241531  0.30576923  1
  O  O310  1  0.86571295  0.37310272  0.53530464  1
  O  O311  1  0.87098108  0.37162899  0.79115373  1
  O  O312  1  0.87321694  0.61696414  0.02780940  1
  O  O313  1  0.88235440  0.61780565  0.28513053  1
  O  O314  1  0.86915279  0.63262851  0.55236843  1
  O  O315  1  0.86734871  0.62809780  0.78895932  1
  O  O316  1  0.87991840  0.88373211  0.03003877  1
  O  O317  1  0.87995424  0.87560019  0.28306459  1
  O  O318  1  0.87236909  0.87496386  0.55422958  1
  O  O319  1  0.86844486  0.87641195  0.79639949  1
