# generated using pymatgen
data_VFe(PbO3)2
_symmetry_space_group_name_H-M   'P 1'
_cell_length_a   15.37614505
_cell_length_b   15.38637177
_cell_length_c   18.54311419
_cell_angle_alpha   90.01120993
_cell_angle_beta   90.03034475
_cell_angle_gamma   89.99237676
_symmetry_Int_Tables_number   1
_chemical_formula_structural   VFe(PbO3)2
_chemical_formula_sum   'V32 Fe32 Pb64 O192'
_cell_volume   4386.98640827
_cell_formula_units_Z   32
loop_
 _symmetry_equiv_pos_site_id
 _symmetry_equiv_pos_as_xyz
  1  'x, y, z'
loop_
 _atom_site_type_symbol
 _atom_site_label
 _atom_site_symmetry_multiplicity
 _atom_site_fract_x
 _atom_site_fract_y
 _atom_site_fract_z
 _atom_site_occupancy
  V  V0  1  0.62091792  0.37639240  0.13627787  1
  V  V1  1  0.62423284  0.62768619  0.64219035  1
  V  V2  1  0.38197147  0.87337163  0.64118994  1
  V  V3  1  0.62539971  0.12685524  0.39172158  1
  V  V4  1  0.87558229  0.37583449  0.39074228  1
  V  V5  1  0.12475506  0.87398510  0.64125050  1
  V  V6  1  0.12251298  0.62657568  0.64609343  1
  V  V7  1  0.12321721  0.12529815  0.88234039  1
  V  V8  1  0.37581165  0.37396520  0.39468741  1
  V  V9  1  0.87307110  0.62629482  0.64569209  1
  V  V10  1  0.87456305  0.37684820  0.64438204  1
  V  V11  1  0.87510103  0.87428833  0.64403239  1
  V  V12  1  0.37641670  0.12430706  0.39703554  1
  V  V13  1  0.37333420  0.87518079  0.13850518  1
  V  V14  1  0.12872996  0.12465205  0.14023565  1
  V  V15  1  0.62677750  0.62386762  0.39021718  1
  V  V16  1  0.62307706  0.37228990  0.88225446  1
  V  V17  1  0.12572840  0.37490377  0.88173362  1
  V  V18  1  0.62147217  0.62521827  0.13745636  1
  V  V19  1  0.12885012  0.87645161  0.38891786  1
  V  V20  1  0.62366287  0.87503550  0.88848274  1
  V  V21  1  0.12666780  0.37414124  0.13614402  1
  V  V22  1  0.87533457  0.12700029  0.39132847  1
  V  V23  1  0.62572205  0.62344735  0.88600800  1
  V  V24  1  0.37417898  0.37786858  0.64046689  1
  V  V25  1  0.12793411  0.37608968  0.39840265  1
  V  V26  1  0.37129976  0.37364509  0.13981840  1
  V  V27  1  0.87627689  0.87529505  0.38588926  1
  V  V28  1  0.62644707  0.12476132  0.64016246  1
  V  V29  1  0.12597649  0.87370472  0.88929986  1
  V  V30  1  0.87518573  0.62418907  0.38800361  1
  V  V31  1  0.62625636  0.37217398  0.40083084  1
  Fe  Fe32  1  0.62605578  0.37765377  0.63551554  1
  Fe  Fe33  1  0.87521726  0.62127951  0.12987735  1
  Fe  Fe34  1  0.62055457  0.12530120  0.12834481  1
  Fe  Fe35  1  0.37506912  0.12356857  0.87698274  1
  Fe  Fe36  1  0.87639460  0.87538850  0.12883867  1
  Fe  Fe37  1  0.37505068  0.87536223  0.87859523  1
  Fe  Fe38  1  0.12757873  0.87580095  0.12814631  1
  Fe  Fe39  1  0.87287787  0.12820563  0.13390934  1
  Fe  Fe40  1  0.12308300  0.37816112  0.63647322  1
  Fe  Fe41  1  0.62218169  0.87379108  0.12976784  1
  Fe  Fe42  1  0.87386041  0.62552461  0.88920989  1
  Fe  Fe43  1  0.37636336  0.62414089  0.13818437  1
  Fe  Fe44  1  0.37513136  0.87544530  0.38642276  1
  Fe  Fe45  1  0.37494125  0.37452396  0.87878291  1
  Fe  Fe46  1  0.62545573  0.12441048  0.88704008  1
  Fe  Fe47  1  0.12340292  0.12545260  0.63476421  1
  Fe  Fe48  1  0.62939591  0.87338715  0.63532841  1
  Fe  Fe49  1  0.87502267  0.12402455  0.88038941  1
  Fe  Fe50  1  0.12899827  0.62387794  0.12809683  1
  Fe  Fe51  1  0.37459790  0.62286012  0.38736512  1
  Fe  Fe52  1  0.37586842  0.62668841  0.87828333  1
  Fe  Fe53  1  0.87498369  0.87525357  0.88922950  1
  Fe  Fe54  1  0.12254424  0.62571475  0.38603903  1
  Fe  Fe55  1  0.87529498  0.37376327  0.88447598  1
  Fe  Fe56  1  0.12473793  0.12532007  0.39378142  1
  Fe  Fe57  1  0.37410679  0.62664340  0.64428523  1
  Fe  Fe58  1  0.87473337  0.12390199  0.64174992  1
  Fe  Fe59  1  0.87715062  0.37336748  0.13181367  1
  Fe  Fe60  1  0.62643768  0.87678854  0.38926658  1
  Fe  Fe61  1  0.37427911  0.12348033  0.64238504  1
  Fe  Fe62  1  0.12503034  0.62367792  0.88784683  1
  Fe  Fe63  1  0.37641934  0.12639797  0.13546186  1
  Pb  Pb64  1  -0.00143508  -0.00545078  -0.00098247  1
  Pb  Pb65  1  -0.00218804  -0.00180753  0.24269675  1
  Pb  Pb66  1  -0.00134945  0.00817506  0.50279253  1
  Pb  Pb67  1  -0.00729850  -0.00168873  0.75172372  1
  Pb  Pb68  1  -0.00851969  0.24910921  -0.00423974  1
  Pb  Pb69  1  0.00530776  0.24586558  0.25097735  1
  Pb  Pb70  1  0.00534144  0.25119337  0.50682294  1
  Pb  Pb71  1  -0.00283720  0.24932363  0.74585242  1
  Pb  Pb72  1  -0.00466866  0.50615881  -0.00368034  1
  Pb  Pb73  1  0.00499601  0.50564218  0.24376534  1
  Pb  Pb74  1  0.00291929  0.49632526  0.50397914  1
  Pb  Pb75  1  -0.00160640  0.51000543  0.75892572  1
  Pb  Pb76  1  -0.00530727  0.74806071  -0.00224103  1
  Pb  Pb77  1  0.00451680  0.74649175  0.23538758  1
  Pb  Pb78  1  -0.00102653  0.75328926  0.49657088  1
  Pb  Pb79  1  -0.00616260  0.74938276  0.76110520  1
  Pb  Pb80  1  0.25108722  -0.00200088  -0.00628671  1
  Pb  Pb81  1  0.25503534  -0.00322738  0.25059046  1
  Pb  Pb82  1  0.25080186  0.01013290  0.50786266  1
  Pb  Pb83  1  0.25611051  -0.00065329  0.74960028  1
  Pb  Pb84  1  0.25670085  0.24516730  -0.01012514  1
  Pb  Pb85  1  0.24474790  0.24439628  0.25633283  1
  Pb  Pb86  1  0.24852579  0.24384855  0.51103398  1
  Pb  Pb87  1  0.25141257  0.24931593  0.74341594  1
  Pb  Pb88  1  0.25404495  0.51016981  -0.00391400  1
  Pb  Pb89  1  0.24948983  0.51121499  0.25433418  1
  Pb  Pb90  1  0.25467496  0.50740490  0.50501508  1
  Pb  Pb91  1  0.24726653  0.50991355  0.75507261  1
  Pb  Pb92  1  0.25207654  0.74113851  -0.00417409  1
  Pb  Pb93  1  0.24837539  0.74362782  0.24578121  1
  Pb  Pb94  1  0.26035912  0.74210251  0.50066287  1
  Pb  Pb95  1  0.25016818  0.74933544  0.75559407  1
  Pb  Pb96  1  0.49864100  0.00786844  -0.00419953  1
  Pb  Pb97  1  0.50416344  -0.00555602  0.24754447  1
  Pb  Pb98  1  0.50485148  -0.00672815  0.50275413  1
  Pb  Pb99  1  0.50573841  0.01213737  0.75525800  1
  Pb  Pb100  1  0.49680281  0.23914200  -0.00480444  1
  Pb  Pb101  1  0.50138709  0.24765263  0.24796269  1
  Pb  Pb102  1  0.49587849  0.24607657  0.50968474  1
  Pb  Pb103  1  0.49531494  0.25018191  0.74966800  1
  Pb  Pb104  1  0.49174575  0.50564067  -0.00708504  1
  Pb  Pb105  1  0.49428907  0.50383088  0.25326045  1
  Pb  Pb106  1  0.50188952  0.49859058  0.50550279  1
  Pb  Pb107  1  0.49263439  0.49618089  0.75112117  1
  Pb  Pb108  1  0.49930668  0.75382849  -0.00436309  1
  Pb  Pb109  1  0.49543416  0.76236441  0.25572224  1
  Pb  Pb110  1  0.49919648  0.75133179  0.49880078  1
  Pb  Pb111  1  0.49409914  0.75245223  0.75226875  1
  Pb  Pb112  1  0.75781067  0.00400215  -0.00325670  1
  Pb  Pb113  1  0.74408229  -0.00263212  0.23753968  1
  Pb  Pb114  1  0.75683711  0.00446717  0.50223092  1
  Pb  Pb115  1  0.74746610  0.00997523  0.75695724  1
  Pb  Pb116  1  0.75877391  0.24338039  -0.00360775  1
  Pb  Pb117  1  0.75068363  0.24838138  0.24277462  1
  Pb  Pb118  1  0.75687182  0.24509590  0.50716782  1
  Pb  Pb119  1  0.75502538  0.25011078  0.75374829  1
  Pb  Pb120  1  0.75768856  0.49809537  -0.00292140  1
  Pb  Pb121  1  0.75175944  0.49763739  0.24445788  1
  Pb  Pb122  1  0.74803140  0.49634809  0.50475627  1
  Pb  Pb123  1  0.75724308  0.49885771  0.75569532  1
  Pb  Pb124  1  0.74981363  0.75734781  -0.00003572  1
  Pb  Pb125  1  0.75014834  0.75528954  0.24108379  1
  Pb  Pb126  1  0.74631495  0.75553838  0.50032344  1
  Pb  Pb127  1  0.75893773  0.75284925  0.75768538  1
  O  O128  1  0.12943376  0.00849523  0.16165713  1
  O  O129  1  0.12230744  -0.00623695  0.41688591  1
  O  O130  1  0.12068943  -0.01041651  0.66190057  1
  O  O131  1  0.12587313  0.00538388  0.90986597  1
  O  O132  1  0.12983422  0.25223798  0.16836301  1
  O  O133  1  0.12368306  0.25645896  0.42102172  1
  O  O134  1  0.12364427  0.25268892  0.66171771  1
  O  O135  1  0.12526861  0.24512244  0.90713673  1
  O  O136  1  0.13006988  0.48933632  0.15914160  1
  O  O137  1  0.12213407  0.49503524  0.41886372  1
  O  O138  1  0.12180493  0.50706210  0.66584788  1
  O  O139  1  0.12667423  0.48915222  0.90513912  1
  O  O140  1  0.12886168  0.74990730  0.15699706  1
  O  O141  1  0.12003132  0.75808419  0.41240065  1
  O  O142  1  0.11994889  0.74915495  0.67012195  1
  O  O143  1  0.12577301  0.75703779  0.90643639  1
  O  O144  1  0.37486982  -0.00370826  0.16343328  1
  O  O145  1  0.37607346  0.00701657  0.41676804  1
  O  O146  1  0.36992602  -0.01039927  0.65987574  1
  O  O147  1  0.37426913  -0.00056314  0.90749190  1
  O  O148  1  0.37669565  0.25800940  0.16827694  1
  O  O149  1  0.37552894  0.24953016  0.42406360  1
  O  O150  1  0.37789672  0.25615330  0.66061746  1
  O  O151  1  0.37601743  0.24966165  0.90682244  1
  O  O152  1  0.37572880  0.48937291  0.16716874  1
  O  O153  1  0.37497881  0.49515206  0.42049646  1
  O  O154  1  0.37617315  0.49703855  0.66240423  1
  O  O155  1  0.37518506  0.49971721  0.90650985  1
  O  O156  1  0.37412777  0.75529870  0.16096846  1
  O  O157  1  0.37547844  0.74928594  0.41503300  1
  O  O158  1  0.36992475  0.75647979  0.66529097  1
  O  O159  1  0.37408517  0.75099572  0.90774317  1
  O  O160  1  0.62122627  -0.00064879  0.15788445  1
  O  O161  1  0.62527017  0.00727498  0.41593900  1
  O  O162  1  0.62706811  0.00180259  0.66282917  1
  O  O163  1  0.62459510  -0.00944773  0.90867131  1
  O  O164  1  0.61989297  0.25944250  0.16131665  1
  O  O165  1  0.62529152  0.24806438  0.42437864  1
  O  O166  1  0.62499780  0.24499800  0.65958260  1
  O  O167  1  0.62183825  0.25752171  0.89865084  1
  O  O168  1  0.62194073  0.49639734  0.16571292  1
  O  O169  1  0.62807684  0.50361848  0.41964450  1
  O  O170  1  0.62776532  0.50970349  0.66471635  1
  O  O171  1  0.62446047  0.50541695  0.90957888  1
  O  O172  1  0.62165877  0.74060653  0.16027054  1
  O  O173  1  0.62826603  0.74166620  0.41383681  1
  O  O174  1  0.62850492  0.74543533  0.66887974  1
  O  O175  1  0.62316758  0.74647624  0.91193855  1
  O  O176  1  0.87549973  0.00292017  0.16288791  1
  O  O177  1  0.87430739  0.00088307  0.41500962  1
  O  O178  1  0.87689263  -0.00900569  0.66207385  1
  O  O179  1  0.87502239  0.00081340  0.91104394  1
  O  O180  1  0.87586275  0.25226205  0.16874847  1
  O  O181  1  0.87451890  0.25206158  0.41942956  1
  O  O182  1  0.87163003  0.25664944  0.66103618  1
  O  O183  1  0.87501589  0.24921780  0.91073432  1
  O  O184  1  0.87344229  0.49626329  0.16516724  1
  O  O185  1  0.87430979  0.49920039  0.41735438  1
  O  O186  1  0.87341662  0.50068939  0.66808863  1
  O  O187  1  0.87310306  0.49789482  0.91126430  1
  O  O188  1  0.87472849  0.74678027  0.15883955  1
  O  O189  1  0.87516296  0.74950811  0.41408607  1
  O  O190  1  0.87793390  0.75077122  0.67080766  1
  O  O191  1  0.87675829  0.75036466  0.91417241  1
  O  O192  1  0.00991362  0.13038321  0.16404469  1
  O  O193  1  -0.00407063  0.12594987  0.41754590  1
  O  O194  1  -0.00046548  0.12370466  0.66313986  1
  O  O195  1  0.00685449  0.12478391  0.90701286  1
  O  O196  1  0.01029814  0.37168538  0.16023044  1
  O  O197  1  -0.00068055  0.37493956  0.41937885  1
  O  O198  1  -0.00790987  0.37883056  0.66569167  1
  O  O199  1  0.00876564  0.36966627  0.90735059  1
  O  O200  1  0.00329996  0.61845457  0.15795885  1
  O  O201  1  -0.00450022  0.62423706  0.41589159  1
  O  O202  1  -0.00038182  0.62548998  0.67014814  1
  O  O203  1  0.00140345  0.62311477  0.91273551  1
  O  O204  1  0.00304844  0.87871905  0.16109175  1
  O  O205  1  -0.00158264  0.87673362  0.41690768  1
  O  O206  1  -0.00051954  0.87018487  0.66898184  1
  O  O207  1  0.00810217  0.87954437  0.91263264  1
  O  O208  1  0.24821399  0.12974442  0.16762464  1
  O  O209  1  0.25599429  0.12727537  0.41903548  1
  O  O210  1  0.24753788  0.12190253  0.66392883  1
  O  O211  1  0.24385308  0.12510132  0.90636773  1
  O  O212  1  0.25210633  0.37113014  0.16301809  1
  O  O213  1  0.24767105  0.37467657  0.41878200  1
  O  O214  1  0.25549177  0.37711879  0.65933297  1
  O  O215  1  0.24317044  0.36798678  0.90659718  1
  O  O216  1  0.25182037  0.62034851  0.16606439  1
  O  O217  1  0.24667207  0.62309365  0.41735765  1
  O  O218  1  0.24163929  0.62736228  0.66572760  1
  O  O219  1  0.25106109  0.62439191  0.91012519  1
  O  O220  1  0.25478382  0.87822397  0.16427635  1
  O  O221  1  0.24396994  0.87724976  0.41127612  1
  O  O222  1  0.24102460  0.87057686  0.66307831  1
  O  O223  1  0.24447693  0.87961292  0.90963843  1
  O  O224  1  0.49876836  0.12893105  0.16856288  1
  O  O225  1  0.49818711  0.12851875  0.42000292  1
  O  O226  1  0.50585747  0.12152908  0.66115992  1
  O  O227  1  0.49956467  0.12365385  0.90996890  1
  O  O228  1  0.49926883  0.37667531  0.16547913  1
  O  O229  1  0.49925695  0.37489388  0.42374127  1
  O  O230  1  0.49807615  0.37774820  0.66241913  1
  O  O231  1  0.50769555  0.38135751  0.90891014  1
  O  O232  1  0.50496041  0.61818469  0.16574554  1
  O  O233  1  0.50879251  0.62171533  0.41279223  1
  O  O234  1  0.50631817  0.62935107  0.66132882  1
  O  O235  1  0.50535596  0.62562460  0.90990395  1
  O  O236  1  0.49375520  0.87339579  0.16319724  1
  O  O237  1  0.50058697  0.87569898  0.41935448  1
  O  O238  1  0.49769576  0.87049574  0.65673647  1
  O  O239  1  0.50469692  0.87067455  0.90916548  1
  O  O240  1  0.74504132  0.12989899  0.16212034  1
  O  O241  1  0.75023207  0.12745081  0.41954851  1
  O  O242  1  0.74502464  0.12345035  0.66531699  1
  O  O243  1  0.74949050  0.12535472  0.90985937  1
  O  O244  1  0.74009251  0.37550387  0.15966064  1
  O  O245  1  0.75262840  0.37527048  0.42191869  1
  O  O246  1  0.75329499  0.37850490  0.66572040  1
  O  O247  1  0.73863675  0.37857876  0.90952847  1
  O  O248  1  0.74014434  0.61920757  0.16219077  1
  O  O249  1  0.74921748  0.62331697  0.41737423  1
  O  O250  1  0.75081192  0.62761205  0.66889775  1
  O  O251  1  0.74177038  0.62659871  0.91195348  1
  O  O252  1  0.74874160  0.87225579  0.15921625  1
  O  O253  1  0.75565948  0.87439699  0.41418226  1
  O  O254  1  0.75786674  0.86969214  0.66274941  1
  O  O255  1  0.74263628  0.87008691  0.91134572  1
  O  O256  1  0.12941937  0.12922637  0.04993171  1
  O  O257  1  0.12890647  0.13434404  0.29450699  1
  O  O258  1  0.12791344  0.12218302  0.53227775  1
  O  O259  1  0.12345767  0.12378801  0.79132596  1
  O  O260  1  0.12868504  0.36971336  0.04615335  1
  O  O261  1  0.12616010  0.37546639  0.30746297  1
  O  O262  1  0.11488343  0.37919188  0.53701671  1
  O  O263  1  0.12539082  0.37307188  0.79027453  1
  O  O264  1  0.13532780  0.62021251  0.02738287  1
  O  O265  1  0.12592620  0.61795607  0.28678708  1
  O  O266  1  0.11993415  0.62928243  0.55501934  1
  O  O267  1  0.12633945  0.61934855  0.78645419  1
  O  O268  1  0.12789764  0.88447946  0.02939889  1
  O  O269  1  0.12597524  0.87881036  0.29801486  1
  O  O270  1  0.12144938  0.86938787  0.55060448  1
  O  O271  1  0.12408149  0.87871781  0.79780700  1
  O  O272  1  0.37977190  0.13125089  0.03622296  1
  O  O273  1  0.37655347  0.12896362  0.30626002  1
  O  O274  1  0.37085010  0.12604278  0.54133425  1
  O  O275  1  0.38013303  0.12247322  0.77413943  1
  O  O276  1  0.37358488  0.37319759  0.04911080  1
  O  O277  1  0.37623221  0.37247190  0.30408928  1
  O  O278  1  0.37763312  0.37788374  0.54877386  1
  O  O279  1  0.38202068  0.37443372  0.77918678  1
  O  O280  1  0.37177072  0.61834761  0.03827668  1
  O  O281  1  0.37463734  0.61596697  0.28703709  1
  O  O282  1  0.36704473  0.62755521  0.54356311  1
  O  O283  1  0.37380327  0.62684036  0.77539476  1
  O  O284  1  0.37277293  0.87693172  0.04759744  1
  O  O285  1  0.38001449  0.87742874  0.28703841  1
  O  O286  1  0.37389394  0.87141696  0.54938522  1
  O  O287  1  0.37366770  0.87320753  0.77847113  1
  O  O288  1  0.61420847  0.12767587  0.02792432  1
  O  O289  1  0.62402587  0.13121711  0.30116355  1
  O  O290  1  0.62900810  0.12269299  0.54874860  1
  O  O291  1  0.62374567  0.11356706  0.78537702  1
  O  O292  1  0.61802007  0.37831104  0.04629037  1
  O  O293  1  0.62582259  0.37379975  0.31002644  1
  O  O294  1  0.62711387  0.38507995  0.53585036  1
  O  O295  1  0.62341931  0.38061160  0.79066651  1
  O  O296  1  0.62029422  0.62175457  0.04684732  1
  O  O297  1  0.62958256  0.62114164  0.29981432  1
  O  O298  1  0.62964978  0.62958743  0.55090877  1
  O  O299  1  0.62500070  0.62556829  0.79536616  1
  O  O300  1  0.62047586  0.86396118  0.03105876  1
  O  O301  1  0.61866223  0.87044494  0.28945467  1
  O  O302  1  0.62775952  0.86904258  0.53563262  1
  O  O303  1  0.62453018  0.87113172  0.79683786  1
  O  O304  1  0.87258310  0.13355846  0.03401633  1
  O  O305  1  0.87400277  0.12917961  0.30062198  1
  O  O306  1  0.86757810  0.12116993  0.54075837  1
  O  O307  1  0.86934337  0.12404731  0.77796052  1
  O  O308  1  0.87424171  0.36988807  0.03196844  1
  O  O309  1  0.87562082  0.37497617  0.30017570  1
  O  O310  1  0.87406420  0.38062179  0.55295277  1
  O  O311  1  0.86743914  0.37196188  0.78408376  1
  O  O312  1  0.87572034  0.61586457  0.02965811  1
  O  O313  1  0.87338205  0.62244765  0.29739905  1
  O  O314  1  0.87473276  0.62761666  0.55506308  1
  O  O315  1  0.87570408  0.62596718  0.78663226  1
  O  O316  1  0.87714985  0.87803201  0.02795059  1
  O  O317  1  0.87766123  0.87543047  0.29529329  1
  O  O318  1  0.87992694  0.86939313  0.55299155  1
  O  O319  1  0.87788744  0.87119328  0.78775047  1
