# generated using pymatgen
data_VFe(PbO3)2
_symmetry_space_group_name_H-M   'P 1'
_cell_length_a   15.37505820
_cell_length_b   15.37426523
_cell_length_c   18.55168195
_cell_angle_alpha   89.99785588
_cell_angle_beta   90.01793289
_cell_angle_gamma   90.00824074
_symmetry_Int_Tables_number   1
_chemical_formula_structural   VFe(PbO3)2
_chemical_formula_sum   'V32 Fe32 Pb64 O192'
_cell_volume   4385.25044746
_cell_formula_units_Z   32
loop_
 _symmetry_equiv_pos_site_id
 _symmetry_equiv_pos_as_xyz
  1  'x, y, z'
loop_
 _atom_site_type_symbol
 _atom_site_label
 _atom_site_symmetry_multiplicity
 _atom_site_fract_x
 _atom_site_fract_y
 _atom_site_fract_z
 _atom_site_occupancy
  V  V0  1  0.62759752  0.87381584  0.14172711  1
  V  V1  1  0.87471707  0.37460948  0.39010546  1
  V  V2  1  0.37612557  0.12480040  0.14189386  1
  V  V3  1  0.87685282  0.12367247  0.64104896  1
  V  V4  1  0.37526948  0.62497069  0.88928959  1
  V  V5  1  0.62565798  0.87654992  0.64136542  1
  V  V6  1  0.12854512  0.12611038  0.63869308  1
  V  V7  1  0.87235459  0.62622880  0.13322898  1
  V  V8  1  0.62893819  0.37839906  0.39486186  1
  V  V9  1  0.87388241  0.87349120  0.39310104  1
  V  V10  1  0.87625343  0.62349123  0.39265956  1
  V  V11  1  0.62469384  0.12378659  0.14011831  1
  V  V12  1  0.37123263  0.62323105  0.38845043  1
  V  V13  1  0.37566402  0.12308526  0.63462393  1
  V  V14  1  0.37628861  0.62685132  0.64218563  1
  V  V15  1  0.62231288  0.37324381  0.88499273  1
  V  V16  1  0.62486544  0.12158116  0.88664771  1
  V  V17  1  0.62476119  0.61658472  0.65609818  1
  V  V18  1  0.87570461  0.87874302  0.88690269  1
  V  V19  1  0.12334813  0.37901565  0.39005600  1
  V  V20  1  0.12381719  0.37363724  0.13390016  1
  V  V21  1  0.87272181  0.12363514  0.13713370  1
  V  V22  1  0.12397179  0.87181313  0.38654402  1
  V  V23  1  0.62539542  0.62278481  0.13490129  1
  V  V24  1  0.37156699  0.87371171  0.64117235  1
  V  V25  1  0.87870797  0.12495598  0.39204668  1
  V  V26  1  0.12671038  0.37672435  0.88791738  1
  V  V27  1  0.62484495  0.62382188  0.39089790  1
  V  V28  1  0.12410637  0.12687554  0.89200513  1
  V  V29  1  0.87844331  0.37721240  0.64425349  1
  V  V30  1  0.12731059  0.62595776  0.64166741  1
  V  V31  1  0.12736870  0.87626268  0.89148297  1
  Fe  Fe32  1  0.62843485  0.87038219  0.38700190  1
  Fe  Fe33  1  0.37689113  0.37748249  0.38963033  1
  Fe  Fe34  1  0.37660945  0.87357966  0.14039229  1
  Fe  Fe35  1  0.12699010  0.87753713  0.63753198  1
  Fe  Fe36  1  0.37191348  0.37538946  0.63342761  1
  Fe  Fe37  1  0.87707244  0.37111955  0.88699266  1
  Fe  Fe38  1  0.12194170  0.62336066  0.38364615  1
  Fe  Fe39  1  0.62387335  0.87734398  0.88067189  1
  Fe  Fe40  1  0.87296412  0.37329457  0.13138725  1
  Fe  Fe41  1  0.62804052  0.12510409  0.39166046  1
  Fe  Fe42  1  0.37185267  0.37118726  0.89271186  1
  Fe  Fe43  1  0.87374021  0.12464595  0.88457711  1
  Fe  Fe44  1  0.37467264  0.87912480  0.88622479  1
  Fe  Fe45  1  0.37877403  0.62525646  0.13092279  1
  Fe  Fe46  1  0.12365879  0.62374373  0.12432466  1
  Fe  Fe47  1  0.37829357  0.37536712  0.13094113  1
  Fe  Fe48  1  0.37606445  0.12457583  0.88650825  1
  Fe  Fe49  1  0.12513812  0.62770500  0.89542284  1
  Fe  Fe50  1  0.87541983  0.62465737  0.87681192  1
  Fe  Fe51  1  0.62452293  0.12562608  0.63025632  1
  Fe  Fe52  1  0.62674699  0.37304918  0.13193066  1
  Fe  Fe53  1  0.12107952  0.12646094  0.37961126  1
  Fe  Fe54  1  0.37395181  0.12654467  0.38188005  1
  Fe  Fe55  1  0.12549444  0.12578038  0.14096491  1
  Fe  Fe56  1  0.87245700  0.87620080  0.13411811  1
  Fe  Fe57  1  0.62329977  0.62585064  0.87475786  1
  Fe  Fe58  1  0.62417850  0.37104634  0.63712058  1
  Fe  Fe59  1  0.87448432  0.62705637  0.64851546  1
  Fe  Fe60  1  0.87896540  0.87532601  0.63539810  1
  Fe  Fe61  1  0.12224884  0.87567588  0.13158519  1
  Fe  Fe62  1  0.37715411  0.87207418  0.37924012  1
  Fe  Fe63  1  0.12462555  0.37324018  0.63830872  1
  Pb  Pb64  1  0.00534301  -0.00321424  0.00475026  1
  Pb  Pb65  1  0.00356749  -0.00067109  0.24575328  1
  Pb  Pb66  1  0.00248305  -0.01048355  0.50260408  1
  Pb  Pb67  1  -0.00019547  0.00220746  0.74983071  1
  Pb  Pb68  1  -0.00534257  0.24972821  -0.00009956  1
  Pb  Pb69  1  0.00300501  0.24731302  0.24710307  1
  Pb  Pb70  1  0.00633976  0.25630147  0.50163167  1
  Pb  Pb71  1  -0.00807598  0.24988671  0.75485646  1
  Pb  Pb72  1  -0.00359276  0.50556180  -0.00685532  1
  Pb  Pb73  1  0.00471800  0.50372732  0.24483881  1
  Pb  Pb74  1  0.00015038  0.50165564  0.50518325  1
  Pb  Pb75  1  0.00781871  0.51355174  0.75843603  1
  Pb  Pb76  1  0.00141422  0.75484222  -0.00207666  1
  Pb  Pb77  1  0.00464398  0.74709118  0.24206633  1
  Pb  Pb78  1  -0.00250843  0.75431284  0.50615483  1
  Pb  Pb79  1  -0.00105778  0.74997745  0.75018217  1
  Pb  Pb80  1  0.24285161  -0.00064642  0.00591785  1
  Pb  Pb81  1  0.25207802  -0.00225314  0.24642275  1
  Pb  Pb82  1  0.25087312  0.00212495  0.48906162  1
  Pb  Pb83  1  0.26130506  0.00260106  0.75529421  1
  Pb  Pb84  1  0.24840926  0.24434820  0.00228980  1
  Pb  Pb85  1  0.26147551  0.25144792  0.25175746  1
  Pb  Pb86  1  0.25429646  0.25198491  0.49408741  1
  Pb  Pb87  1  0.25940981  0.25213857  0.75129357  1
  Pb  Pb88  1  0.25538092  0.50918493  0.00274423  1
  Pb  Pb89  1  0.24932330  0.50435074  0.24072342  1
  Pb  Pb90  1  0.24994139  0.49100828  0.50387143  1
  Pb  Pb91  1  0.24979277  0.49684819  0.75280721  1
  Pb  Pb92  1  0.26215179  0.75372506  0.00563705  1
  Pb  Pb93  1  0.24738072  0.74604783  0.23657946  1
  Pb  Pb94  1  0.24248154  0.75395428  0.49763426  1
  Pb  Pb95  1  0.24669014  0.74688252  0.75571127  1
  Pb  Pb96  1  0.49169445  -0.00659887  -0.00124797  1
  Pb  Pb97  1  0.49659056  0.00060240  0.25589674  1
  Pb  Pb98  1  0.50025461  -0.00037841  0.48950244  1
  Pb  Pb99  1  0.49582073  -0.00637430  0.75158025  1
  Pb  Pb100  1  0.49987105  0.25568415  -0.00011587  1
  Pb  Pb101  1  0.49687605  0.24925776  0.25229428  1
  Pb  Pb102  1  0.50279330  0.24871259  0.49731408  1
  Pb  Pb103  1  0.49572583  0.24927021  0.74541087  1
  Pb  Pb104  1  0.49745652  0.49649731  -0.00204866  1
  Pb  Pb105  1  0.49008917  0.48905366  0.24775174  1
  Pb  Pb106  1  0.50171281  0.49256108  0.50597539  1
  Pb  Pb107  1  0.49153980  0.48689502  0.75434148  1
  Pb  Pb108  1  0.49651504  0.75311847  -0.00462208  1
  Pb  Pb109  1  0.49848170  0.75567231  0.25028277  1
  Pb  Pb110  1  0.50130124  0.74945973  0.49707205  1
  Pb  Pb111  1  0.50332590  0.75479277  0.75500676  1
  Pb  Pb112  1  0.75570670  -0.00491461  -0.00064404  1
  Pb  Pb113  1  0.74012993  0.00114429  0.25706669  1
  Pb  Pb114  1  0.74642106  0.00201466  0.50106753  1
  Pb  Pb115  1  0.74664570  0.00195949  0.74815836  1
  Pb  Pb116  1  0.74818949  0.25669634  -0.00124936  1
  Pb  Pb117  1  0.74473007  0.24504133  0.24986193  1
  Pb  Pb118  1  0.74341699  0.25229779  0.50677399  1
  Pb  Pb119  1  0.75531701  0.24814186  0.75078471  1
  Pb  Pb120  1  0.75057961  0.49484350  -0.01073200  1
  Pb  Pb121  1  0.75002962  0.49665842  0.24402451  1
  Pb  Pb122  1  0.75687483  0.50644705  0.50902711  1
  Pb  Pb123  1  0.76364495  0.49257722  0.75822818  1
  Pb  Pb124  1  0.74853863  0.74741931  -0.01337046  1
  Pb  Pb125  1  0.74618018  0.75415264  0.25139790  1
  Pb  Pb126  1  0.76044846  0.74437141  0.50789162  1
  Pb  Pb127  1  0.74414377  0.75292246  0.75159730  1
  O  O128  1  0.12349643  0.00059097  0.16681093  1
  O  O129  1  0.12072934  -0.00832818  0.40636272  1
  O  O130  1  0.12378415  0.00969991  0.66437138  1
  O  O131  1  0.12374384  0.00033833  0.91536158  1
  O  O132  1  0.12349470  0.25728625  0.16336685  1
  O  O133  1  0.12046324  0.25902274  0.41039856  1
  O  O134  1  0.12373170  0.24166743  0.66529227  1
  O  O135  1  0.12458043  0.24679248  0.91401065  1
  O  O136  1  0.12088536  0.49401725  0.15833058  1
  O  O137  1  0.12127500  0.49695087  0.41738765  1
  O  O138  1  0.12893601  0.50710556  0.66536700  1
  O  O139  1  0.12535224  0.49187191  0.90987287  1
  O  O140  1  0.11996770  0.74725909  0.15644793  1
  O  O141  1  0.12237026  0.75200695  0.41368625  1
  O  O142  1  0.12908476  0.74430764  0.66741529  1
  O  O143  1  0.12137831  0.76025063  0.91135182  1
  O  O144  1  0.37948993  0.00530715  0.16419441  1
  O  O145  1  0.37282362  -0.00277783  0.40973377  1
  O  O146  1  0.37071257  0.00349221  0.66173901  1
  O  O147  1  0.37286886  0.00291552  0.91999919  1
  O  O148  1  0.37780355  0.24706632  0.16309333  1
  O  O149  1  0.37358602  0.25274458  0.41455284  1
  O  O150  1  0.37100328  0.24178117  0.65780988  1
  O  O151  1  0.37409639  0.24613102  0.91935526  1
  O  O152  1  0.37860512  0.50043075  0.16206919  1
  O  O153  1  0.37710317  0.50706983  0.41731713  1
  O  O154  1  0.37301022  0.50852881  0.66436853  1
  O  O155  1  0.37383183  0.50401385  0.91127140  1
  O  O156  1  0.37945794  0.74700839  0.16576865  1
  O  O157  1  0.37574308  0.74185728  0.41250034  1
  O  O158  1  0.37285235  0.74774199  0.66780002  1
  O  O159  1  0.37405817  0.74749366  0.91129793  1
  O  O160  1  0.62774882  -0.00226018  0.16737917  1
  O  O161  1  0.63079397  -0.00269745  0.41579223  1
  O  O162  1  0.62274343  -0.00236470  0.66068431  1
  O  O163  1  0.62680676  0.00547149  0.91145607  1
  O  O164  1  0.62761642  0.24419024  0.16426921  1
  O  O165  1  0.63058404  0.25875128  0.41395622  1
  O  O166  1  0.62422952  0.24635187  0.66512616  1
  O  O167  1  0.62338178  0.24998816  0.90931398  1
  O  O168  1  0.62937554  0.50745645  0.15761021  1
  O  O169  1  0.62831757  0.50024537  0.42193184  1
  O  O170  1  0.62146096  0.50013094  0.66902839  1
  O  O171  1  0.62337623  0.49395297  0.90283042  1
  O  O172  1  0.62948133  0.75151269  0.16219391  1
  O  O173  1  0.62875198  0.74265437  0.42030997  1
  O  O174  1  0.62125077  0.75810141  0.66696401  1
  O  O175  1  0.62496132  0.75102743  0.90684064  1
  O  O176  1  0.87174341  0.00736583  0.16443039  1
  O  O177  1  0.87893023  0.00381525  0.41385216  1
  O  O178  1  0.87709210  0.00499754  0.66288734  1
  O  O179  1  0.87474005  -0.00209306  0.91421348  1
  O  O180  1  0.87112007  0.24263170  0.16198234  1
  O  O181  1  0.87781959  0.25154123  0.41656135  1
  O  O182  1  0.87714926  0.24812499  0.66489929  1
  O  O183  1  0.87618011  0.24670270  0.91689488  1
  O  O184  1  0.86937834  0.50795932  0.15921330  1
  O  O185  1  0.87445514  0.49818934  0.42154173  1
  O  O186  1  0.87584608  0.49370044  0.66558856  1
  O  O187  1  0.87509678  0.49774402  0.90651301  1
  O  O188  1  0.87094023  0.74239723  0.16129753  1
  O  O189  1  0.87479900  0.74783175  0.41900559  1
  O  O190  1  0.87384331  0.75328943  0.66814228  1
  O  O191  1  0.87710481  0.75913991  0.90517820  1
  O  O192  1  -0.00871166  0.12672622  0.16060810  1
  O  O193  1  -0.00367148  0.12718221  0.41717088  1
  O  O194  1  -0.00045421  0.12629574  0.66424318  1
  O  O195  1  0.00597985  0.12306565  0.91449949  1
  O  O196  1  0.00186290  0.37463751  0.15945452  1
  O  O197  1  -0.00062843  0.37843176  0.41837558  1
  O  O198  1  -0.00348280  0.37268023  0.66759531  1
  O  O199  1  0.00885024  0.36959382  0.91230719  1
  O  O200  1  -0.00907392  0.62264798  0.15309702  1
  O  O201  1  -0.00389681  0.62314681  0.41756670  1
  O  O202  1  0.00904190  0.62493994  0.66245063  1
  O  O203  1  -0.00328377  0.62654238  0.91334586  1
  O  O204  1  -0.00460089  0.87502198  0.16477812  1
  O  O205  1  0.00122854  0.87174314  0.41691246  1
  O  O206  1  0.00358760  0.87693931  0.66877328  1
  O  O207  1  -0.00160296  0.88049093  0.91188196  1
  O  O208  1  0.25798605  0.12657535  0.16265013  1
  O  O209  1  0.24434952  0.12568911  0.41105081  1
  O  O210  1  0.24808338  0.12455583  0.66083485  1
  O  O211  1  0.24170999  0.12353260  0.91711787  1
  O  O212  1  0.24360304  0.37567280  0.15707375  1
  O  O213  1  0.24239275  0.37984794  0.40971907  1
  O  O214  1  0.24927683  0.37461426  0.66692757  1
  O  O215  1  0.24143507  0.37009557  0.91570826  1
  O  O216  1  0.24891033  0.62175666  0.15517948  1
  O  O217  1  0.25414366  0.62372763  0.41003299  1
  O  O218  1  0.25212659  0.62705077  0.66868522  1
  O  O219  1  0.25587032  0.62659816  0.91529419  1
  O  O220  1  0.24914594  0.87507604  0.16167213  1
  O  O221  1  0.24354373  0.87036310  0.40557193  1
  O  O222  1  0.25236508  0.87542104  0.66786595  1
  O  O223  1  0.24386333  0.87755484  0.91157899  1
  O  O224  1  0.49991017  0.12448354  0.16574827  1
  O  O225  1  0.50104701  0.12661228  0.41191800  1
  O  O226  1  0.49189173  0.12315542  0.65241200  1
  O  O227  1  0.50861870  0.12530989  0.91285511  1
  O  O228  1  0.50379668  0.37363472  0.16464374  1
  O  O229  1  0.50899554  0.37920160  0.41421750  1
  O  O230  1  0.49554986  0.37413248  0.66596850  1
  O  O231  1  0.50505110  0.37333247  0.91159795  1
  O  O232  1  0.51181637  0.62870029  0.15895280  1
  O  O233  1  0.50012392  0.62374936  0.41689099  1
  O  O234  1  0.49341531  0.62799457  0.66755973  1
  O  O235  1  0.49489099  0.62460584  0.90769258  1
  O  O236  1  0.51087434  0.87545299  0.16449099  1
  O  O237  1  0.50097251  0.87016609  0.41418544  1
  O  O238  1  0.49721566  0.87751550  0.66394795  1
  O  O239  1  0.50023451  0.87735236  0.91371305  1
  O  O240  1  0.75155899  0.12342308  0.16632352  1
  O  O241  1  0.76253904  0.12723380  0.41928325  1
  O  O242  1  0.75693567  0.12440974  0.65978137  1
  O  O243  1  0.74235492  0.12692575  0.91240075  1
  O  O244  1  0.75014814  0.37546978  0.16687388  1
  O  O245  1  0.75097867  0.37799690  0.41928911  1
  O  O246  1  0.75714434  0.37267736  0.66500020  1
  O  O247  1  0.74215895  0.37142771  0.90787461  1
  O  O248  1  0.74730512  0.62779127  0.16352326  1
  O  O249  1  0.75126126  0.62258971  0.42185293  1
  O  O250  1  0.74167830  0.62541112  0.66945459  1
  O  O251  1  0.74939430  0.62531863  0.90226223  1
  O  O252  1  0.74668782  0.87515859  0.16801872  1
  O  O253  1  0.75617229  0.87324329  0.41845608  1
  O  O254  1  0.74464116  0.87824648  0.66093292  1
  O  O255  1  0.75543281  0.87847546  0.90775802  1
  O  O256  1  0.12903105  0.12219227  0.04089291  1
  O  O257  1  0.11581181  0.13114781  0.28003003  1
  O  O258  1  0.12568522  0.12630014  0.54783147  1
  O  O259  1  0.12606194  0.12617054  0.80116543  1
  O  O260  1  0.12228381  0.37199497  0.04333583  1
  O  O261  1  0.11762637  0.38305872  0.29944883  1
  O  O262  1  0.12152147  0.37798585  0.53881123  1
  O  O263  1  0.12892060  0.37358811  0.79649218  1
  O  O264  1  0.12377675  0.62134683  0.02351766  1
  O  O265  1  0.11691887  0.61762975  0.28476854  1
  O  O266  1  0.13161386  0.62760137  0.55061961  1
  O  O267  1  0.12552757  0.62430610  0.79399584  1
  O  O268  1  0.11935172  0.88184625  0.03097410  1
  O  O269  1  0.11635664  0.86762461  0.29613639  1
  O  O270  1  0.12409394  0.87064641  0.53789603  1
  O  O271  1  0.12450002  0.87984078  0.80036143  1
  O  O272  1  0.37780741  0.12513237  0.05091619  1
  O  O273  1  0.37593197  0.13145006  0.28178914  1
  O  O274  1  0.36765279  0.12115421  0.54386561  1
  O  O275  1  0.37048124  0.12262664  0.78626921  1
  O  O276  1  0.38468915  0.37847637  0.03051653  1
  O  O277  1  0.38003432  0.37595085  0.28910610  1
  O  O278  1  0.37086345  0.38218525  0.53269119  1
  O  O279  1  0.37399622  0.37060642  0.79143254  1
  O  O280  1  0.37605999  0.62713853  0.03085569  1
  O  O281  1  0.37572577  0.62008596  0.29760431  1
  O  O282  1  0.37348323  0.62807501  0.55182355  1
  O  O283  1  0.37040948  0.62577676  0.79801574  1
  O  O284  1  0.38062481  0.86865971  0.03900778  1
  O  O285  1  0.38554125  0.87580369  0.27939108  1
  O  O286  1  0.37099959  0.87169867  0.55031120  1
  O  O287  1  0.37554444  0.88704290  0.78572211  1
  O  O288  1  0.62468549  0.12113068  0.04969752  1
  O  O289  1  0.63730040  0.12465364  0.29145358  1
  O  O290  1  0.63310213  0.13060781  0.53022647  1
  O  O291  1  0.62539380  0.12091389  0.79526882  1
  O  O292  1  0.62707594  0.37317524  0.03232423  1
  O  O293  1  0.63220921  0.38293802  0.30414830  1
  O  O294  1  0.62333085  0.37238591  0.53757750  1
  O  O295  1  0.61997307  0.36985377  0.79376657  1
  O  O296  1  0.62820629  0.62621580  0.04411745  1
  O  O297  1  0.62586138  0.62315945  0.30037343  1
  O  O298  1  0.62078439  0.62512312  0.56511330  1
  O  O299  1  0.61650718  0.63421788  0.77329070  1
  O  O300  1  0.63034274  0.87611809  0.05098546  1
  O  O301  1  0.63236245  0.86888139  0.28735800  1
  O  O302  1  0.62377756  0.87299069  0.55061674  1
  O  O303  1  0.62150006  0.88095700  0.78084514  1
  O  O304  1  0.86946793  0.12213389  0.04595677  1
  O  O305  1  0.87694095  0.12672783  0.30153023  1
  O  O306  1  0.87999907  0.12616531  0.55058838  1
  O  O307  1  0.87593867  0.12768301  0.78477046  1
  O  O308  1  0.86791572  0.37117134  0.03172399  1
  O  O309  1  0.87483922  0.37713025  0.29951974  1
  O  O310  1  0.87988886  0.37539341  0.55286689  1
  O  O311  1  0.87120379  0.36672648  0.78592129  1
  O  O312  1  0.86760489  0.62732355  0.04242461  1
  O  O313  1  0.87356370  0.62337894  0.30204668  1
  O  O314  1  0.86708490  0.62338575  0.54740741  1
  O  O315  1  0.88160724  0.61889839  0.77475136  1
  O  O316  1  0.87069907  0.87896827  0.03503406  1
  O  O317  1  0.87502681  0.87192737  0.30230884  1
  O  O318  1  0.88587553  0.87386521  0.53511486  1
  O  O319  1  0.87763636  0.88376617  0.79585968  1
