# generated using pymatgen
data_VFe(PbO3)2
_symmetry_space_group_name_H-M   'P 1'
_cell_length_a   15.38714870
_cell_length_b   15.40201143
_cell_length_c   18.53558591
_cell_angle_alpha   90.00573014
_cell_angle_beta   89.95435470
_cell_angle_gamma   89.99156470
_symmetry_Int_Tables_number   1
_chemical_formula_structural   VFe(PbO3)2
_chemical_formula_sum   'V32 Fe32 Pb64 O192'
_cell_volume   4392.80339162
_cell_formula_units_Z   32
loop_
 _symmetry_equiv_pos_site_id
 _symmetry_equiv_pos_as_xyz
  1  'x, y, z'
loop_
 _atom_site_type_symbol
 _atom_site_label
 _atom_site_symmetry_multiplicity
 _atom_site_fract_x
 _atom_site_fract_y
 _atom_site_fract_z
 _atom_site_occupancy
  V  V0  1  0.37627611  0.37407560  0.89194940  1
  V  V1  1  0.12168875  0.37460060  0.13512635  1
  V  V2  1  0.87438611  0.37420660  0.13653783  1
  V  V3  1  0.37136411  0.62215250  0.38645887  1
  V  V4  1  0.12478610  0.62642309  0.13386070  1
  V  V5  1  0.62301784  0.62540287  0.89414686  1
  V  V6  1  0.12660681  0.62749399  0.64379387  1
  V  V7  1  0.37370192  0.62343229  0.89588236  1
  V  V8  1  0.37562011  0.62891681  0.64319809  1
  V  V9  1  0.62363707  0.62173535  0.13560069  1
  V  V10  1  0.87494606  0.62918837  0.64011844  1
  V  V11  1  0.11980276  0.62333620  0.88795581  1
  V  V12  1  0.87002113  0.13217849  0.88679667  1
  V  V13  1  0.87606968  0.37410986  0.64614185  1
  V  V14  1  0.37321882  0.12741924  0.38527964  1
  V  V15  1  0.12496131  0.12656984  0.38770052  1
  V  V16  1  0.62349403  0.62255848  0.38745701  1
  V  V17  1  0.86930535  0.62693950  0.89140946  1
  V  V18  1  0.62336031  0.12400730  0.89806632  1
  V  V19  1  0.62314015  0.37297597  0.38860386  1
  V  V20  1  0.62288243  0.37656045  0.63986861  1
  V  V21  1  0.12220747  0.62350052  0.38723799  1
  V  V22  1  0.62439635  0.62688961  0.63971975  1
  V  V23  1  0.12526080  0.87398774  0.64317294  1
  V  V24  1  0.87466328  0.37577791  0.39207496  1
  V  V25  1  0.62599896  0.37615973  0.89563283  1
  V  V26  1  0.37226641  0.12129434  0.90228763  1
  V  V27  1  0.87855020  0.12220254  0.13894089  1
  V  V28  1  0.87311191  0.87980813  0.89201079  1
  V  V29  1  0.37424830  0.87559386  0.64611865  1
  V  V30  1  0.62432638  0.87374056  0.64053492  1
  V  V31  1  0.12561502  0.12445637  0.64375862  1
  Fe  Fe32  1  0.37493158  0.37383820  0.38522039  1
  Fe  Fe33  1  0.12300641  0.87541339  0.12559526  1
  Fe  Fe34  1  0.62754637  0.12809309  0.13433248  1
  Fe  Fe35  1  0.37448083  0.37581987  0.13096992  1
  Fe  Fe36  1  0.37754916  0.87380475  0.89908837  1
  Fe  Fe37  1  0.12235777  0.37903159  0.87972497  1
  Fe  Fe38  1  0.62385446  0.12608129  0.37879391  1
  Fe  Fe39  1  0.87215467  0.37868037  0.88122691  1
  Fe  Fe40  1  0.37371938  0.87340581  0.12511274  1
  Fe  Fe41  1  0.62128066  0.87576467  0.37535158  1
  Fe  Fe42  1  0.37435982  0.87738800  0.38066061  1
  Fe  Fe43  1  0.12582589  0.37346954  0.38936015  1
  Fe  Fe44  1  0.62304025  0.12322025  0.63606988  1
  Fe  Fe45  1  0.87648656  0.87269090  0.14212192  1
  Fe  Fe46  1  0.62857774  0.37641992  0.13129688  1
  Fe  Fe47  1  0.37090199  0.62173952  0.13090314  1
  Fe  Fe48  1  0.12212604  0.87091755  0.89622283  1
  Fe  Fe49  1  0.12251389  0.12847485  0.12242578  1
  Fe  Fe50  1  0.62769674  0.87281254  0.13655565  1
  Fe  Fe51  1  0.12559065  0.37689294  0.64615791  1
  Fe  Fe52  1  0.12183390  0.12629771  0.89681941  1
  Fe  Fe53  1  0.87656771  0.12787056  0.38311219  1
  Fe  Fe54  1  0.12910939  0.87905397  0.38260433  1
  Fe  Fe55  1  0.62809111  0.87294564  0.89642732  1
  Fe  Fe56  1  0.87875635  0.62050708  0.14165326  1
  Fe  Fe57  1  0.37288197  0.12679160  0.11895284  1
  Fe  Fe58  1  0.37608780  0.37575683  0.63922623  1
  Fe  Fe59  1  0.37642197  0.12301877  0.64140652  1
  Fe  Fe60  1  0.87648493  0.87367579  0.63538686  1
  Fe  Fe61  1  0.87466251  0.12211335  0.63663771  1
  Fe  Fe62  1  0.87490389  0.62036436  0.38093651  1
  Fe  Fe63  1  0.87749157  0.87436489  0.37714049  1
  Pb  Pb64  1  0.00386005  -0.00243116  -0.00026123  1
  Pb  Pb65  1  0.00529993  -0.00848562  0.24489647  1
  Pb  Pb66  1  -0.01219383  -0.00426505  0.49562449  1
  Pb  Pb67  1  0.00699263  0.00053241  0.75538408  1
  Pb  Pb68  1  0.00558481  0.25510005  -0.00671797  1
  Pb  Pb69  1  -0.00170289  0.24618756  0.25014947  1
  Pb  Pb70  1  -0.00198394  0.24555470  0.50370880  1
  Pb  Pb71  1  0.01386164  0.24335095  0.76001316  1
  Pb  Pb72  1  -0.00646470  0.50459211  -0.00200467  1
  Pb  Pb73  1  0.00732745  0.49582711  0.25145949  1
  Pb  Pb74  1  0.00781772  0.49443851  0.50408705  1
  Pb  Pb75  1  -0.00472368  0.49587323  0.75378762  1
  Pb  Pb76  1  -0.01621249  0.75125934  0.01123839  1
  Pb  Pb77  1  -0.00099138  0.75674192  0.24855921  1
  Pb  Pb78  1  -0.00578500  0.75689379  0.49386816  1
  Pb  Pb79  1  0.00367513  0.75489078  0.75363891  1
  Pb  Pb80  1  0.24220907  -0.01110584  0.00105371  1
  Pb  Pb81  1  0.24853597  0.00120047  0.22869927  1
  Pb  Pb82  1  0.25470256  0.00470102  0.49712206  1
  Pb  Pb83  1  0.24228775  -0.00321518  0.76125054  1
  Pb  Pb84  1  0.25151789  0.25153987  -0.00203210  1
  Pb  Pb85  1  0.25487439  0.25131119  0.23929590  1
  Pb  Pb86  1  0.25420449  0.25608326  0.50344727  1
  Pb  Pb87  1  0.24868221  0.25008457  0.75231832  1
  Pb  Pb88  1  0.25727400  0.49862931  0.00229113  1
  Pb  Pb89  1  0.24943979  0.48850079  0.24913930  1
  Pb  Pb90  1  0.24968244  0.48667867  0.50653563  1
  Pb  Pb91  1  0.24845874  0.49778963  0.75084304  1
  Pb  Pb92  1  0.24951727  0.75405951  0.00210973  1
  Pb  Pb93  1  0.25266047  0.76521661  0.24322119  1
  Pb  Pb94  1  0.25113747  0.75023775  0.49476546  1
  Pb  Pb95  1  0.25251554  0.76335333  0.76360694  1
  Pb  Pb96  1  0.50556809  -0.00927451  0.00871492  1
  Pb  Pb97  1  0.49969166  0.00055517  0.23321544  1
  Pb  Pb98  1  0.50406321  0.00472208  0.49293822  1
  Pb  Pb99  1  0.49760903  -0.00553091  0.75741830  1
  Pb  Pb100  1  0.49966123  0.25104941  0.00713620  1
  Pb  Pb101  1  0.50059011  0.24762879  0.23499230  1
  Pb  Pb102  1  0.49443534  0.23610280  0.50506409  1
  Pb  Pb103  1  0.49609752  0.24428062  0.75240551  1
  Pb  Pb104  1  0.49402965  0.49733443  0.00739786  1
  Pb  Pb105  1  0.49230740  0.49225560  0.24261371  1
  Pb  Pb106  1  0.49427226  0.49460019  0.50043683  1
  Pb  Pb107  1  0.49996371  0.50605271  0.75161112  1
  Pb  Pb108  1  0.49934201  0.75526356  0.00630315  1
  Pb  Pb109  1  0.49358407  0.76032351  0.24101630  1
  Pb  Pb110  1  0.50084417  0.75273050  0.49291593  1
  Pb  Pb111  1  0.49923396  0.76371561  0.76293094  1
  Pb  Pb112  1  0.74393121  -0.00077864  0.01086191  1
  Pb  Pb113  1  0.73907436  -0.00391698  0.24849901  1
  Pb  Pb114  1  0.75016724  0.00000664  0.48607488  1
  Pb  Pb115  1  0.75150126  0.00131066  0.74549834  1
  Pb  Pb116  1  0.74152310  0.25174159  0.00579642  1
  Pb  Pb117  1  0.74895880  0.24012594  0.25156248  1
  Pb  Pb118  1  0.74804648  0.23444422  0.50231267  1
  Pb  Pb119  1  0.75162536  0.25307011  0.74931587  1
  Pb  Pb120  1  0.74664159  0.49949917  0.00232664  1
  Pb  Pb121  1  0.75438160  0.50535991  0.24865683  1
  Pb  Pb122  1  0.74862795  0.49921647  0.49949242  1
  Pb  Pb123  1  0.75308474  0.49986553  0.75245238  1
  Pb  Pb124  1  0.75451417  0.75809139  0.01244375  1
  Pb  Pb125  1  0.75600773  0.75107343  0.24554782  1
  Pb  Pb126  1  0.75749106  0.75842629  0.48964880  1
  Pb  Pb127  1  0.74264270  0.75632725  0.75296648  1
  O  O128  1  0.12090529  0.00311258  0.14932675  1
  O  O129  1  0.12863248  0.00935753  0.41361324  1
  O  O130  1  0.12610804  -0.00016663  0.67056767  1
  O  O131  1  0.12060569  -0.00053823  0.91402664  1
  O  O132  1  0.12183476  0.25741048  0.15638298  1
  O  O133  1  0.12770339  0.24384533  0.41647712  1
  O  O134  1  0.12360533  0.24409841  0.66501487  1
  O  O135  1  0.12337902  0.25607298  0.91103638  1
  O  O136  1  0.12129473  0.49326894  0.16221136  1
  O  O137  1  0.12754092  0.50739794  0.41823734  1
  O  O138  1  0.12339717  0.51058361  0.66767326  1
  O  O139  1  0.12823814  0.50648771  0.91241507  1
  O  O140  1  0.12409150  0.74194824  0.14959803  1
  O  O141  1  0.13009074  0.73981532  0.41247610  1
  O  O142  1  0.12574454  0.74738362  0.67060834  1
  O  O143  1  0.12950438  0.73636310  0.91425655  1
  O  O144  1  0.37343478  0.00153989  0.14543765  1
  O  O145  1  0.37361382  0.00800676  0.40976314  1
  O  O146  1  0.37435062  -0.00480952  0.67375083  1
  O  O147  1  0.37933941  0.00678160  0.91318734  1
  O  O148  1  0.37161153  0.25107933  0.15533289  1
  O  O149  1  0.37277248  0.24487633  0.41249625  1
  O  O150  1  0.37661730  0.24965639  0.67149843  1
  O  O151  1  0.38012380  0.25763074  0.91239319  1
  O  O152  1  0.37216757  0.49955448  0.16387928  1
  O  O153  1  0.37693481  0.50629898  0.41434034  1
  O  O154  1  0.37577031  0.50738901  0.67070727  1
  O  O155  1  0.37994972  0.49818082  0.91554020  1
  O  O156  1  0.37207179  0.74599991  0.15433412  1
  O  O157  1  0.37639489  0.73933836  0.41342312  1
  O  O158  1  0.37398514  0.75020678  0.67412368  1
  O  O159  1  0.37874733  0.73901403  0.91557086  1
  O  O160  1  0.62909282  0.00184396  0.15725674  1
  O  O161  1  0.62249392  0.00117453  0.40816632  1
  O  O162  1  0.62275358  -0.00955684  0.66165509  1
  O  O163  1  0.63085205  0.00549849  0.91862740  1
  O  O164  1  0.63046145  0.25335254  0.16131902  1
  O  O165  1  0.62512360  0.25896784  0.40966141  1
  O  O166  1  0.62624740  0.26093962  0.66298574  1
  O  O167  1  0.63059522  0.24725685  0.91693522  1
  O  O168  1  0.62705930  0.50354979  0.16287172  1
  O  O169  1  0.62497875  0.49942484  0.41845225  1
  O  O170  1  0.62557692  0.50085950  0.66638939  1
  O  O171  1  0.62513007  0.50342044  0.91818982  1
  O  O172  1  0.62735694  0.73881628  0.15887315  1
  O  O173  1  0.62146129  0.74017435  0.40778134  1
  O  O174  1  0.62256250  0.75199486  0.66840965  1
  O  O175  1  0.62339140  0.74004173  0.91848800  1
  O  O176  1  0.87989413  0.00709650  0.15572244  1
  O  O177  1  0.87727549  0.00072514  0.40765710  1
  O  O178  1  0.87379468  -0.00284413  0.66633471  1
  O  O179  1  0.87255623  -0.00521493  0.91032341  1
  O  O180  1  0.87846593  0.25727178  0.16296406  1
  O  O181  1  0.87537341  0.25999712  0.41871682  1
  O  O182  1  0.87079764  0.25782797  0.66392171  1
  O  O183  1  0.87054433  0.24739039  0.90290554  1
  O  O184  1  0.88075018  0.49070595  0.16429464  1
  O  O185  1  0.87357700  0.49470242  0.41848835  1
  O  O186  1  0.87207146  0.50392657  0.66867083  1
  O  O187  1  0.87222428  0.50663456  0.91439294  1
  O  O188  1  0.87840433  0.74414066  0.16515485  1
  O  O189  1  0.87642204  0.74562081  0.40886864  1
  O  O190  1  0.87445342  0.74766343  0.66832387  1
  O  O191  1  0.87356655  0.74591417  0.91830443  1
  O  O192  1  -0.00363549  0.13308501  0.16187313  1
  O  O193  1  0.00739291  0.12888946  0.41233956  1
  O  O194  1  0.00559300  0.12280400  0.66698252  1
  O  O195  1  -0.01596692  0.12316871  0.91294077  1
  O  O196  1  0.00036684  0.37442749  0.16303777  1
  O  O197  1  -0.00491872  0.37743579  0.41761628  1
  O  O198  1  -0.00733511  0.38096815  0.66386589  1
  O  O199  1  -0.00323499  0.38021128  0.90739783  1
  O  O200  1  0.01088737  0.61778911  0.16567392  1
  O  O201  1  0.00599874  0.62161702  0.40924854  1
  O  O202  1  0.00190776  0.62813191  0.66695354  1
  O  O203  1  0.00245516  0.62238067  0.90743439  1
  O  O204  1  0.00334482  0.87263153  0.16181193  1
  O  O205  1  0.00512129  0.87374313  0.41216239  1
  O  O206  1  0.00487555  0.87257658  0.66717341  1
  O  O207  1  -0.01019842  0.86808157  0.91397293  1
  O  O208  1  0.24685286  0.12942429  0.14916883  1
  O  O209  1  0.25107594  0.12667302  0.41451220  1
  O  O210  1  0.24390224  0.12241000  0.67042326  1
  O  O211  1  0.25578481  0.13023855  0.90848547  1
  O  O212  1  0.24087640  0.37660822  0.15577836  1
  O  O213  1  0.25075980  0.37629345  0.41976250  1
  O  O214  1  0.25143673  0.37741598  0.66966758  1
  O  O215  1  0.25740869  0.37827520  0.90714351  1
  O  O216  1  0.23913027  0.61618652  0.15867431  1
  O  O217  1  0.25387469  0.62321953  0.41084355  1
  O  O218  1  0.24656400  0.62718729  0.66742862  1
  O  O219  1  0.25499607  0.61961010  0.91085715  1
  O  O220  1  0.24735938  0.87307255  0.15252535  1
  O  O221  1  0.25237165  0.87385904  0.41767284  1
  O  O222  1  0.24895061  0.87378444  0.67443321  1
  O  O223  1  0.25054511  0.87196571  0.91437688  1
  O  O224  1  0.49872669  0.12862659  0.15019263  1
  O  O225  1  0.49320156  0.12839102  0.40783097  1
  O  O226  1  0.50274542  0.12332174  0.67408081  1
  O  O227  1  0.50866185  0.12798914  0.91760217  1
  O  O228  1  0.50199931  0.37664129  0.15597579  1
  O  O229  1  0.50593455  0.38010856  0.41094909  1
  O  O230  1  0.50686210  0.38065548  0.66483328  1
  O  O231  1  0.50089089  0.37575787  0.91812130  1
  O  O232  1  0.50566754  0.62077198  0.15736608  1
  O  O233  1  0.50109062  0.62066447  0.41312391  1
  O  O234  1  0.50125839  0.62610382  0.66945558  1
  O  O235  1  0.50276868  0.62020089  0.91783774  1
  O  O236  1  0.49981290  0.87176018  0.15243768  1
  O  O237  1  0.49737863  0.87185072  0.41248345  1
  O  O238  1  0.50174631  0.87218400  0.67041140  1
  O  O239  1  0.50397549  0.87476763  0.92097143  1
  O  O240  1  0.76152293  0.13052384  0.16241376  1
  O  O241  1  0.74955567  0.12997132  0.41073947  1
  O  O242  1  0.74724379  0.12626494  0.66654498  1
  O  O243  1  0.75597285  0.12244573  0.91796841  1
  O  O244  1  0.75935379  0.37766133  0.15845486  1
  O  O245  1  0.74908294  0.37844612  0.41633443  1
  O  O246  1  0.74677929  0.38107276  0.66675073  1
  O  O247  1  0.74783315  0.37844839  0.91546385  1
  O  O248  1  0.74609634  0.61971540  0.16212317  1
  O  O249  1  0.74257097  0.62095828  0.41155857  1
  O  O250  1  0.74741153  0.62765170  0.66617329  1
  O  O251  1  0.74453221  0.62356842  0.91536468  1
  O  O252  1  0.75156963  0.87242702  0.16255834  1
  O  O253  1  0.74804077  0.87193426  0.40442213  1
  O  O254  1  0.74267678  0.87047843  0.66194001  1
  O  O255  1  0.75705889  0.86864059  0.91924260  1
  O  O256  1  0.11644743  0.13232485  0.02087724  1
  O  O257  1  0.12667514  0.12748539  0.29707884  1
  O  O258  1  0.12739985  0.12160408  0.55329888  1
  O  O259  1  0.11526269  0.12649772  0.79403631  1
  O  O260  1  0.11744178  0.37734985  0.04376360  1
  O  O261  1  0.12639695  0.38058420  0.29031499  1
  O  O262  1  0.12541039  0.38310549  0.54488349  1
  O  O263  1  0.11992720  0.37590050  0.77803023  1
  O  O264  1  0.12062728  0.61801593  0.04256044  1
  O  O265  1  0.12472525  0.62091472  0.29665781  1
  O  O266  1  0.12581016  0.62896858  0.55332284  1
  O  O267  1  0.12418646  0.62526415  0.79690306  1
  O  O268  1  0.12510477  0.87369324  0.02306837  1
  O  O269  1  0.12918828  0.87601106  0.28307190  1
  O  O270  1  0.12983692  0.87411679  0.55270884  1
  O  O271  1  0.12413828  0.87073594  0.79373395  1
  O  O272  1  0.37704938  0.13769370  0.01576757  1
  O  O273  1  0.36881479  0.12845039  0.29496474  1
  O  O274  1  0.38070871  0.12629025  0.54167957  1
  O  O275  1  0.38662701  0.13081728  0.81079657  1
  O  O276  1  0.37187017  0.38007683  0.03010597  1
  O  O277  1  0.36857470  0.37676774  0.28572953  1
  O  O278  1  0.37406474  0.37935676  0.53905828  1
  O  O279  1  0.38222098  0.37854116  0.80078576  1
  O  O280  1  0.37309186  0.61150692  0.03046213  1
  O  O281  1  0.37371731  0.62280973  0.29597832  1
  O  O282  1  0.37614545  0.62881735  0.55267170  1
  O  O283  1  0.37968934  0.62076160  0.80461176  1
  O  O284  1  0.37435866  0.87072424  0.02263584  1
  O  O285  1  0.37119385  0.86767164  0.28122425  1
  O  O286  1  0.37445212  0.87396914  0.55549446  1
  O  O287  1  0.38062820  0.86964881  0.79614739  1
  O  O288  1  0.63857110  0.12816996  0.03277279  1
  O  O289  1  0.62946888  0.12705323  0.27875449  1
  O  O290  1  0.61598708  0.13038911  0.53607355  1
  O  O291  1  0.62784428  0.12442742  0.80699421  1
  O  O292  1  0.63346384  0.37445485  0.03087293  1
  O  O293  1  0.62734843  0.37766031  0.29825772  1
  O  O294  1  0.62454971  0.37890049  0.54913349  1
  O  O295  1  0.62338031  0.37579336  0.80443255  1
  O  O296  1  0.62676913  0.61924300  0.04428439  1
  O  O297  1  0.62319907  0.61612608  0.29743935  1
  O  O298  1  0.62254621  0.62678367  0.54947044  1
  O  O299  1  0.62207856  0.62516757  0.80281006  1
  O  O300  1  0.63195851  0.87465814  0.03283358  1
  O  O301  1  0.61944149  0.87755251  0.27536687  1
  O  O302  1  0.61923458  0.86876465  0.55014946  1
  O  O303  1  0.62617592  0.86750636  0.79549125  1
  O  O304  1  0.87795367  0.12925638  0.04801338  1
  O  O305  1  0.87949383  0.13852289  0.28403052  1
  O  O306  1  0.87883348  0.13161839  0.53676229  1
  O  O307  1  0.86773879  0.12397239  0.79542654  1
  O  O308  1  0.87855080  0.37587008  0.04516309  1
  O  O309  1  0.87453257  0.37462688  0.30163420  1
  O  O310  1  0.87218585  0.37959232  0.55539411  1
  O  O311  1  0.86779931  0.38350159  0.78108796  1
  O  O312  1  0.88513160  0.62304985  0.04002236  1
  O  O313  1  0.87153805  0.61459442  0.28172948  1
  O  O314  1  0.87594698  0.62615550  0.54942795  1
  O  O315  1  0.86965156  0.62858033  0.80003902  1
  O  O316  1  0.87600877  0.86330154  0.03964190  1
  O  O317  1  0.88492139  0.87336811  0.27651861  1
  O  O318  1  0.87922459  0.86947219  0.53547944  1
  O  O319  1  0.87045022  0.87350663  0.80069115  1
