# generated using pymatgen
data_VFe(PbO3)2
_symmetry_space_group_name_H-M   'P 1'
_cell_length_a   15.36465464
_cell_length_b   15.37871009
_cell_length_c   18.56949758
_cell_angle_alpha   89.96128185
_cell_angle_beta   90.00612426
_cell_angle_gamma   90.00465871
_symmetry_Int_Tables_number   1
_chemical_formula_structural   VFe(PbO3)2
_chemical_formula_sum   'V32 Fe32 Pb64 O192'
_cell_volume   4387.75897540
_cell_formula_units_Z   32
loop_
 _symmetry_equiv_pos_site_id
 _symmetry_equiv_pos_as_xyz
  1  'x, y, z'
loop_
 _atom_site_type_symbol
 _atom_site_label
 _atom_site_symmetry_multiplicity
 _atom_site_fract_x
 _atom_site_fract_y
 _atom_site_fract_z
 _atom_site_occupancy
  V  V0  1  0.62556200  0.62434950  0.88735206  1
  V  V1  1  0.37627164  0.37555911  0.88987911  1
  V  V2  1  0.37551370  0.12382393  0.38951963  1
  V  V3  1  0.37365139  0.87523248  0.38885993  1
  V  V4  1  0.62937780  0.62712093  0.63398201  1
  V  V5  1  0.87703957  0.87730097  0.38800619  1
  V  V6  1  0.87606096  0.87352658  0.63726414  1
  V  V7  1  0.37386290  0.37589264  0.39214374  1
  V  V8  1  0.87101259  0.62327102  0.13968423  1
  V  V9  1  0.87362465  0.62482813  0.38933750  1
  V  V10  1  0.87251063  0.12486171  0.89152985  1
  V  V11  1  0.62313393  0.37796504  0.14044643  1
  V  V12  1  0.87414682  0.12479921  0.38753779  1
  V  V13  1  0.87448708  0.87254903  0.13766401  1
  V  V14  1  0.87623425  0.37290207  0.39061744  1
  V  V15  1  0.62491571  0.62349408  0.39009774  1
  V  V16  1  0.37559821  0.87561883  0.63374251  1
  V  V17  1  0.12381745  0.12532026  0.89640254  1
  V  V18  1  0.62303167  0.87104187  0.14022208  1
  V  V19  1  0.62477197  0.12696950  0.39492230  1
  V  V20  1  0.12646515  0.87383227  0.63804100  1
  V  V21  1  0.12437932  0.62313207  0.38848959  1
  V  V22  1  0.12534791  0.37390938  0.89392485  1
  V  V23  1  0.12973581  0.62433779  0.89141959  1
  V  V24  1  0.37592544  0.87577679  0.14014162  1
  V  V25  1  0.62242741  0.12568466  0.88757510  1
  V  V26  1  0.37765494  0.62431342  0.14350927  1
  V  V27  1  0.37258479  0.12486752  0.89070886  1
  V  V28  1  0.37599745  0.87320546  0.89021763  1
  V  V29  1  0.37502559  0.37539424  0.14078891  1
  V  V30  1  0.12552677  0.37593695  0.63426590  1
  V  V31  1  0.88050247  0.62546630  0.88852428  1
  Fe  Fe32  1  0.12409628  0.87482710  0.38311281  1
  Fe  Fe33  1  0.87744864  0.37710846  0.63287497  1
  Fe  Fe34  1  0.62460086  0.62494825  0.13893963  1
  Fe  Fe35  1  0.62440522  0.87720993  0.88481912  1
  Fe  Fe36  1  0.87398206  0.87549434  0.88841331  1
  Fe  Fe37  1  0.37959572  0.12500431  0.13838831  1
  Fe  Fe38  1  0.62259747  0.37330455  0.88255698  1
  Fe  Fe39  1  0.37665336  0.62625944  0.39070999  1
  Fe  Fe40  1  0.62777439  0.87599710  0.39750528  1
  Fe  Fe41  1  0.37391376  0.62656253  0.63117274  1
  Fe  Fe42  1  0.12737977  0.87110023  0.13561882  1
  Fe  Fe43  1  0.87407668  0.37590184  0.89315811  1
  Fe  Fe44  1  0.37503582  0.62419699  0.88265144  1
  Fe  Fe45  1  0.12525859  0.62560302  0.13478108  1
  Fe  Fe46  1  0.12582518  0.12392090  0.13341945  1
  Fe  Fe47  1  0.12413457  0.37544062  0.38283768  1
  Fe  Fe48  1  0.87179762  0.37631957  0.12885732  1
  Fe  Fe49  1  0.62290261  0.12365784  0.13680069  1
  Fe  Fe50  1  0.12523213  0.37797815  0.13577942  1
  Fe  Fe51  1  0.87747086  0.12394950  0.63384758  1
  Fe  Fe52  1  0.12462415  0.87645268  0.89295109  1
  Fe  Fe53  1  0.37260655  0.12343455  0.63149536  1
  Fe  Fe54  1  0.62718756  0.12274317  0.63024696  1
  Fe  Fe55  1  0.62637039  0.37491646  0.39801301  1
  Fe  Fe56  1  0.62508977  0.87208305  0.62718750  1
  Fe  Fe57  1  0.12200831  0.12468537  0.63402507  1
  Fe  Fe58  1  0.37273441  0.37454460  0.62924866  1
  Fe  Fe59  1  0.87057440  0.12394839  0.13365757  1
  Fe  Fe60  1  0.12395352  0.12568809  0.38519660  1
  Fe  Fe61  1  0.12324313  0.62522717  0.63458523  1
  Fe  Fe62  1  0.87780034  0.62690261  0.63519859  1
  Fe  Fe63  1  0.62620669  0.37612208  0.62689203  1
  Pb  Pb64  1  -0.00002147  0.00507608  0.00468431  1
  Pb  Pb65  1  0.00906566  0.00445938  0.24614060  1
  Pb  Pb66  1  0.00382699  0.00732277  0.49926453  1
  Pb  Pb67  1  0.00052100  -0.00831363  0.75310743  1
  Pb  Pb68  1  -0.00276230  0.24823778  0.00630528  1
  Pb  Pb69  1  0.00169830  0.24982780  0.23885350  1
  Pb  Pb70  1  0.00413661  0.24444880  0.49814303  1
  Pb  Pb71  1  -0.00571748  0.25079855  0.74582170  1
  Pb  Pb72  1  0.00634973  0.49515417  0.00481725  1
  Pb  Pb73  1  0.00309139  0.49326759  0.24528939  1
  Pb  Pb74  1  -0.00769192  0.50074304  0.50222723  1
  Pb  Pb75  1  -0.00459453  0.49846238  0.74689944  1
  Pb  Pb76  1  0.00671247  0.75406447  0.00202643  1
  Pb  Pb77  1  0.00487691  0.75282051  0.24830633  1
  Pb  Pb78  1  0.00130525  0.74034559  0.50023916  1
  Pb  Pb79  1  0.00078357  0.75665560  0.75252633  1
  Pb  Pb80  1  0.24607355  0.00302382  0.00515949  1
  Pb  Pb81  1  0.23915953  0.00345006  0.24941435  1
  Pb  Pb82  1  0.24591339  0.00676692  0.49609449  1
  Pb  Pb83  1  0.24391446  -0.00507619  0.74908172  1
  Pb  Pb84  1  0.24521714  0.24847795  0.00544525  1
  Pb  Pb85  1  0.23743019  0.24396891  0.24849817  1
  Pb  Pb86  1  0.25278001  0.24857574  0.49777516  1
  Pb  Pb87  1  0.25141184  0.24675842  0.74205423  1
  Pb  Pb88  1  0.24406050  0.49916124  0.00455387  1
  Pb  Pb89  1  0.24570422  0.49784772  0.25212872  1
  Pb  Pb90  1  0.25287900  0.50513177  0.50072883  1
  Pb  Pb91  1  0.25699161  0.50577204  0.74316363  1
  Pb  Pb92  1  0.24403228  0.75048941  0.00377364  1
  Pb  Pb93  1  0.25196557  0.74662143  0.25099779  1
  Pb  Pb94  1  0.24713311  0.73953261  0.50096057  1
  Pb  Pb95  1  0.25314491  0.74576081  0.75000175  1
  Pb  Pb96  1  0.49887248  0.00849525  0.00333943  1
  Pb  Pb97  1  0.50527110  -0.00541650  0.25295090  1
  Pb  Pb98  1  0.50519683  0.00509109  0.50237186  1
  Pb  Pb99  1  0.50643304  -0.00081488  0.74171220  1
  Pb  Pb100  1  0.49881603  0.24131328  0.00271871  1
  Pb  Pb101  1  0.50429613  0.25277526  0.25278539  1
  Pb  Pb102  1  0.49142903  0.24964134  0.50620545  1
  Pb  Pb103  1  0.50474179  0.25321214  0.73578478  1
  Pb  Pb104  1  0.50485302  0.50560716  -0.00083978  1
  Pb  Pb105  1  0.49858015  0.49986134  0.25809070  1
  Pb  Pb106  1  0.49862966  0.49231738  0.50309492  1
  Pb  Pb107  1  0.50187670  0.49683620  0.73935164  1
  Pb  Pb108  1  0.50412472  0.74448747  -0.00103522  1
  Pb  Pb109  1  0.49587819  0.74574448  0.25706472  1
  Pb  Pb110  1  0.50351273  0.75388633  0.49931671  1
  Pb  Pb111  1  0.50038534  0.74623785  0.74518240  1
  Pb  Pb112  1  0.74751144  0.00735726  0.00083222  1
  Pb  Pb113  1  0.74411752  -0.00621151  0.25082575  1
  Pb  Pb114  1  0.75230456  0.00970533  0.50554040  1
  Pb  Pb115  1  0.74731188  -0.00428057  0.74456063  1
  Pb  Pb116  1  0.75379662  0.25181635  0.00051650  1
  Pb  Pb117  1  0.75147538  0.24842125  0.24548005  1
  Pb  Pb118  1  0.75251895  0.24871367  0.50522717  1
  Pb  Pb119  1  0.74976113  0.25431176  0.73970995  1
  Pb  Pb120  1  0.74979448  0.49599301  -0.00199512  1
  Pb  Pb121  1  0.74182439  0.49092359  0.25585745  1
  Pb  Pb122  1  0.75521024  0.49289015  0.50552334  1
  Pb  Pb123  1  0.75467170  0.48521506  0.74994374  1
  Pb  Pb124  1  0.74618761  0.75009700  -0.00270487  1
  Pb  Pb125  1  0.74365279  0.75481797  0.25433540  1
  Pb  Pb126  1  0.75397620  0.74861356  0.50010181  1
  Pb  Pb127  1  0.74870532  0.75938811  0.74996645  1
  O  O128  1  0.12616988  -0.00382581  0.16061038  1
  O  O129  1  0.12294856  -0.00102484  0.41392915  1
  O  O130  1  0.12375082  -0.00901334  0.66500834  1
  O  O131  1  0.12594548  0.00671509  0.91747553  1
  O  O132  1  0.12695263  0.25163154  0.15879508  1
  O  O133  1  0.12288793  0.25133636  0.41171227  1
  O  O134  1  0.12381317  0.25622019  0.66097324  1
  O  O135  1  0.12551519  0.24775521  0.91966196  1
  O  O136  1  0.12658270  0.50349351  0.16711158  1
  O  O137  1  0.12437633  0.50543633  0.41181295  1
  O  O138  1  0.12632071  0.49393327  0.65999466  1
  O  O139  1  0.12546267  0.50369633  0.91615454  1
  O  O140  1  0.12511131  0.74777688  0.16737448  1
  O  O141  1  0.12438718  0.74478336  0.40984217  1
  O  O142  1  0.12511751  0.75884920  0.66412969  1
  O  O143  1  0.12670380  0.74321406  0.91402452  1
  O  O144  1  0.38044978  -0.00872144  0.16252072  1
  O  O145  1  0.37786840  -0.00069291  0.41369889  1
  O  O146  1  0.37158279  -0.00931580  0.66187580  1
  O  O147  1  0.37390574  0.00189613  0.91688460  1
  O  O148  1  0.38123580  0.25971197  0.16523805  1
  O  O149  1  0.37686808  0.25069338  0.41422019  1
  O  O150  1  0.37283382  0.24974428  0.66219134  1
  O  O151  1  0.37296858  0.25100038  0.91711509  1
  O  O152  1  0.37879096  0.49636638  0.16801612  1
  O  O153  1  0.37524033  0.49563852  0.41193289  1
  O  O154  1  0.37242917  0.50087992  0.65776424  1
  O  O155  1  0.37386477  0.49357902  0.91121363  1
  O  O156  1  0.37915521  0.75186309  0.16863570  1
  O  O157  1  0.37502897  0.75761967  0.41176255  1
  O  O158  1  0.37106029  0.75822118  0.66103680  1
  O  O159  1  0.37524875  0.75539008  0.91169241  1
  O  O160  1  0.62333158  -0.00749121  0.16686342  1
  O  O161  1  0.62787827  0.00688248  0.41607378  1
  O  O162  1  0.62563523  -0.00568808  0.65978638  1
  O  O163  1  0.62406310  0.00782638  0.91309689  1
  O  O164  1  0.62194755  0.25931096  0.16302469  1
  O  O165  1  0.62966513  0.24360414  0.41606227  1
  O  O166  1  0.62597536  0.24967090  0.65422771  1
  O  O167  1  0.62401818  0.24249186  0.91054324  1
  O  O168  1  0.62309135  0.49630056  0.16913410  1
  O  O169  1  0.62702465  0.50884098  0.41720972  1
  O  O170  1  0.62429068  0.51019893  0.65623558  1
  O  O171  1  0.62123470  0.50530878  0.91174799  1
  O  O172  1  0.62383330  0.75159457  0.16936702  1
  O  O173  1  0.62795934  0.74262948  0.41495875  1
  O  O174  1  0.62422619  0.74777569  0.66208564  1
  O  O175  1  0.62173549  0.74471251  0.91272829  1
  O  O176  1  0.86943402  -0.01176038  0.16034162  1
  O  O177  1  0.87510145  -0.00361701  0.40899212  1
  O  O178  1  0.87821132  -0.01049786  0.66266243  1
  O  O179  1  0.87564042  0.00740751  0.91481534  1
  O  O180  1  0.86957465  0.25217923  0.16118764  1
  O  O181  1  0.87404697  0.25327463  0.41033090  1
  O  O182  1  0.87770642  0.25123006  0.66171213  1
  O  O183  1  0.87543316  0.24297082  0.91556971  1
  O  O184  1  0.87055702  0.50661009  0.15911871  1
  O  O185  1  0.87647291  0.50109146  0.41342563  1
  O  O186  1  0.87732329  0.50244731  0.66527121  1
  O  O187  1  0.87323831  0.51090710  0.91634279  1
  O  O188  1  0.87080007  0.75236615  0.16763426  1
  O  O189  1  0.87622964  0.74908007  0.41211160  1
  O  O190  1  0.87856977  0.75661650  0.66504123  1
  O  O191  1  0.87220999  0.73994475  0.91647412  1
  O  O192  1  -0.00315203  0.12248121  0.16028497  1
  O  O193  1  -0.00634498  0.12489153  0.41110938  1
  O  O194  1  0.00076811  0.12201475  0.66954996  1
  O  O195  1  0.00117558  0.12621652  0.91592317  1
  O  O196  1  -0.00320529  0.37883261  0.15774573  1
  O  O197  1  -0.00639252  0.37767015  0.41107533  1
  O  O198  1  0.00759808  0.37654621  0.66256565  1
  O  O199  1  0.00402458  0.37605257  0.91789501  1
  O  O200  1  -0.01000336  0.62799707  0.16351952  1
  O  O201  1  0.00229789  0.62530594  0.41211470  1
  O  O202  1  0.00203222  0.62816551  0.66894215  1
  O  O203  1  -0.00022559  0.62497010  0.91065301  1
  O  O204  1  -0.00807146  0.87050916  0.15653011  1
  O  O205  1  -0.00714612  0.87205818  0.41266396  1
  O  O206  1  0.00211969  0.87386255  0.66251030  1
  O  O207  1  -0.00172388  0.87376286  0.92055499  1
  O  O208  1  0.25456311  0.12471717  0.16320041  1
  O  O209  1  0.25418409  0.12490033  0.41066828  1
  O  O210  1  0.24676758  0.12117903  0.66488071  1
  O  O211  1  0.24706813  0.12683176  0.91769539  1
  O  O212  1  0.25900156  0.37780468  0.16200690  1
  O  O213  1  0.25500435  0.37432099  0.41093722  1
  O  O214  1  0.24332007  0.37419907  0.66049453  1
  O  O215  1  0.25327149  0.37357518  0.91869573  1
  O  O216  1  0.25656714  0.62571304  0.16636854  1
  O  O217  1  0.24477609  0.62487937  0.41055665  1
  O  O218  1  0.24763838  0.62911044  0.66575997  1
  O  O219  1  0.24700169  0.62359742  0.91260737  1
  O  O220  1  0.25950957  0.87063530  0.16156855  1
  O  O221  1  0.25615738  0.87867144  0.41077658  1
  O  O222  1  0.24815857  0.87567565  0.66116461  1
  O  O223  1  0.25797825  0.87770167  0.91743422  1
  O  O224  1  0.50185271  0.12549957  0.17417258  1
  O  O225  1  0.50373062  0.12585290  0.41422359  1
  O  O226  1  0.49888601  0.12001884  0.66077653  1
  O  O227  1  0.50108480  0.12573256  0.91281687  1
  O  O228  1  0.50144162  0.37888839  0.16901354  1
  O  O229  1  0.49490051  0.37464983  0.41628508  1
  O  O230  1  0.50061076  0.37793038  0.65543702  1
  O  O231  1  0.49330275  0.37238463  0.91306281  1
  O  O232  1  0.49786100  0.62405442  0.17205586  1
  O  O233  1  0.50698700  0.62600969  0.41248876  1
  O  O234  1  0.50472613  0.63017977  0.65819626  1
  O  O235  1  0.50202601  0.62513101  0.91304125  1
  O  O236  1  0.49839576  0.87156879  0.16878121  1
  O  O237  1  0.49418521  0.87651542  0.41541729  1
  O  O238  1  0.49308864  0.87301631  0.65423018  1
  O  O239  1  0.49406245  0.87837321  0.91467649  1
  O  O240  1  0.74594282  0.12352435  0.16767775  1
  O  O241  1  0.75246388  0.12466446  0.41545883  1
  O  O242  1  0.75276504  0.12042936  0.66401355  1
  O  O243  1  0.74961932  0.12474596  0.90977412  1
  O  O244  1  0.74213815  0.37878126  0.16144862  1
  O  O245  1  0.75900474  0.37779880  0.41675001  1
  O  O246  1  0.74982154  0.37869903  0.65871280  1
  O  O247  1  0.74569102  0.37569718  0.91679223  1
  O  O248  1  0.75387789  0.62798023  0.16702830  1
  O  O249  1  0.74971084  0.62540624  0.41446861  1
  O  O250  1  0.74510422  0.63134661  0.65852583  1
  O  O251  1  0.74525221  0.62486816  0.90959456  1
  O  O252  1  0.74885625  0.87095808  0.16679703  1
  O  O253  1  0.76102139  0.87210644  0.41666333  1
  O  O254  1  0.75608256  0.87170817  0.65588978  1
  O  O255  1  0.74806350  0.87475562  0.91852218  1
  O  O256  1  0.12555004  0.12335047  0.03255593  1
  O  O257  1  0.12677688  0.12054593  0.28390627  1
  O  O258  1  0.11693969  0.12167377  0.53368884  1
  O  O259  1  0.12422666  0.12635423  0.80600771  1
  O  O260  1  0.13013318  0.38528699  0.03459997  1
  O  O261  1  0.12583702  0.37970085  0.28287502  1
  O  O262  1  0.12413614  0.37488598  0.54334086  1
  O  O263  1  0.12765113  0.37414261  0.80372662  1
  O  O264  1  0.12810938  0.62427235  0.03486088  1
  O  O265  1  0.12306675  0.62341184  0.29729619  1
  O  O266  1  0.12731593  0.63171133  0.53466424  1
  O  O267  1  0.12782161  0.62340624  0.80093761  1
  O  O268  1  0.13099158  0.86562222  0.03406633  1
  O  O269  1  0.12178091  0.87712850  0.28345759  1
  O  O270  1  0.12531979  0.87471752  0.54733109  1
  O  O271  1  0.12401657  0.88011240  0.79325929  1
  O  O272  1  0.38774335  0.12610186  0.03805278  1
  O  O273  1  0.37811285  0.12540308  0.29889426  1
  O  O274  1  0.37476031  0.12759363  0.53119732  1
  O  O275  1  0.37172152  0.12408708  0.80053938  1
  O  O276  1  0.37897155  0.37670850  0.05017766  1
  O  O277  1  0.37726397  0.37384235  0.30105943  1
  O  O278  1  0.37388976  0.37072661  0.52933055  1
  O  O279  1  0.37366284  0.37210728  0.79955412  1
  O  O280  1  0.37937637  0.62481228  0.05217454  1
  O  O281  1  0.37853368  0.62967682  0.29112100  1
  O  O282  1  0.36435812  0.62645905  0.52984495  1
  O  O283  1  0.37261842  0.62960171  0.78401359  1
  O  O284  1  0.37881611  0.87260362  0.04960657  1
  O  O285  1  0.37600307  0.87666639  0.29780601  1
  O  O286  1  0.37159456  0.87582130  0.54328942  1
  O  O287  1  0.37520596  0.87659547  0.79946126  1
  O  O288  1  0.61827791  0.12211199  0.03697208  1
  O  O289  1  0.62613264  0.12553453  0.30384918  1
  O  O290  1  0.63151367  0.11933647  0.52986827  1
  O  O291  1  0.62127858  0.12225523  0.79716799  1
  O  O292  1  0.61861305  0.38105914  0.04964552  1
  O  O293  1  0.62827301  0.38169624  0.29770957  1
  O  O294  1  0.62905198  0.38183850  0.52490929  1
  O  O295  1  0.62476567  0.37928402  0.78383389  1
  O  O296  1  0.61616383  0.62457864  0.04006206  1
  O  O297  1  0.62724997  0.62175446  0.29852482  1
  O  O298  1  0.62788601  0.63030760  0.54310189  1
  O  O299  1  0.62291180  0.62645964  0.79702177  1
  O  O300  1  0.62249697  0.87122074  0.04922377  1
  O  O301  1  0.63080616  0.87681712  0.29708352  1
  O  O302  1  0.62318941  0.86907130  0.52616000  1
  O  O303  1  0.62860087  0.87353469  0.78576323  1
  O  O304  1  0.87075523  0.12281390  0.03339473  1
  O  O305  1  0.87140611  0.12552585  0.29673627  1
  O  O306  1  0.87506430  0.12169831  0.53315487  1
  O  O307  1  0.87566707  0.12485611  0.80133597  1
  O  O308  1  0.86875329  0.37540276  0.02838244  1
  O  O309  1  0.87191267  0.37630881  0.29950768  1
  O  O310  1  0.87713858  0.38307441  0.53287543  1
  O  O311  1  0.87224554  0.38089291  0.79304220  1
  O  O312  1  0.87056060  0.62886459  0.04897933  1
  O  O313  1  0.87381430  0.62326550  0.29898869  1
  O  O314  1  0.88381536  0.62748445  0.53467458  1
  O  O315  1  0.87732202  0.62633651  0.79790711  1
  O  O316  1  0.86842349  0.86845980  0.04698108  1
  O  O317  1  0.87497249  0.87543397  0.29706538  1
  O  O318  1  0.87973767  0.87248579  0.54664504  1
  O  O319  1  0.87669390  0.87141273  0.78884274  1
