# generated using pymatgen
data_VFe(PbO3)2
_symmetry_space_group_name_H-M   'P 1'
_cell_length_a   15.38217878
_cell_length_b   15.38986448
_cell_length_c   18.49429343
_cell_angle_alpha   89.98936994
_cell_angle_beta   90.02992515
_cell_angle_gamma   89.98018085
_symmetry_Int_Tables_number   1
_chemical_formula_structural   VFe(PbO3)2
_chemical_formula_sum   'V32 Fe32 Pb64 O192'
_cell_volume   4378.14661730
_cell_formula_units_Z   32
loop_
 _symmetry_equiv_pos_site_id
 _symmetry_equiv_pos_as_xyz
  1  'x, y, z'
loop_
 _atom_site_type_symbol
 _atom_site_label
 _atom_site_symmetry_multiplicity
 _atom_site_fract_x
 _atom_site_fract_y
 _atom_site_fract_z
 _atom_site_occupancy
  V  V0  1  0.37581881  0.37540678  0.13781493  1
  V  V1  1  0.87361645  0.87683914  0.15037842  1
  V  V2  1  0.62652835  0.37624366  0.14408866  1
  V  V3  1  0.38069518  0.87378686  0.89285194  1
  V  V4  1  0.87697476  0.37529597  0.14185228  1
  V  V5  1  0.12678197  0.87314377  0.14627219  1
  V  V6  1  0.62516516  0.62198829  0.14462738  1
  V  V7  1  0.37631394  0.12673788  0.38946795  1
  V  V8  1  0.62284246  0.62242726  0.38827791  1
  V  V9  1  0.12236923  0.37504611  0.64047478  1
  V  V10  1  0.87367733  0.62924110  0.15304196  1
  V  V11  1  0.12574597  0.87357553  0.88804322  1
  V  V12  1  0.87516780  0.12394019  0.14493438  1
  V  V13  1  0.87547175  0.37656544  0.88945590  1
  V  V14  1  0.12526648  0.62659533  0.88975569  1
  V  V15  1  0.12775336  0.37434769  0.38714500  1
  V  V16  1  0.12703536  0.12621919  0.39086743  1
  V  V17  1  0.62595393  0.62697574  0.88852522  1
  V  V18  1  0.62537703  0.37600763  0.63927030  1
  V  V19  1  0.87602329  0.62409495  0.63576611  1
  V  V20  1  0.87707645  0.87738159  0.63453432  1
  V  V21  1  0.12971368  0.87396191  0.63652333  1
  V  V22  1  0.37143311  0.86907247  0.39257704  1
  V  V23  1  0.62749071  0.37654839  0.88704325  1
  V  V24  1  0.37611242  0.37308270  0.64245988  1
  V  V25  1  0.62579478  0.12694994  0.63769879  1
  V  V26  1  0.37653699  0.62584117  0.14119723  1
  V  V27  1  0.37355192  0.12241979  0.13667798  1
  V  V28  1  0.37586991  0.12331178  0.64599109  1
  V  V29  1  0.12452497  0.12831487  0.13736604  1
  V  V30  1  0.62601817  0.12297998  0.89077602  1
  V  V31  1  0.62154135  0.37155524  0.38760459  1
  Fe  Fe32  1  0.37581795  0.87695094  0.62737570  1
  Fe  Fe33  1  0.12538973  0.12381995  0.87891114  1
  Fe  Fe34  1  0.12707442  0.62478496  0.37763250  1
  Fe  Fe35  1  0.37364589  0.62499101  0.63066626  1
  Fe  Fe36  1  0.87455202  0.62450441  0.88775177  1
  Fe  Fe37  1  0.37798403  0.37668607  0.88290417  1
  Fe  Fe38  1  0.12344152  0.62708781  0.63337380  1
  Fe  Fe39  1  0.87449818  0.12610626  0.38302011  1
  Fe  Fe40  1  0.62598083  0.87466462  0.62921698  1
  Fe  Fe41  1  0.87433180  0.12498233  0.88519126  1
  Fe  Fe42  1  0.62207142  0.87582778  0.38400279  1
  Fe  Fe43  1  0.62238805  0.87333298  0.14500765  1
  Fe  Fe44  1  0.87493938  0.62416614  0.37652188  1
  Fe  Fe45  1  0.12751053  0.87827044  0.38207944  1
  Fe  Fe46  1  0.62754204  0.87435942  0.88564654  1
  Fe  Fe47  1  0.62437208  0.12834754  0.14860960  1
  Fe  Fe48  1  0.12374640  0.62193375  0.14784998  1
  Fe  Fe49  1  0.37220948  0.37073135  0.38817988  1
  Fe  Fe50  1  0.37695298  0.62734477  0.88521241  1
  Fe  Fe51  1  0.62217322  0.12648855  0.37637166  1
  Fe  Fe52  1  0.37425054  0.61991971  0.38960068  1
  Fe  Fe53  1  0.87379203  0.37562659  0.62851450  1
  Fe  Fe54  1  0.37672320  0.12292841  0.88408718  1
  Fe  Fe55  1  0.12482929  0.37802484  0.88633939  1
  Fe  Fe56  1  0.37288729  0.87503399  0.13493796  1
  Fe  Fe57  1  0.87478417  0.87204478  0.88728434  1
  Fe  Fe58  1  0.87707335  0.87563387  0.37673335  1
  Fe  Fe59  1  0.12551184  0.37421476  0.13230730  1
  Fe  Fe60  1  0.87395110  0.12556062  0.63372164  1
  Fe  Fe61  1  0.12550553  0.12430333  0.64506509  1
  Fe  Fe62  1  0.87701534  0.37415860  0.39353905  1
  Fe  Fe63  1  0.62619188  0.62509230  0.62915581  1
  Pb  Pb64  1  -0.00251660  0.00245703  -0.00550068  1
  Pb  Pb65  1  0.00084111  -0.00197127  0.25548045  1
  Pb  Pb66  1  -0.00463796  0.00363957  0.49535086  1
  Pb  Pb67  1  -0.00365520  0.00662874  0.74934576  1
  Pb  Pb68  1  0.00643101  0.25206079  -0.00650896  1
  Pb  Pb69  1  -0.00730004  0.25008657  0.25490626  1
  Pb  Pb70  1  -0.00453088  0.24348204  0.50418494  1
  Pb  Pb71  1  -0.00394921  0.24254100  0.74873269  1
  Pb  Pb72  1  0.01525576  0.50748274  0.01127632  1
  Pb  Pb73  1  0.00111602  0.50125894  0.25356988  1
  Pb  Pb74  1  -0.00013944  0.50332705  0.49173397  1
  Pb  Pb75  1  0.00582267  0.49534589  0.74932463  1
  Pb  Pb76  1  0.00333954  0.74439970  0.00391897  1
  Pb  Pb77  1  0.00150661  0.75890925  0.25799838  1
  Pb  Pb78  1  0.00373268  0.74805516  0.48371624  1
  Pb  Pb79  1  -0.01163769  0.75136104  0.74949798  1
  Pb  Pb80  1  0.25461115  -0.00181016  -0.00268011  1
  Pb  Pb81  1  0.24563303  -0.00224378  0.25153552  1
  Pb  Pb82  1  0.25136745  0.00021673  0.50387661  1
  Pb  Pb83  1  0.25147411  0.00861602  0.75379665  1
  Pb  Pb84  1  0.25005122  0.25119070  -0.01230839  1
  Pb  Pb85  1  0.25419570  0.25669145  0.24675043  1
  Pb  Pb86  1  0.24058192  0.24314493  0.50780224  1
  Pb  Pb87  1  0.24839934  0.25993904  0.75685035  1
  Pb  Pb88  1  0.24830770  0.49697373  -0.00211182  1
  Pb  Pb89  1  0.25011110  0.50381312  0.25166465  1
  Pb  Pb90  1  0.25193829  0.50785509  0.50027464  1
  Pb  Pb91  1  0.25094362  0.49713910  0.74997344  1
  Pb  Pb92  1  0.25296908  0.75070471  0.00394773  1
  Pb  Pb93  1  0.25090507  0.73872135  0.25595104  1
  Pb  Pb94  1  0.24501023  0.73784293  0.49849651  1
  Pb  Pb95  1  0.25977154  0.74188526  0.74368479  1
  Pb  Pb96  1  0.51773171  0.00179708  0.01267865  1
  Pb  Pb97  1  0.50659903  -0.00242354  0.25134188  1
  Pb  Pb98  1  0.50108704  -0.00880283  0.49911986  1
  Pb  Pb99  1  0.50436276  -0.00585664  0.74757186  1
  Pb  Pb100  1  0.50246727  0.24559515  -0.00138277  1
  Pb  Pb101  1  0.49494138  0.25404059  0.25149502  1
  Pb  Pb102  1  0.50066579  0.24939901  0.49995830  1
  Pb  Pb103  1  0.49380049  0.24960670  0.75516504  1
  Pb  Pb104  1  0.49720727  0.50120513  -0.00401731  1
  Pb  Pb105  1  0.48823617  0.50033399  0.25681267  1
  Pb  Pb106  1  0.49633967  0.50681401  0.50135512  1
  Pb  Pb107  1  0.49158725  0.50640935  0.74696345  1
  Pb  Pb108  1  0.50308000  0.76231713  0.00615604  1
  Pb  Pb109  1  0.49978396  0.75421752  0.25300127  1
  Pb  Pb110  1  0.50923054  0.74844310  0.50341253  1
  Pb  Pb111  1  0.50184537  0.74968873  0.73702218  1
  Pb  Pb112  1  0.74981943  -0.00478596  0.00285014  1
  Pb  Pb113  1  0.74126808  0.00346474  0.25445136  1
  Pb  Pb114  1  0.74728757  -0.00033334  0.48438384  1
  Pb  Pb115  1  0.75233790  -0.01265669  0.75101165  1
  Pb  Pb116  1  0.74501311  0.24352884  0.00322681  1
  Pb  Pb117  1  0.76126013  0.25134684  0.25987039  1
  Pb  Pb118  1  0.76075895  0.24361125  0.49768599  1
  Pb  Pb119  1  0.75757120  0.24615832  0.74685720  1
  Pb  Pb120  1  0.75082439  0.49964201  0.00116012  1
  Pb  Pb121  1  0.75832327  0.49703181  0.25814278  1
  Pb  Pb122  1  0.75170670  0.49896086  0.49590136  1
  Pb  Pb123  1  0.75796612  0.50889245  0.74809804  1
  Pb  Pb124  1  0.75066380  0.75440851  0.00125933  1
  Pb  Pb125  1  0.74620610  0.75838838  0.25744693  1
  Pb  Pb126  1  0.74699256  0.75299973  0.49015569  1
  Pb  Pb127  1  0.75019382  0.75518613  0.74736744  1
  O  O128  1  0.12554145  0.00523338  0.16689219  1
  O  O129  1  0.12950985  0.00905000  0.41326643  1
  O  O130  1  0.12136469  -0.01078702  0.66521608  1
  O  O131  1  0.12665076  -0.00947773  0.90972495  1
  O  O132  1  0.12503977  0.24716492  0.16235250  1
  O  O133  1  0.12725726  0.24649474  0.41802128  1
  O  O134  1  0.12687942  0.25800974  0.66531328  1
  O  O135  1  0.12384342  0.25056159  0.90738943  1
  O  O136  1  0.12260206  0.49475389  0.16711593  1
  O  O137  1  0.12706889  0.49115107  0.40352934  1
  O  O138  1  0.12459442  0.49596757  0.66327129  1
  O  O139  1  0.12289843  0.50861919  0.91399548  1
  O  O140  1  0.12420761  0.75619234  0.16464035  1
  O  O141  1  0.12955805  0.75175484  0.40336791  1
  O  O142  1  0.11994682  0.75827506  0.66291308  1
  O  O143  1  0.12519401  0.74927856  0.91798377  1
  O  O144  1  0.37007865  0.00657324  0.15885940  1
  O  O145  1  0.37286108  0.01130400  0.41434348  1
  O  O146  1  0.37585011  0.00482801  0.66368065  1
  O  O147  1  0.37300403  -0.00920119  0.91440614  1
  O  O148  1  0.37538598  0.24958821  0.16193513  1
  O  O149  1  0.37278101  0.24415914  0.42013495  1
  O  O150  1  0.37681432  0.24749989  0.67022011  1
  O  O151  1  0.37890838  0.24929666  0.91238251  1
  O  O152  1  0.37717583  0.50146606  0.16465193  1
  O  O153  1  0.37442962  0.49347525  0.41620892  1
  O  O154  1  0.37606229  0.49477307  0.66108020  1
  O  O155  1  0.37852376  0.50319944  0.91560374  1
  O  O156  1  0.37440371  0.74303065  0.16303779  1
  O  O157  1  0.37179277  0.75407037  0.40580537  1
  O  O158  1  0.37536710  0.75257244  0.65713926  1
  O  O159  1  0.37381002  0.75412196  0.91816104  1
  O  O160  1  0.62415258  0.00057093  0.16758758  1
  O  O161  1  0.61996768  0.00241183  0.40584344  1
  O  O162  1  0.62507109  0.00938303  0.65893295  1
  O  O163  1  0.62577323  0.00502068  0.91597257  1
  O  O164  1  0.62242460  0.26066861  0.16596049  1
  O  O165  1  0.62062284  0.25475951  0.40848096  1
  O  O166  1  0.62139708  0.24762849  0.66686687  1
  O  O167  1  0.62647770  0.24777833  0.91429523  1
  O  O168  1  0.62408263  0.49603060  0.17212180  1
  O  O169  1  0.62169230  0.49925335  0.41156263  1
  O  O170  1  0.62493135  0.49243093  0.65920296  1
  O  O171  1  0.62781775  0.50197488  0.91500477  1
  O  O172  1  0.62433560  0.74185364  0.17020579  1
  O  O173  1  0.62035603  0.74403644  0.40805233  1
  O  O174  1  0.62773642  0.74977345  0.65872091  1
  O  O175  1  0.62646706  0.74417888  0.91167284  1
  O  O176  1  0.87740109  0.00608285  0.16496279  1
  O  O177  1  0.87742898  0.00100611  0.40690885  1
  O  O178  1  0.87449868  -0.00579212  0.65615326  1
  O  O179  1  0.87457874  -0.00123122  0.91764585  1
  O  O180  1  0.87295289  0.25377394  0.16631609  1
  O  O181  1  0.87697717  0.24934949  0.41594690  1
  O  O182  1  0.87423631  0.25308057  0.66243433  1
  O  O183  1  0.87038208  0.25749286  0.91574528  1
  O  O184  1  0.87187468  0.49215325  0.16674439  1
  O  O185  1  0.87328789  0.50084264  0.41292427  1
  O  O186  1  0.87426126  0.50358714  0.65869684  1
  O  O187  1  0.86857153  0.49412123  0.91539817  1
  O  O188  1  0.87505016  0.74727035  0.16836505  1
  O  O189  1  0.87495436  0.74853644  0.40333062  1
  O  O190  1  0.87399789  0.74875232  0.65893932  1
  O  O191  1  0.87471015  0.74758274  0.92246465  1
  O  O192  1  -0.00188545  0.12917866  0.16545735  1
  O  O193  1  0.00871687  0.12715339  0.40998904  1
  O  O194  1  -0.00152233  0.12438780  0.66511582  1
  O  O195  1  0.00072165  0.12373318  0.91356955  1
  O  O196  1  -0.00718523  0.37270587  0.16169256  1
  O  O197  1  0.01077213  0.37075227  0.41328138  1
  O  O198  1  0.00374346  0.37693996  0.65975914  1
  O  O199  1  -0.00893220  0.37672374  0.90849309  1
  O  O200  1  -0.00798881  0.62137600  0.16932771  1
  O  O201  1  0.00219009  0.62143513  0.40274756  1
  O  O202  1  -0.00638495  0.62557868  0.66181156  1
  O  O203  1  0.00523267  0.62742412  0.91628361  1
  O  O204  1  0.00590505  0.87878046  0.16901986  1
  O  O205  1  0.00274181  0.87831045  0.40943610  1
  O  O206  1  -0.00625853  0.87293626  0.66179786  1
  O  O207  1  0.00820237  0.87089172  0.91338490  1
  O  O208  1  0.25294561  0.12881562  0.16242098  1
  O  O209  1  0.25045085  0.12834877  0.41788143  1
  O  O210  1  0.25701471  0.12526289  0.66635586  1
  O  O211  1  0.25007895  0.12072055  0.91148254  1
  O  O212  1  0.25517288  0.37420846  0.15898835  1
  O  O213  1  0.24241109  0.36797899  0.41536218  1
  O  O214  1  0.24919492  0.37473339  0.66534024  1
  O  O215  1  0.25163535  0.37919488  0.91293296  1
  O  O216  1  0.25742194  0.62269128  0.16209782  1
  O  O217  1  0.24844637  0.62197906  0.41322043  1
  O  O218  1  0.24767561  0.62530345  0.66222768  1
  O  O219  1  0.24369931  0.62753622  0.91298300  1
  O  O220  1  0.24586104  0.87784655  0.16617163  1
  O  O221  1  0.25530659  0.88395576  0.41507448  1
  O  O222  1  0.24530886  0.87617036  0.65576986  1
  O  O223  1  0.24611328  0.87016668  0.91677650  1
  O  O224  1  0.48807998  0.12705359  0.16423301  1
  O  O225  1  0.49346207  0.12975064  0.40918267  1
  O  O226  1  0.50080114  0.12644210  0.66730274  1
  O  O227  1  0.50773180  0.12430524  0.91568641  1
  O  O228  1  0.50067486  0.37705104  0.16667583  1
  O  O229  1  0.50501649  0.37439565  0.41691807  1
  O  O230  1  0.50420765  0.37154040  0.66706060  1
  O  O231  1  0.50784562  0.37578931  0.91413120  1
  O  O232  1  0.49743682  0.62172681  0.16832030  1
  O  O233  1  0.50339015  0.62238022  0.41278932  1
  O  O234  1  0.50100537  0.62219287  0.65849478  1
  O  O235  1  0.50931673  0.62485778  0.91357284  1
  O  O236  1  0.49452394  0.87328426  0.16824084  1
  O  O237  1  0.49048086  0.87927120  0.41072697  1
  O  O238  1  0.50106667  0.87993345  0.65916162  1
  O  O239  1  0.49790432  0.87243743  0.91146637  1
  O  O240  1  0.75765471  0.12866819  0.16467194  1
  O  O241  1  0.74657882  0.12786706  0.40547142  1
  O  O242  1  0.74262146  0.12932744  0.65744659  1
  O  O243  1  0.74472165  0.12585602  0.91822337  1
  O  O244  1  0.74773231  0.37507088  0.16631626  1
  O  O245  1  0.73823161  0.37605145  0.41281981  1
  O  O246  1  0.74255794  0.37180313  0.65995819  1
  O  O247  1  0.74845700  0.37435448  0.92100180  1
  O  O248  1  0.75033414  0.62058947  0.17065208  1
  O  O249  1  0.74259321  0.62279800  0.40681628  1
  O  O250  1  0.75640675  0.62360634  0.65998943  1
  O  O251  1  0.74347318  0.62382546  0.91884798  1
  O  O252  1  0.75161721  0.87406196  0.16853876  1
  O  O253  1  0.74953669  0.87409756  0.40368032  1
  O  O254  1  0.75659287  0.87477636  0.65879468  1
  O  O255  1  0.74905364  0.87462503  0.92140276  1
  O  O256  1  0.12334770  0.12477515  0.04636882  1
  O  O257  1  0.13182030  0.12898384  0.29975723  1
  O  O258  1  0.12971740  0.12809958  0.54434785  1
  O  O259  1  0.12486398  0.11723481  0.77743694  1
  O  O260  1  0.11917298  0.38193914  0.03179524  1
  O  O261  1  0.12859379  0.36607216  0.29572892  1
  O  O262  1  0.12631069  0.37435663  0.54941409  1
  O  O263  1  0.12678969  0.38560413  0.78602198  1
  O  O264  1  0.11616638  0.62222453  0.04617939  1
  O  O265  1  0.13488025  0.62241617  0.27449562  1
  O  O266  1  0.12797842  0.62691371  0.53369356  1
  O  O267  1  0.12233168  0.62790782  0.79876578  1
  O  O268  1  0.12516419  0.87731786  0.05510288  1
  O  O269  1  0.12654481  0.88476794  0.28158357  1
  O  O270  1  0.12427404  0.87610165  0.54517581  1
  O  O271  1  0.12846214  0.86899756  0.79772291  1
  O  O272  1  0.37509438  0.12460374  0.04525750  1
  O  O273  1  0.37072675  0.12976901  0.29825095  1
  O  O274  1  0.37869534  0.12747721  0.55484399  1
  O  O275  1  0.37892547  0.11938799  0.78471709  1
  O  O276  1  0.38107994  0.37797191  0.04681151  1
  O  O277  1  0.37747588  0.36741137  0.28786033  1
  O  O278  1  0.37818682  0.36646211  0.55143157  1
  O  O279  1  0.37524643  0.37548788  0.78223827  1
  O  O280  1  0.38020162  0.62404818  0.04992628  1
  O  O281  1  0.36936324  0.61885211  0.28802455  1
  O  O282  1  0.36973991  0.62001507  0.52907752  1
  O  O283  1  0.37714996  0.62833114  0.78574145  1
  O  O284  1  0.37366095  0.86902147  0.03528236  1
  O  O285  1  0.36901578  0.87979840  0.30104148  1
  O  O286  1  0.37665528  0.88509828  0.52761539  1
  O  O287  1  0.37496624  0.87283976  0.80186685  1
  O  O288  1  0.61976556  0.12579399  0.04680813  1
  O  O289  1  0.62097557  0.12473259  0.27473611  1
  O  O290  1  0.61859323  0.13136227  0.54679421  1
  O  O291  1  0.62772532  0.12239774  0.80004284  1
  O  O292  1  0.62645988  0.37891402  0.05305588  1
  O  O293  1  0.61916414  0.37464971  0.29633334  1
  O  O294  1  0.62109361  0.37071539  0.54843806  1
  O  O295  1  0.63063980  0.37690305  0.79636854  1
  O  O296  1  0.62478189  0.62230832  0.05370788  1
  O  O297  1  0.61965228  0.62068647  0.29698157  1
  O  O298  1  0.62365322  0.62784927  0.52923309  1
  O  O299  1  0.62939375  0.62274734  0.79741909  1
  O  O300  1  0.61693651  0.87522960  0.04256519  1
  O  O301  1  0.61973437  0.87137736  0.28197572  1
  O  O302  1  0.62128956  0.87137286  0.52785072  1
  O  O303  1  0.63488974  0.88128017  0.78593154  1
  O  O304  1  0.87738474  0.12742807  0.05364696  1
  O  O305  1  0.87821504  0.13755650  0.28179100  1
  O  O306  1  0.87766226  0.12933399  0.53304997  1
  O  O307  1  0.87391338  0.12900406  0.78513726  1
  O  O308  1  0.87267539  0.37461566  0.05113796  1
  O  O309  1  0.87208091  0.36838619  0.29123763  1
  O  O310  1  0.87275836  0.37506500  0.52831442  1
  O  O311  1  0.86848742  0.37664609  0.79810701  1
  O  O312  1  0.87221238  0.62281684  0.06140318  1
  O  O313  1  0.87237966  0.61404984  0.27560191  1
  O  O314  1  0.87633172  0.62526936  0.54483940  1
  O  O315  1  0.87072500  0.62445001  0.78827127  1
  O  O316  1  0.87853964  0.87485160  0.05876851  1
  O  O317  1  0.88407026  0.87525634  0.27418726  1
  O  O318  1  0.87837899  0.87447736  0.54374086  1
  O  O319  1  0.86855675  0.86961740  0.78676488  1
