# generated using pymatgen
data_VFe(PbO3)2
_symmetry_space_group_name_H-M   'P 1'
_cell_length_a   15.39979424
_cell_length_b   15.39313598
_cell_length_c   18.51037995
_cell_angle_alpha   90.02908579
_cell_angle_beta   89.94442972
_cell_angle_gamma   89.99812491
_symmetry_Int_Tables_number   1
_chemical_formula_structural   VFe(PbO3)2
_chemical_formula_sum   'V32 Fe32 Pb64 O192'
_cell_volume   4387.90379335
_cell_formula_units_Z   32
loop_
 _symmetry_equiv_pos_site_id
 _symmetry_equiv_pos_as_xyz
  1  'x, y, z'
loop_
 _atom_site_type_symbol
 _atom_site_label
 _atom_site_symmetry_multiplicity
 _atom_site_fract_x
 _atom_site_fract_y
 _atom_site_fract_z
 _atom_site_occupancy
  V  V0  1  0.62511020  0.12540971  0.63597631  1
  V  V1  1  0.37216783  0.12816799  0.63737291  1
  V  V2  1  0.87737441  0.62481804  0.38945852  1
  V  V3  1  0.11712227  0.37335739  0.90348107  1
  V  V4  1  0.12583602  0.37520308  0.64435070  1
  V  V5  1  0.62203065  0.37209581  0.89571039  1
  V  V6  1  0.37680405  0.87354069  0.13748876  1
  V  V7  1  0.86977366  0.37103982  0.90258373  1
  V  V8  1  0.37380554  0.87432276  0.39170158  1
  V  V9  1  0.12533739  0.62515630  0.39044041  1
  V  V10  1  0.37459995  0.62152640  0.64537013  1
  V  V11  1  0.62165001  0.62645214  0.13774378  1
  V  V12  1  0.62374769  0.62494178  0.39431682  1
  V  V13  1  0.87662976  0.37456083  0.64359620  1
  V  V14  1  0.37187656  0.62621293  0.38852098  1
  V  V15  1  0.62208530  0.87428393  0.63755962  1
  V  V16  1  0.37609313  0.62971844  0.13687679  1
  V  V17  1  0.37887292  0.87742913  0.88661739  1
  V  V18  1  0.87745102  0.37646122  0.38416413  1
  V  V19  1  0.62267770  0.37381541  0.63905000  1
  V  V20  1  0.11569589  0.87738594  0.89192804  1
  V  V21  1  0.62299445  0.87297075  0.13992832  1
  V  V22  1  0.37465572  0.37264882  0.89259223  1
  V  V23  1  0.87471319  0.87158940  0.39080918  1
  V  V24  1  0.12107932  0.37565835  0.38612113  1
  V  V25  1  0.37582069  0.12490049  0.89686158  1
  V  V26  1  0.12238034  0.62513731  0.64733337  1
  V  V27  1  0.87180873  0.62384705  0.88940912  1
  V  V28  1  0.62368170  0.12531294  0.89745047  1
  V  V29  1  0.62217087  0.87638474  0.88872506  1
  V  V30  1  0.87336442  0.12416155  0.89770042  1
  V  V31  1  0.87810248  0.12502770  0.38582416  1
  Fe  Fe32  1  0.12747355  0.87198559  0.12390007  1
  Fe  Fe33  1  0.62544696  0.12340702  0.13933771  1
  Fe  Fe34  1  0.87382882  0.12880028  0.63694547  1
  Fe  Fe35  1  0.12363583  0.87066054  0.38631903  1
  Fe  Fe36  1  0.37211845  0.37474333  0.63681022  1
  Fe  Fe37  1  0.12607422  0.12267737  0.12530369  1
  Fe  Fe38  1  0.87646999  0.87670377  0.63779854  1
  Fe  Fe39  1  0.62274667  0.62257842  0.88189397  1
  Fe  Fe40  1  0.62628335  0.12195621  0.37985105  1
  Fe  Fe41  1  0.62768711  0.87206289  0.38818905  1
  Fe  Fe42  1  0.37369003  0.87546266  0.63764314  1
  Fe  Fe43  1  0.63003723  0.37623564  0.38009402  1
  Fe  Fe44  1  0.37917914  0.62350322  0.88441760  1
  Fe  Fe45  1  0.12710399  0.37892401  0.12271297  1
  Fe  Fe46  1  0.37632617  0.37788949  0.13856837  1
  Fe  Fe47  1  0.87350778  0.87257296  0.12379727  1
  Fe  Fe48  1  0.87141583  0.62963519  0.13047209  1
  Fe  Fe49  1  0.12742624  0.87592930  0.63690909  1
  Fe  Fe50  1  0.12418311  0.12847228  0.63535849  1
  Fe  Fe51  1  0.62453119  0.37775754  0.13813581  1
  Fe  Fe52  1  0.12693779  0.62774172  0.12200166  1
  Fe  Fe53  1  0.12647155  0.12665453  0.89936074  1
  Fe  Fe54  1  0.37679210  0.12235210  0.14163841  1
  Fe  Fe55  1  0.12637983  0.62491105  0.89462882  1
  Fe  Fe56  1  0.86800618  0.87656468  0.89385038  1
  Fe  Fe57  1  0.87478866  0.12147106  0.12981150  1
  Fe  Fe58  1  0.87422606  0.37733634  0.12531102  1
  Fe  Fe59  1  0.87488980  0.62162903  0.63996574  1
  Fe  Fe60  1  0.12366645  0.12179920  0.38275050  1
  Fe  Fe61  1  0.37250609  0.12639829  0.37513075  1
  Fe  Fe62  1  0.62685608  0.62349484  0.64138331  1
  Fe  Fe63  1  0.37340437  0.37955779  0.38063631  1
  Pb  Pb64  1  -0.00189935  0.00607764  0.00527964  1
  Pb  Pb65  1  0.00638629  -0.00566610  0.23444212  1
  Pb  Pb66  1  0.00089711  -0.00437972  0.50136352  1
  Pb  Pb67  1  0.00206941  0.00335241  0.74593251  1
  Pb  Pb68  1  -0.00404213  0.24127431  0.00927327  1
  Pb  Pb69  1  0.00486715  0.24758571  0.23077452  1
  Pb  Pb70  1  0.00058023  0.23810607  0.50271598  1
  Pb  Pb71  1  0.00457274  0.24214076  0.75723716  1
  Pb  Pb72  1  -0.01139285  0.50458235  0.00432774  1
  Pb  Pb73  1  0.00092359  0.50426392  0.22929192  1
  Pb  Pb74  1  -0.00436959  0.50377583  0.50027200  1
  Pb  Pb75  1  0.00653777  0.50215123  0.76037468  1
  Pb  Pb76  1  -0.01039549  0.74771038  0.00215409  1
  Pb  Pb77  1  0.00329984  0.75398572  0.23491899  1
  Pb  Pb78  1  -0.00259968  0.75867293  0.50643238  1
  Pb  Pb79  1  -0.00838474  0.75938856  0.75289298  1
  Pb  Pb80  1  0.24595128  -0.00096197  0.00457464  1
  Pb  Pb81  1  0.23852798  0.01221286  0.24774575  1
  Pb  Pb82  1  0.24042986  0.00143869  0.49580258  1
  Pb  Pb83  1  0.24223243  0.00144573  0.74899226  1
  Pb  Pb84  1  0.25390296  0.25765065  0.01082782  1
  Pb  Pb85  1  0.24987670  0.24705456  0.23771345  1
  Pb  Pb86  1  0.25042318  0.24512406  0.49096249  1
  Pb  Pb87  1  0.23916560  0.24610549  0.75959310  1
  Pb  Pb88  1  0.24689890  0.50350230  0.00064052  1
  Pb  Pb89  1  0.25062584  0.49561048  0.24249375  1
  Pb  Pb90  1  0.25321015  0.49485536  0.50154386  1
  Pb  Pb91  1  0.24732874  0.50683544  0.76133983  1
  Pb  Pb92  1  0.24381617  0.75040558  -0.00346118  1
  Pb  Pb93  1  0.24094081  0.75638768  0.24732510  1
  Pb  Pb94  1  0.24898933  0.76026069  0.50860368  1
  Pb  Pb95  1  0.24812978  0.74460977  0.75557931  1
  Pb  Pb96  1  0.49942010  0.01145535  0.00941491  1
  Pb  Pb97  1  0.50207490  0.00786939  0.25368870  1
  Pb  Pb98  1  0.50073978  0.00202640  0.49187137  1
  Pb  Pb99  1  0.50157078  0.00093989  0.74688476  1
  Pb  Pb100  1  0.49045000  0.24911350  0.01616928  1
  Pb  Pb101  1  0.49904557  0.24907920  0.24382498  1
  Pb  Pb102  1  0.49777867  0.25217748  0.48259678  1
  Pb  Pb103  1  0.49680467  0.24942339  0.74928625  1
  Pb  Pb104  1  0.50017861  0.49015881  0.00344943  1
  Pb  Pb105  1  0.49914408  0.49099453  0.25296110  1
  Pb  Pb106  1  0.49686295  0.49210995  0.49854079  1
  Pb  Pb107  1  0.49883128  0.50523890  0.75469330  1
  Pb  Pb108  1  0.50101136  0.74703496  -0.00480560  1
  Pb  Pb109  1  0.50482213  0.75496450  0.25618362  1
  Pb  Pb110  1  0.49654146  0.74979728  0.50421516  1
  Pb  Pb111  1  0.49974605  0.74084503  0.75231191  1
  Pb  Pb112  1  0.74596446  0.00774759  0.00665886  1
  Pb  Pb113  1  0.74893830  0.00309864  0.24587596  1
  Pb  Pb114  1  0.75901524  -0.00106813  0.49877984  1
  Pb  Pb115  1  0.75833198  -0.00349855  0.75112665  1
  Pb  Pb116  1  0.73773791  0.24813189  0.01279811  1
  Pb  Pb117  1  0.74746473  0.25107522  0.23882611  1
  Pb  Pb118  1  0.75374156  0.24757618  0.49128587  1
  Pb  Pb119  1  0.74842410  0.25076889  0.75136106  1
  Pb  Pb120  1  0.74527930  0.49383763  0.00451212  1
  Pb  Pb121  1  0.74963348  0.49611517  0.24421754  1
  Pb  Pb122  1  0.75104931  0.50838704  0.50474157  1
  Pb  Pb123  1  0.74746061  0.50255408  0.75193513  1
  Pb  Pb124  1  0.75600437  0.74753477  -0.00045185  1
  Pb  Pb125  1  0.74968875  0.75526201  0.24838211  1
  Pb  Pb126  1  0.75211066  0.73922915  0.50840254  1
  Pb  Pb127  1  0.75493619  0.75407803  0.75060698  1
  O  O128  1  0.12831275  -0.00485236  0.15232452  1
  O  O129  1  0.12409268  -0.00393850  0.41281311  1
  O  O130  1  0.12772362  0.00352924  0.66377419  1
  O  O131  1  0.13104492  -0.00627553  0.91355032  1
  O  O132  1  0.12642068  0.25112596  0.14789351  1
  O  O133  1  0.12171453  0.25964583  0.40661979  1
  O  O134  1  0.12541910  0.25648650  0.67053957  1
  O  O135  1  0.12731526  0.25567168  0.92240746  1
  O  O136  1  0.12818679  0.50567373  0.15245234  1
  O  O137  1  0.12001194  0.50309268  0.41693693  1
  O  O138  1  0.12473522  0.49756324  0.67220068  1
  O  O139  1  0.13036314  0.49251483  0.91466694  1
  O  O140  1  0.13103532  0.74900162  0.15791680  1
  O  O141  1  0.12295605  0.74034156  0.41618904  1
  O  O142  1  0.12717053  0.74101924  0.66727547  1
  O  O143  1  0.13383589  0.76008862  0.90730264  1
  O  O144  1  0.38041642  -0.01355888  0.15989542  1
  O  O145  1  0.37260469  -0.00929584  0.40779166  1
  O  O146  1  0.37680287  0.01045052  0.66290928  1
  O  O147  1  0.38245869  0.00455013  0.91564529  1
  O  O148  1  0.37719129  0.25092016  0.16135824  1
  O  O149  1  0.37241824  0.25344270  0.40317913  1
  O  O150  1  0.37753735  0.24589089  0.66556724  1
  O  O151  1  0.38132405  0.24836698  0.92075178  1
  O  O152  1  0.37983016  0.51418589  0.16039250  1
  O  O153  1  0.37292372  0.50631867  0.41759860  1
  O  O154  1  0.37301983  0.50193854  0.66867169  1
  O  O155  1  0.38167246  0.48960066  0.90906824  1
  O  O156  1  0.38229026  0.74865100  0.16664820  1
  O  O157  1  0.37471335  0.74530741  0.42059799  1
  O  O158  1  0.37317633  0.74129071  0.66614190  1
  O  O159  1  0.38513682  0.76044513  0.90369592  1
  O  O160  1  0.62185386  -0.01151761  0.16001459  1
  O  O161  1  0.62667543  -0.00274777  0.41667285  1
  O  O162  1  0.62202505  0.00050329  0.66211464  1
  O  O163  1  0.62374222  0.00059188  0.91817497  1
  O  O164  1  0.62506939  0.25049595  0.15831719  1
  O  O165  1  0.62859047  0.24896107  0.40753403  1
  O  O166  1  0.62464026  0.25273677  0.66646064  1
  O  O167  1  0.62603158  0.25144249  0.92212294  1
  O  O168  1  0.62381269  0.51152672  0.16077207  1
  O  O169  1  0.62927120  0.50746846  0.41588467  1
  O  O170  1  0.62427080  0.48983307  0.66401650  1
  O  O171  1  0.62279947  0.49190012  0.91166561  1
  O  O172  1  0.62105754  0.74942938  0.16776193  1
  O  O173  1  0.62725300  0.74369557  0.42066618  1
  O  O174  1  0.62151071  0.75760629  0.66094937  1
  O  O175  1  0.61829527  0.75838412  0.90555796  1
  O  O176  1  0.87301150  -0.00640790  0.15618407  1
  O  O177  1  0.87775159  -0.00084474  0.41109784  1
  O  O178  1  0.87253333  0.00250090  0.66781934  1
  O  O179  1  0.87070979  0.00604132  0.91307148  1
  O  O180  1  0.87509655  0.25054771  0.15257723  1
  O  O181  1  0.87764658  0.24735940  0.40816281  1
  O  O182  1  0.87377109  0.25616982  0.67350955  1
  O  O183  1  0.87255818  0.24683218  0.92228447  1
  O  O184  1  0.87193437  0.50479831  0.15668602  1
  O  O185  1  0.87807049  0.50089635  0.41487300  1
  O  O186  1  0.87616200  0.49286006  0.67332095  1
  O  O187  1  0.87251284  0.50467894  0.91443919  1
  O  O188  1  0.86919755  0.75244816  0.16323615  1
  O  O189  1  0.87568340  0.75112753  0.41432973  1
  O  O190  1  0.87373963  0.74937498  0.66771080  1
  O  O191  1  0.87116534  0.74417409  0.90992887  1
  O  O192  1  0.00094149  0.12157035  0.15583397  1
  O  O193  1  -0.00512457  0.12507320  0.41247484  1
  O  O194  1  -0.00063634  0.13022836  0.66812062  1
  O  O195  1  -0.00625540  0.12563039  0.91349428  1
  O  O196  1  0.00101055  0.37942279  0.14949791  1
  O  O197  1  0.00171856  0.37849593  0.41675935  1
  O  O198  1  0.00505114  0.37516592  0.67148978  1
  O  O199  1  0.00025165  0.37553337  0.91823329  1
  O  O200  1  0.00072378  0.63032230  0.15068818  1
  O  O201  1  0.00189469  0.62448187  0.41746337  1
  O  O202  1  0.00513668  0.62035651  0.66902012  1
  O  O203  1  -0.00669202  0.62493136  0.91142594  1
  O  O204  1  0.00082312  0.86906682  0.14708387  1
  O  O205  1  -0.00630274  0.87157523  0.41546220  1
  O  O206  1  0.00304207  0.87435563  0.66868786  1
  O  O207  1  0.00136813  0.87552870  0.90483492  1
  O  O208  1  0.24972865  0.12101646  0.15667163  1
  O  O209  1  0.24952875  0.12481410  0.41172182  1
  O  O210  1  0.25660789  0.13016438  0.66300617  1
  O  O211  1  0.26062081  0.12644209  0.91699782  1
  O  O212  1  0.25013889  0.38091958  0.15973551  1
  O  O213  1  0.23849165  0.38253751  0.40977745  1
  O  O214  1  0.24251615  0.37593266  0.66809960  1
  O  O215  1  0.26068687  0.36900090  0.91225104  1
  O  O216  1  0.26060800  0.63075472  0.15482221  1
  O  O217  1  0.24440028  0.62221237  0.41394392  1
  O  O218  1  0.24806375  0.61990096  0.67065028  1
  O  O219  1  0.25686323  0.62488208  0.91127250  1
  O  O220  1  0.26132010  0.86695859  0.15645544  1
  O  O221  1  0.25505216  0.86633359  0.41428251  1
  O  O222  1  0.25133739  0.87377695  0.67090546  1
  O  O223  1  0.26651823  0.88148036  0.90983260  1
  O  O224  1  0.50208055  0.11933633  0.16613982  1
  O  O225  1  0.49732969  0.12169222  0.40685329  1
  O  O226  1  0.49984934  0.12832605  0.66416825  1
  O  O227  1  0.50002459  0.12719422  0.92168391  1
  O  O228  1  0.50056787  0.38175092  0.16528615  1
  O  O229  1  0.50235301  0.38137290  0.40852537  1
  O  O230  1  0.50488745  0.37198297  0.66274693  1
  O  O231  1  0.50217980  0.36925980  0.91782618  1
  O  O232  1  0.50355129  0.62990809  0.16658726  1
  O  O233  1  0.50197207  0.62492654  0.41322404  1
  O  O234  1  0.49551095  0.62148587  0.66233371  1
  O  O235  1  0.50190752  0.62324626  0.91676711  1
  O  O236  1  0.50049713  0.86839055  0.16810358  1
  O  O237  1  0.49418893  0.86799705  0.41613515  1
  O  O238  1  0.50326196  0.87825631  0.66525201  1
  O  O239  1  0.50200385  0.88306691  0.91726191  1
  O  O240  1  0.75118693  0.11984468  0.16167069  1
  O  O241  1  0.76021392  0.12292052  0.41090672  1
  O  O242  1  0.74370807  0.12877288  0.66672710  1
  O  O243  1  0.74929299  0.12662845  0.92115319  1
  O  O244  1  0.75113888  0.37960165  0.16035518  1
  O  O245  1  0.75862239  0.37592719  0.41133560  1
  O  O246  1  0.74632487  0.37319290  0.66705185  1
  O  O247  1  0.74343039  0.37328408  0.91830316  1
  O  O248  1  0.73900174  0.63094258  0.16082886  1
  O  O249  1  0.75169352  0.62568010  0.41749000  1
  O  O250  1  0.75037588  0.62056916  0.67064952  1
  O  O251  1  0.75007116  0.62450043  0.90867485  1
  O  O252  1  0.74062776  0.86945014  0.15765085  1
  O  O253  1  0.75835717  0.87421313  0.41563483  1
  O  O254  1  0.73974440  0.87772667  0.66344765  1
  O  O255  1  0.73710518  0.87745043  0.91373083  1
  O  O256  1  0.12037942  0.11710102  0.02230204  1
  O  O257  1  0.12628058  0.11965004  0.28275690  1
  O  O258  1  0.12376033  0.13486948  0.53507387  1
  O  O259  1  0.13001229  0.13500371  0.79767419  1
  O  O260  1  0.13897787  0.37950922  0.02128167  1
  O  O261  1  0.11876323  0.38206677  0.29574077  1
  O  O262  1  0.12307944  0.37537673  0.55385919  1
  O  O263  1  0.12560474  0.36954353  0.81063500  1
  O  O264  1  0.13319853  0.62968262  0.01995277  1
  O  O265  1  0.12420855  0.62445557  0.29982176  1
  O  O266  1  0.12509510  0.62141392  0.55674901  1
  O  O267  1  0.12812803  0.61650250  0.79267924  1
  O  O268  1  0.13631262  0.87241980  0.02241028  1
  O  O269  1  0.12654170  0.86482372  0.28655934  1
  O  O270  1  0.12523352  0.86775780  0.53597584  1
  O  O271  1  0.12905096  0.88009275  0.80026227  1
  O  O272  1  0.38622908  0.12361168  0.03949887  1
  O  O273  1  0.37098851  0.11791491  0.27470645  1
  O  O274  1  0.37211335  0.12922908  0.54646300  1
  O  O275  1  0.37944165  0.12858069  0.80572961  1
  O  O276  1  0.38066496  0.37283245  0.03633741  1
  O  O277  1  0.37131018  0.39197713  0.28091049  1
  O  O278  1  0.37155866  0.38314137  0.53769281  1
  O  O279  1  0.37993945  0.36543768  0.80123738  1
  O  O280  1  0.38242560  0.63239510  0.04547503  1
  O  O281  1  0.37155121  0.62766358  0.29783881  1
  O  O282  1  0.36976425  0.62044781  0.55432554  1
  O  O283  1  0.38122594  0.62166047  0.78359961  1
  O  O284  1  0.38197895  0.86990408  0.04625633  1
  O  O285  1  0.37593315  0.86596714  0.30109522  1
  O  O286  1  0.37165519  0.86795235  0.53830198  1
  O  O287  1  0.38314864  0.88452206  0.79544371  1
  O  O288  1  0.62904522  0.11888769  0.03637052  1
  O  O289  1  0.63043907  0.11375710  0.27967260  1
  O  O290  1  0.62584754  0.12714596  0.54527819  1
  O  O291  1  0.62393110  0.12705186  0.80642513  1
  O  O292  1  0.62594617  0.38373893  0.03621260  1
  O  O293  1  0.63089431  0.38564868  0.28048871  1
  O  O294  1  0.62569847  0.37255772  0.54834739  1
  O  O295  1  0.62153235  0.36730793  0.80454895  1
  O  O296  1  0.61867384  0.62991817  0.04635090  1
  O  O297  1  0.62739481  0.62714352  0.30361149  1
  O  O298  1  0.63670759  0.62346697  0.54121509  1
  O  O299  1  0.61443438  0.62085660  0.78118361  1
  O  O300  1  0.61759177  0.86766677  0.04899994  1
  O  O301  1  0.62587868  0.86583252  0.28886518  1
  O  O302  1  0.62158423  0.87543132  0.54663161  1
  O  O303  1  0.61902507  0.88280144  0.79766718  1
  O  O304  1  0.88007680  0.11887842  0.02846839  1
  O  O305  1  0.87841263  0.12237628  0.29557042  1
  O  O306  1  0.87691703  0.13219219  0.53731954  1
  O  O307  1  0.86775852  0.12982476  0.80635040  1
  O  O308  1  0.87033373  0.38705663  0.02299251  1
  O  O309  1  0.88111531  0.37793615  0.29374927  1
  O  O310  1  0.87732074  0.37352101  0.55262125  1
  O  O311  1  0.87148592  0.37241600  0.81119372  1
  O  O312  1  0.87246291  0.63527953  0.02951453  1
  O  O313  1  0.87657281  0.62544053  0.29884192  1
  O  O314  1  0.87025462  0.61983575  0.53970406  1
  O  O315  1  0.87364400  0.62182868  0.79780104  1
  O  O316  1  0.87113539  0.86320880  0.02076107  1
  O  O317  1  0.87415395  0.87149785  0.30009304  1
  O  O318  1  0.88098243  0.87835719  0.53760207  1
  O  O319  1  0.86349206  0.87278169  0.79240943  1
