# generated using pymatgen
data_VFe(PbO3)2
_symmetry_space_group_name_H-M   'P 1'
_cell_length_a   15.38908933
_cell_length_b   15.38066236
_cell_length_c   18.53629599
_cell_angle_alpha   90.02066411
_cell_angle_beta   90.01637560
_cell_angle_gamma   90.00826228
_symmetry_Int_Tables_number   1
_chemical_formula_structural   VFe(PbO3)2
_chemical_formula_sum   'V32 Fe32 Pb64 O192'
_cell_volume   4387.43670734
_cell_formula_units_Z   32
loop_
 _symmetry_equiv_pos_site_id
 _symmetry_equiv_pos_as_xyz
  1  'x, y, z'
loop_
 _atom_site_type_symbol
 _atom_site_label
 _atom_site_symmetry_multiplicity
 _atom_site_fract_x
 _atom_site_fract_y
 _atom_site_fract_z
 _atom_site_occupancy
  V  V0  1  0.12690219  0.62785574  0.38910086  1
  V  V1  1  0.87529073  0.12643063  0.63988949  1
  V  V2  1  0.87460535  0.12466922  0.14422160  1
  V  V3  1  0.12614839  0.12367525  0.64116400  1
  V  V4  1  0.62711456  0.88057037  0.64826512  1
  V  V5  1  0.62502750  0.37595304  0.14442297  1
  V  V6  1  0.37311580  0.62722547  0.39457545  1
  V  V7  1  0.12649645  0.12199012  0.39044682  1
  V  V8  1  0.87397468  0.87486535  0.64394150  1
  V  V9  1  0.62743971  0.37767469  0.63610454  1
  V  V10  1  0.37479036  0.87539127  0.39517077  1
  V  V11  1  0.12798058  0.62250121  0.88742350  1
  V  V12  1  0.37419712  0.37420844  0.63759720  1
  V  V13  1  0.63058487  0.37528841  0.89035312  1
  V  V14  1  0.87583773  0.37417513  0.14555970  1
  V  V15  1  0.12507260  0.87583477  0.13758927  1
  V  V16  1  0.87424602  0.87606424  0.13919681  1
  V  V17  1  0.62381676  0.87504019  0.13814029  1
  V  V18  1  0.62807393  0.62714115  0.64209520  1
  V  V19  1  0.12176947  0.87331580  0.88405071  1
  V  V20  1  0.62492348  0.12522135  0.14433420  1
  V  V21  1  0.37538510  0.12331518  0.13691549  1
  V  V22  1  0.37861468  0.62679495  0.13652163  1
  V  V23  1  0.87962581  0.37544763  0.88761901  1
  V  V24  1  0.62420769  0.62903774  0.38632869  1
  V  V25  1  0.12620559  0.62548744  0.63710118  1
  V  V26  1  0.12966804  0.87535820  0.39735382  1
  V  V27  1  0.87590216  0.62404961  0.64081369  1
  V  V28  1  0.62677132  0.12860398  0.64129357  1
  V  V29  1  0.37157830  0.12492328  0.39344525  1
  V  V30  1  0.12635284  0.62148920  0.13959517  1
  V  V31  1  0.37591699  0.37596914  0.88652597  1
  Fe  Fe32  1  0.87085542  0.37524862  0.63236090  1
  Fe  Fe33  1  0.62448416  0.12839723  0.88238217  1
  Fe  Fe34  1  0.61893937  0.87443534  0.38646876  1
  Fe  Fe35  1  0.37426753  0.37634878  0.38503622  1
  Fe  Fe36  1  0.37385157  0.87273808  0.87887011  1
  Fe  Fe37  1  0.11988661  0.37595201  0.63963828  1
  Fe  Fe38  1  0.12003798  0.87379422  0.63565523  1
  Fe  Fe39  1  0.62685721  0.87480732  0.87734611  1
  Fe  Fe40  1  0.12473479  0.12727060  0.88186106  1
  Fe  Fe41  1  0.87748781  0.62162678  0.88647234  1
  Fe  Fe42  1  0.12615282  0.37138209  0.13874187  1
  Fe  Fe43  1  0.37796577  0.62288943  0.64454202  1
  Fe  Fe44  1  0.87661403  0.87421449  0.88246154  1
  Fe  Fe45  1  0.62163269  0.12189405  0.38207055  1
  Fe  Fe46  1  0.12379431  0.12320684  0.13429784  1
  Fe  Fe47  1  0.37439122  0.87600608  0.13045257  1
  Fe  Fe48  1  0.12876026  0.37533151  0.38572256  1
  Fe  Fe49  1  0.61881009  0.37554222  0.38472188  1
  Fe  Fe50  1  0.87596406  0.62404850  0.14591054  1
  Fe  Fe51  1  0.37622584  0.12714486  0.64476705  1
  Fe  Fe52  1  0.37292041  0.62075457  0.87715375  1
  Fe  Fe53  1  0.62561365  0.62135844  0.88887551  1
  Fe  Fe54  1  0.37447666  0.87440429  0.64614367  1
  Fe  Fe55  1  0.87880435  0.62812734  0.37655963  1
  Fe  Fe56  1  0.87646083  0.12228547  0.38152918  1
  Fe  Fe57  1  0.87546074  0.37642426  0.38432771  1
  Fe  Fe58  1  0.37642727  0.37281117  0.13895300  1
  Fe  Fe59  1  0.12562589  0.37763741  0.88033997  1
  Fe  Fe60  1  0.87495395  0.12753453  0.88375512  1
  Fe  Fe61  1  0.62510778  0.62495842  0.13223234  1
  Fe  Fe62  1  0.37487039  0.12807841  0.87556254  1
  Fe  Fe63  1  0.87540889  0.87411570  0.38232925  1
  Pb  Pb64  1  0.00210504  0.00724900  -0.00629782  1
  Pb  Pb65  1  -0.00835729  -0.00186702  0.25265559  1
  Pb  Pb66  1  0.00284795  -0.00498117  0.49943881  1
  Pb  Pb67  1  -0.00765174  0.00382959  0.75264681  1
  Pb  Pb68  1  0.01348882  0.24759663  -0.00023601  1
  Pb  Pb69  1  -0.00068888  0.24947401  0.25245817  1
  Pb  Pb70  1  -0.00257791  0.25920806  0.49697093  1
  Pb  Pb71  1  0.00228886  0.24820056  0.75088896  1
  Pb  Pb72  1  -0.00150051  0.50283047  0.00300066  1
  Pb  Pb73  1  -0.00053335  0.48864413  0.25685696  1
  Pb  Pb74  1  -0.00365631  0.48967905  0.49900315  1
  Pb  Pb75  1  -0.00306338  0.49634519  0.74802849  1
  Pb  Pb76  1  -0.00649448  0.74308132  -0.00056339  1
  Pb  Pb77  1  -0.00464148  0.75247486  0.25123782  1
  Pb  Pb78  1  0.00468583  0.75281139  0.49909209  1
  Pb  Pb79  1  -0.01077328  0.74877174  0.75300101  1
  Pb  Pb80  1  0.25558493  0.00186796  -0.01136156  1
  Pb  Pb81  1  0.25184727  0.00095091  0.24654577  1
  Pb  Pb82  1  0.26077888  0.00000399  0.51429323  1
  Pb  Pb83  1  0.25461315  -0.00270298  0.74847520  1
  Pb  Pb84  1  0.24239064  0.24941698  -0.00339258  1
  Pb  Pb85  1  0.24801091  0.25508038  0.24736864  1
  Pb  Pb86  1  0.24596874  0.25427009  0.50230271  1
  Pb  Pb87  1  0.23564227  0.24887071  0.75467416  1
  Pb  Pb88  1  0.25068060  0.48410456  0.00349277  1
  Pb  Pb89  1  0.25227336  0.49035286  0.25200779  1
  Pb  Pb90  1  0.24590904  0.49749335  0.50230775  1
  Pb  Pb91  1  0.25205401  0.49880929  0.74821069  1
  Pb  Pb92  1  0.25781425  0.75209732  -0.00587840  1
  Pb  Pb93  1  0.25019412  0.74983346  0.24764480  1
  Pb  Pb94  1  0.25752691  0.75488621  0.51244449  1
  Pb  Pb95  1  0.25880639  0.75199861  0.74810609  1
  Pb  Pb96  1  0.49686446  -0.00332976  -0.01563056  1
  Pb  Pb97  1  0.50754146  -0.00189289  0.25248715  1
  Pb  Pb98  1  0.49213289  0.00085877  0.50727741  1
  Pb  Pb99  1  0.49288853  0.00187874  0.75521108  1
  Pb  Pb100  1  0.49239285  0.25160659  -0.00271999  1
  Pb  Pb101  1  0.50646080  0.24855743  0.25388289  1
  Pb  Pb102  1  0.49879895  0.24974774  0.49640557  1
  Pb  Pb103  1  0.50131166  0.24675313  0.75089174  1
  Pb  Pb104  1  0.49748749  0.50165125  -0.00169385  1
  Pb  Pb105  1  0.49900393  0.48947918  0.25430476  1
  Pb  Pb106  1  0.49416342  0.50684416  0.50160261  1
  Pb  Pb107  1  0.50696502  0.50674676  0.75241135  1
  Pb  Pb108  1  0.50142027  0.74814082  -0.01428557  1
  Pb  Pb109  1  0.50523887  0.75517064  0.24810787  1
  Pb  Pb110  1  0.49029204  0.75033757  0.51121194  1
  Pb  Pb111  1  0.50271064  0.75343775  0.75461322  1
  Pb  Pb112  1  0.74936912  -0.00055457  -0.01178069  1
  Pb  Pb113  1  0.75053459  0.00078738  0.25390571  1
  Pb  Pb114  1  0.74816353  0.00017142  0.48900007  1
  Pb  Pb115  1  0.75107235  0.00246160  0.75681378  1
  Pb  Pb116  1  0.75201719  0.24873731  -0.00050848  1
  Pb  Pb117  1  0.75398837  0.24914775  0.25808556  1
  Pb  Pb118  1  0.75170388  0.25110104  0.48729438  1
  Pb  Pb119  1  0.75026167  0.24295529  0.75142789  1
  Pb  Pb120  1  0.75290490  0.51460795  0.00803445  1
  Pb  Pb121  1  0.75208376  0.49928866  0.25210079  1
  Pb  Pb122  1  0.75574656  0.49603651  0.49146690  1
  Pb  Pb123  1  0.74954035  0.50965948  0.75405409  1
  Pb  Pb124  1  0.74879431  0.74736132  -0.00799162  1
  Pb  Pb125  1  0.75364922  0.75039627  0.24715734  1
  Pb  Pb126  1  0.75329437  0.75336292  0.49279979  1
  Pb  Pb127  1  0.74706324  0.75279844  0.75812760  1
  O  O128  1  0.12489482  -0.00615892  0.16385114  1
  O  O129  1  0.12983493  0.00286067  0.42065975  1
  O  O130  1  0.11846008  0.00664417  0.66274525  1
  O  O131  1  0.12328997  -0.00783097  0.90451951  1
  O  O132  1  0.12587577  0.24600639  0.16774211  1
  O  O133  1  0.13027748  0.24116536  0.41168968  1
  O  O134  1  0.12047525  0.24497939  0.66361092  1
  O  O135  1  0.12532166  0.25476609  0.91223221  1
  O  O136  1  0.12636746  0.50618913  0.16073815  1
  O  O137  1  0.13159889  0.51081615  0.41124202  1
  O  O138  1  0.12086174  0.50773267  0.66404552  1
  O  O139  1  0.12528611  0.50423464  0.91106538  1
  O  O140  1  0.12661068  0.75572997  0.16487201  1
  O  O141  1  0.13155602  0.74708952  0.41953578  1
  O  O142  1  0.11865018  0.74019530  0.66248850  1
  O  O143  1  0.12271813  0.74571055  0.91174413  1
  O  O144  1  0.37702700  0.00390312  0.16292343  1
  O  O145  1  0.37121939  0.00094932  0.42145004  1
  O  O146  1  0.37739322  0.00082046  0.66783611  1
  O  O147  1  0.37152965  -0.00009831  0.90323161  1
  O  O148  1  0.37672498  0.24062871  0.16278860  1
  O  O149  1  0.37088608  0.24341335  0.41160288  1
  O  O150  1  0.38262235  0.25913965  0.66253913  1
  O  O151  1  0.37658553  0.25785304  0.90952489  1
  O  O152  1  0.37245752  0.51180407  0.16303392  1
  O  O153  1  0.37300477  0.50911072  0.41438798  1
  O  O154  1  0.37969345  0.49076913  0.66460007  1
  O  O155  1  0.37425988  0.49389722  0.91238014  1
  O  O156  1  0.37142469  0.74620195  0.16270046  1
  O  O157  1  0.37271755  0.74921076  0.42246017  1
  O  O158  1  0.37735830  0.74773488  0.66654129  1
  O  O159  1  0.37032662  0.74642994  0.90503320  1
  O  O160  1  0.62396183  -0.00375338  0.16497972  1
  O  O161  1  0.61878545  -0.00090017  0.41675516  1
  O  O162  1  0.63030069  -0.00026260  0.66365661  1
  O  O163  1  0.62616963  0.00166842  0.90677168  1
  O  O164  1  0.62501854  0.25209861  0.16980742  1
  O  O165  1  0.61900892  0.24784594  0.41142289  1
  O  O166  1  0.62827077  0.24738921  0.65977844  1
  O  O167  1  0.62255958  0.25958942  0.91857691  1
  O  O168  1  0.62493908  0.49408925  0.16283983  1
  O  O169  1  0.61758396  0.51331725  0.41156510  1
  O  O170  1  0.62958355  0.50346048  0.66354282  1
  O  O171  1  0.62447440  0.48880219  0.91848255  1
  O  O172  1  0.62440150  0.75610264  0.16052342  1
  O  O173  1  0.61774772  0.74359203  0.41804685  1
  O  O174  1  0.62946311  0.74491525  0.66504306  1
  O  O175  1  0.62648704  0.74887248  0.90916749  1
  O  O176  1  0.87388885  -0.00149888  0.16676082  1
  O  O177  1  0.87926705  -0.00200333  0.41364933  1
  O  O178  1  0.87220323  0.00316086  0.66570781  1
  O  O179  1  0.87779922  0.00075708  0.91206794  1
  O  O180  1  0.87182136  0.25251130  0.16955015  1
  O  O181  1  0.87789172  0.24836483  0.40974738  1
  O  O182  1  0.87051893  0.24337641  0.65822887  1
  O  O183  1  0.87366637  0.26055681  0.91513533  1
  O  O184  1  0.87493228  0.49208581  0.16679768  1
  O  O185  1  0.87639394  0.50633060  0.40957818  1
  O  O186  1  0.87178293  0.50650792  0.66101878  1
  O  O187  1  0.87444910  0.49051853  0.91839676  1
  O  O188  1  0.87655327  0.75553313  0.16308526  1
  O  O189  1  0.87652761  0.74873812  0.41356046  1
  O  O190  1  0.87322063  0.74576147  0.66602402  1
  O  O191  1  0.87952857  0.74780408  0.91376099  1
  O  O192  1  -0.00423469  0.12394176  0.16501880  1
  O  O193  1  0.01065607  0.12186562  0.41056984  1
  O  O194  1  -0.00575737  0.12508465  0.66172600  1
  O  O195  1  -0.00031164  0.12819460  0.91419265  1
  O  O196  1  -0.00462747  0.37282093  0.16370271  1
  O  O197  1  0.00433608  0.37679339  0.41280495  1
  O  O198  1  -0.00602198  0.37585684  0.66380631  1
  O  O199  1  -0.00466915  0.37743627  0.90583247  1
  O  O200  1  0.01187154  0.62938319  0.16569871  1
  O  O201  1  0.01059404  0.63025607  0.40576185  1
  O  O202  1  -0.00481739  0.62401919  0.66181898  1
  O  O203  1  0.00681231  0.62063445  0.91814809  1
  O  O204  1  0.00398757  0.87588571  0.16261934  1
  O  O205  1  0.00646260  0.87334440  0.41587085  1
  O  O206  1  -0.00530816  0.87460409  0.66646686  1
  O  O207  1  0.00765430  0.87171782  0.91435724  1
  O  O208  1  0.25673791  0.12100352  0.16199892  1
  O  O209  1  0.25076143  0.12153825  0.42175063  1
  O  O210  1  0.24289094  0.12684291  0.66035626  1
  O  O211  1  0.25071485  0.12772601  0.90543792  1
  O  O212  1  0.25223285  0.37607835  0.16663273  1
  O  O213  1  0.25161879  0.37617526  0.41877129  1
  O  O214  1  0.25730645  0.37494933  0.65797357  1
  O  O215  1  0.25582636  0.37624654  0.90866619  1
  O  O216  1  0.24659613  0.63001216  0.16546462  1
  O  O217  1  0.25285055  0.62949665  0.41964782  1
  O  O218  1  0.24294726  0.62220669  0.65813552  1
  O  O219  1  0.24359965  0.62291422  0.90975874  1
  O  O220  1  0.24559509  0.87619907  0.16252655  1
  O  O221  1  0.25276297  0.87448783  0.42518342  1
  O  O222  1  0.24347661  0.87476272  0.66401579  1
  O  O223  1  0.23949446  0.87079529  0.90804508  1
  O  O224  1  0.49723127  0.12384063  0.16436936  1
  O  O225  1  0.48882872  0.12214215  0.41444107  1
  O  O226  1  0.51104532  0.12418787  0.66325415  1
  O  O227  1  0.49854561  0.12948505  0.91093934  1
  O  O228  1  0.50415731  0.37424295  0.16456651  1
  O  O229  1  0.49532276  0.37736199  0.41864327  1
  O  O230  1  0.50663533  0.37606509  0.66421333  1
  O  O231  1  0.49867539  0.37609138  0.91200436  1
  O  O232  1  0.49450886  0.62876553  0.15647860  1
  O  O233  1  0.49356705  0.62940944  0.41680439  1
  O  O234  1  0.51028505  0.62316446  0.66457219  1
  O  O235  1  0.49749071  0.61901199  0.90900210  1
  O  O236  1  0.50355925  0.87494507  0.15945285  1
  O  O237  1  0.49243480  0.87373034  0.42049118  1
  O  O238  1  0.51015879  0.87253198  0.66596758  1
  O  O239  1  0.50001171  0.87400771  0.90360440  1
  O  O240  1  0.74868678  0.12415532  0.17044754  1
  O  O241  1  0.74915598  0.12280493  0.40791984  1
  O  O242  1  0.74954049  0.12315399  0.66466052  1
  O  O243  1  0.74994147  0.13205265  0.91568983  1
  O  O244  1  0.74861570  0.37308091  0.16859359  1
  O  O245  1  0.74609980  0.37884682  0.40872435  1
  O  O246  1  0.74533540  0.37484761  0.66400269  1
  O  O247  1  0.74785978  0.37353563  0.91251198  1
  O  O248  1  0.74778097  0.62436683  0.16525921  1
  O  O249  1  0.74157888  0.62900173  0.40198730  1
  O  O250  1  0.75151465  0.62565003  0.66567077  1
  O  O251  1  0.75262290  0.61897515  0.91598348  1
  O  O252  1  0.74638603  0.87702584  0.16234198  1
  O  O253  1  0.74726327  0.87230502  0.41134293  1
  O  O254  1  0.74938439  0.87285621  0.66901812  1
  O  O255  1  0.75136675  0.87443359  0.91044319  1
  O  O256  1  0.12168614  0.12820271  0.03457078  1
  O  O257  1  0.13285442  0.11656724  0.29975377  1
  O  O258  1  0.12173615  0.12619839  0.55020595  1
  O  O259  1  0.11930719  0.13515002  0.78111335  1
  O  O260  1  0.13234713  0.37189750  0.03820756  1
  O  O261  1  0.12675633  0.37934442  0.28500938  1
  O  O262  1  0.12358343  0.37660707  0.53889961  1
  O  O263  1  0.12847237  0.37217930  0.77934283  1
  O  O264  1  0.12736698  0.62445334  0.04862693  1
  O  O265  1  0.13456800  0.63193834  0.29831936  1
  O  O266  1  0.12225445  0.62431130  0.54597355  1
  O  O267  1  0.12432604  0.62378876  0.79658825  1
  O  O268  1  0.12485470  0.87453950  0.04734064  1
  O  O269  1  0.13163306  0.87633209  0.30642712  1
  O  O270  1  0.11723547  0.87233799  0.53565076  1
  O  O271  1  0.11853587  0.86921466  0.79338105  1
  O  O272  1  0.37579334  0.12319661  0.04598930  1
  O  O273  1  0.36738590  0.11844773  0.30293987  1
  O  O274  1  0.37639559  0.12006399  0.54404126  1
  O  O275  1  0.38318204  0.12945734  0.77381975  1
  O  O276  1  0.37453242  0.37875559  0.03940941  1
  O  O277  1  0.37602237  0.38376200  0.28437768  1
  O  O278  1  0.37748864  0.37574364  0.54609350  1
  O  O279  1  0.37686719  0.37695687  0.79561070  1
  O  O280  1  0.37122923  0.62582352  0.04561101  1
  O  O281  1  0.37259398  0.63205016  0.30397014  1
  O  O282  1  0.38171101  0.62574105  0.54346753  1
  O  O283  1  0.37098591  0.61464834  0.77611540  1
  O  O284  1  0.36730537  0.87533344  0.03181992  1
  O  O285  1  0.37302068  0.87515572  0.30401919  1
  O  O286  1  0.37629657  0.87491935  0.54358110  1
  O  O287  1  0.37188542  0.87361053  0.77684632  1
  O  O288  1  0.62556502  0.12804375  0.05382115  1
  O  O289  1  0.61544886  0.11942791  0.28130010  1
  O  O290  1  0.62822444  0.12522368  0.55074169  1
  O  O291  1  0.63084107  0.13413881  0.78227668  1
  O  O292  1  0.62703314  0.37140901  0.05401784  1
  O  O293  1  0.61396054  0.37865286  0.28472696  1
  O  O294  1  0.62627585  0.37848325  0.54509414  1
  O  O295  1  0.62844185  0.37512958  0.79928278  1
  O  O296  1  0.62732585  0.62108565  0.03255411  1
  O  O297  1  0.61515734  0.63292010  0.29514367  1
  O  O298  1  0.62974758  0.62582538  0.55145117  1
  O  O299  1  0.63080357  0.61448184  0.78743508  1
  O  O300  1  0.62511335  0.87752870  0.04789303  1
  O  O301  1  0.61224328  0.87261317  0.28671613  1
  O  O302  1  0.62868346  0.87420691  0.55753631  1
  O  O303  1  0.62985487  0.86837731  0.77616459  1
  O  O304  1  0.87084254  0.12781816  0.05332424  1
  O  O305  1  0.87614474  0.12083453  0.28114164  1
  O  O306  1  0.87438090  0.12255720  0.54940949  1
  O  O307  1  0.87138533  0.12689198  0.78345758  1
  O  O308  1  0.87191252  0.37245884  0.05501817  1
  O  O309  1  0.87932595  0.37704676  0.28344002  1
  O  O310  1  0.87574624  0.38112316  0.53189046  1
  O  O311  1  0.87325768  0.37779134  0.79646817  1
  O  O312  1  0.88423351  0.61576133  0.04478631  1
  O  O313  1  0.87890431  0.63032051  0.27551485  1
  O  O314  1  0.87415391  0.62689809  0.55013590  1
  O  O315  1  0.87826916  0.61784606  0.78667480  1
  O  O316  1  0.87594359  0.87803115  0.04851384  1
  O  O317  1  0.87980424  0.87593273  0.28198056  1
  O  O318  1  0.87172201  0.87324362  0.55278963  1
  O  O319  1  0.87798383  0.87326343  0.78198112  1
