# generated using pymatgen
data_VFe(PbO3)2
_symmetry_space_group_name_H-M   'P 1'
_cell_length_a   15.38604328
_cell_length_b   15.37227683
_cell_length_c   18.56310962
_cell_angle_alpha   89.92883817
_cell_angle_beta   89.97828795
_cell_angle_gamma   90.00131041
_symmetry_Int_Tables_number   1
_chemical_formula_structural   VFe(PbO3)2
_chemical_formula_sum   'V32 Fe32 Pb64 O192'
_cell_volume   4390.51544872
_cell_formula_units_Z   32
loop_
 _symmetry_equiv_pos_site_id
 _symmetry_equiv_pos_as_xyz
  1  'x, y, z'
loop_
 _atom_site_type_symbol
 _atom_site_label
 _atom_site_symmetry_multiplicity
 _atom_site_fract_x
 _atom_site_fract_y
 _atom_site_fract_z
 _atom_site_occupancy
  V  V0  1  0.87156996  0.12322277  0.13834510  1
  V  V1  1  0.37516213  0.62171205  0.38335575  1
  V  V2  1  0.38756265  0.12376137  0.13655205  1
  V  V3  1  0.62890644  0.37068376  0.13454433  1
  V  V4  1  0.87364918  0.87133211  0.88702983  1
  V  V5  1  0.87338987  0.37779046  0.64002102  1
  V  V6  1  0.12602239  0.37082341  0.38747331  1
  V  V7  1  0.36864430  0.12125034  0.88599406  1
  V  V8  1  0.13463921  0.12556368  0.13473099  1
  V  V9  1  0.62646522  0.87791117  0.14225594  1
  V  V10  1  0.62047919  0.62236184  0.64073630  1
  V  V11  1  0.87673009  0.62272626  0.63832660  1
  V  V12  1  0.87446074  0.36919918  0.89069231  1
  V  V13  1  0.87811618  0.87534062  0.39277172  1
  V  V14  1  0.37393550  0.37657387  0.64410322  1
  V  V15  1  0.37568086  0.87503728  0.89460371  1
  V  V16  1  0.62276381  0.37538788  0.38821300  1
  V  V17  1  0.62493322  0.37486607  0.64568136  1
  V  V18  1  0.62553090  0.12709417  0.38922518  1
  V  V19  1  0.12330683  0.62253333  0.38441269  1
  V  V20  1  0.12606189  0.62511530  0.90007304  1
  V  V21  1  0.87942651  0.62775787  0.89173346  1
  V  V22  1  0.87198657  0.87541391  0.14209929  1
  V  V23  1  0.37695011  0.62763593  0.89727229  1
  V  V24  1  0.87419640  0.62521831  0.14080951  1
  V  V25  1  0.62063070  0.12685953  0.63812278  1
  V  V26  1  0.62471182  0.12179515  0.88781498  1
  V  V27  1  0.12406121  0.12320843  0.38794534  1
  V  V28  1  0.12435663  0.87249313  0.63614649  1
  V  V29  1  0.12508658  0.87507626  0.89045804  1
  V  V30  1  0.12249531  0.37715889  0.64440470  1
  V  V31  1  0.37452770  0.87340074  0.63627654  1
  Fe  Fe32  1  0.12090987  0.87936389  0.14800222  1
  Fe  Fe33  1  0.12156602  0.12120868  0.88083418  1
  Fe  Fe34  1  0.37568044  0.37068037  0.12448979  1
  Fe  Fe35  1  0.87451549  0.87134745  0.63103319  1
  Fe  Fe36  1  0.12862453  0.12555549  0.64277660  1
  Fe  Fe37  1  0.12812094  0.62338339  0.63730337  1
  Fe  Fe38  1  0.62355746  0.87392352  0.62709633  1
  Fe  Fe39  1  0.62518034  0.62284280  0.37825166  1
  Fe  Fe40  1  0.87443756  0.11787365  0.87879128  1
  Fe  Fe41  1  0.87214180  0.37372542  0.12979113  1
  Fe  Fe42  1  0.62384350  0.87365189  0.88422721  1
  Fe  Fe43  1  0.12448721  0.37502260  0.89364032  1
  Fe  Fe44  1  0.37876593  0.37537494  0.89878630  1
  Fe  Fe45  1  0.12133543  0.37021585  0.12686570  1
  Fe  Fe46  1  0.62570436  0.62432427  0.14040211  1
  Fe  Fe47  1  0.37423720  0.13089635  0.38527958  1
  Fe  Fe48  1  0.37402606  0.62284634  0.63752433  1
  Fe  Fe49  1  0.62268358  0.87540194  0.39378571  1
  Fe  Fe50  1  0.87864426  0.37412339  0.38610612  1
  Fe  Fe51  1  0.37510813  0.62593862  0.12922090  1
  Fe  Fe52  1  0.12359022  0.62528610  0.13095218  1
  Fe  Fe53  1  0.12537469  0.87521120  0.37807721  1
  Fe  Fe54  1  0.37076527  0.87711272  0.38011502  1
  Fe  Fe55  1  0.37598058  0.87853082  0.14027849  1
  Fe  Fe56  1  0.62774335  0.37697960  0.88248136  1
  Fe  Fe57  1  0.37600724  0.12677385  0.63834651  1
  Fe  Fe58  1  0.87475312  0.12791774  0.39317589  1
  Fe  Fe59  1  0.62759656  0.62918970  0.88761257  1
  Fe  Fe60  1  0.87508422  0.12591487  0.63820903  1
  Fe  Fe61  1  0.87440004  0.62341834  0.38130262  1
  Fe  Fe62  1  0.37093266  0.37416057  0.38423353  1
  Fe  Fe63  1  0.63088672  0.12569972  0.13677066  1
  Pb  Pb64  1  0.00410649  -0.00379718  -0.00188219  1
  Pb  Pb65  1  -0.00572161  0.00689577  0.25372697  1
  Pb  Pb66  1  -0.00690070  0.00268871  0.50571541  1
  Pb  Pb67  1  -0.00183586  0.00626873  0.74612459  1
  Pb  Pb68  1  0.00400751  0.24642422  -0.00495283  1
  Pb  Pb69  1  -0.01031748  0.25028035  0.24822848  1
  Pb  Pb70  1  0.00047036  0.24066295  0.50686157  1
  Pb  Pb71  1  0.00159681  0.24080570  0.75372166  1
  Pb  Pb72  1  -0.00222313  0.49198019  0.00673858  1
  Pb  Pb73  1  -0.00274533  0.49061171  0.24196222  1
  Pb  Pb74  1  0.00269496  0.50269699  0.49616919  1
  Pb  Pb75  1  0.00518450  0.49324581  0.75602203  1
  Pb  Pb76  1  0.00979940  0.75322787  0.00772245  1
  Pb  Pb77  1  0.00137910  0.74922582  0.24981847  1
  Pb  Pb78  1  -0.00064597  0.75254667  0.49699653  1
  Pb  Pb79  1  -0.00202549  0.74655611  0.74664667  1
  Pb  Pb80  1  0.24679940  -0.01864648  0.01145761  1
  Pb  Pb81  1  0.25447333  -0.00648660  0.25368619  1
  Pb  Pb82  1  0.25030253  0.00489891  0.49515931  1
  Pb  Pb83  1  0.24841359  0.00316202  0.74771462  1
  Pb  Pb84  1  0.24605199  0.25708255  -0.00439551  1
  Pb  Pb85  1  0.26012797  0.25198961  0.24814947  1
  Pb  Pb86  1  0.24899268  0.24197468  0.50597782  1
  Pb  Pb87  1  0.24520645  0.25290565  0.75668837  1
  Pb  Pb88  1  0.25541984  0.49910822  0.00460835  1
  Pb  Pb89  1  0.24987155  0.49374076  0.23113960  1
  Pb  Pb90  1  0.24839502  0.50930520  0.50199984  1
  Pb  Pb91  1  0.25116983  0.49085865  0.76018040  1
  Pb  Pb92  1  0.25005496  0.74601757  0.01068863  1
  Pb  Pb93  1  0.24896982  0.75270904  0.24000788  1
  Pb  Pb94  1  0.24864760  0.74414273  0.49329924  1
  Pb  Pb95  1  0.25377422  0.74566632  0.74890920  1
  Pb  Pb96  1  0.49742236  -0.00256423  0.00257075  1
  Pb  Pb97  1  0.50357014  -0.01153451  0.26034399  1
  Pb  Pb98  1  0.49252888  -0.00077844  0.49495425  1
  Pb  Pb99  1  0.50605086  -0.00815539  0.74660604  1
  Pb  Pb100  1  0.50378256  0.25208940  -0.00292923  1
  Pb  Pb101  1  0.49029847  0.25106901  0.25137574  1
  Pb  Pb102  1  0.49297295  0.24869773  0.50010200  1
  Pb  Pb103  1  0.49635219  0.26090257  0.75826919  1
  Pb  Pb104  1  0.51040929  0.50373679  0.00016343  1
  Pb  Pb105  1  0.49536789  0.49665291  0.23720726  1
  Pb  Pb106  1  0.49328956  0.50482479  0.49791253  1
  Pb  Pb107  1  0.49777769  0.49316191  0.76105657  1
  Pb  Pb108  1  0.49974508  0.74654931  0.00555479  1
  Pb  Pb109  1  0.49905616  0.74874749  0.24552780  1
  Pb  Pb110  1  0.50023630  0.75154659  0.49210950  1
  Pb  Pb111  1  0.50879182  0.74961101  0.75204662  1
  Pb  Pb112  1  0.74501406  0.00477540  -0.00087748  1
  Pb  Pb113  1  0.74590910  -0.00308821  0.25829461  1
  Pb  Pb114  1  0.75110825  -0.00745356  0.50346517  1
  Pb  Pb115  1  0.75310324  -0.00472422  0.74012882  1
  Pb  Pb116  1  0.74614800  0.24259684  -0.00140770  1
  Pb  Pb117  1  0.75979728  0.25227506  0.25259903  1
  Pb  Pb118  1  0.75465706  0.24914609  0.50049203  1
  Pb  Pb119  1  0.75296173  0.24519700  0.74960333  1
  Pb  Pb120  1  0.75051501  0.50103531  -0.00062933  1
  Pb  Pb121  1  0.75112626  0.50527414  0.25036767  1
  Pb  Pb122  1  0.75116816  0.50200969  0.49268610  1
  Pb  Pb123  1  0.74248921  0.50428953  0.75305382  1
  Pb  Pb124  1  0.74226603  0.74619065  0.00235419  1
  Pb  Pb125  1  0.74701957  0.74362887  0.25747657  1
  Pb  Pb126  1  0.74668096  0.75053050  0.49546051  1
  Pb  Pb127  1  0.74108976  0.75017838  0.74645975  1
  O  O128  1  0.11815658  0.01535813  0.16881250  1
  O  O129  1  0.12471756  0.00690385  0.40735368  1
  O  O130  1  0.12888000  -0.01028250  0.66201425  1
  O  O131  1  0.12437392  -0.00476770  0.91487256  1
  O  O132  1  0.11557341  0.23724569  0.16051175  1
  O  O133  1  0.12465459  0.25357690  0.41207754  1
  O  O134  1  0.12773934  0.26015103  0.66817263  1
  O  O135  1  0.12120228  0.24579236  0.91094400  1
  O  O136  1  0.11981333  0.49760471  0.15434784  1
  O  O137  1  0.12501423  0.50225689  0.41130171  1
  O  O138  1  0.12769416  0.49430184  0.66988559  1
  O  O139  1  0.12331684  0.50876992  0.91719722  1
  O  O140  1  0.12000585  0.75058121  0.16426496  1
  O  O141  1  0.12614198  0.74172039  0.40594873  1
  O  O142  1  0.12937927  0.75516957  0.66435199  1
  O  O143  1  0.12529144  0.75298494  0.92052267  1
  O  O144  1  0.37505508  0.01208616  0.16528609  1
  O  O145  1  0.37196112  0.00489698  0.41038908  1
  O  O146  1  0.37582853  -0.00846324  0.66256671  1
  O  O147  1  0.37921909  0.00602371  0.91737056  1
  O  O148  1  0.37542102  0.24261591  0.16010374  1
  O  O149  1  0.37255156  0.25381517  0.42015712  1
  O  O150  1  0.37613689  0.25877613  0.66865045  1
  O  O151  1  0.38152566  0.23522945  0.91283609  1
  O  O152  1  0.37648146  0.49550082  0.15232994  1
  O  O153  1  0.37290278  0.50268146  0.41204964  1
  O  O154  1  0.37610385  0.49349602  0.67055321  1
  O  O155  1  0.37298821  0.50987461  0.91559036  1
  O  O156  1  0.37705654  0.75262132  0.16021229  1
  O  O157  1  0.37151719  0.73953280  0.40566411  1
  O  O158  1  0.37443686  0.75532320  0.66413598  1
  O  O159  1  0.37259650  0.75040667  0.91872689  1
  O  O160  1  0.63066472  -0.00372978  0.16844552  1
  O  O161  1  0.62475887  0.01073141  0.41440878  1
  O  O162  1  0.62237133  0.00556847  0.65741606  1
  O  O163  1  0.62924808  0.00109802  0.91224283  1
  O  O164  1  0.63105699  0.25490997  0.16175809  1
  O  O165  1  0.62486149  0.25176358  0.41595548  1
  O  O166  1  0.62352675  0.24808430  0.66699573  1
  O  O167  1  0.63138554  0.24373164  0.90921447  1
  O  O168  1  0.62685920  0.49092772  0.15988698  1
  O  O169  1  0.62271016  0.49437789  0.41113855  1
  O  O170  1  0.62489044  0.50307146  0.66859304  1
  O  O171  1  0.62804402  0.50345819  0.91390163  1
  O  O172  1  0.62760305  0.76019708  0.16427448  1
  O  O173  1  0.62319153  0.74654446  0.41220702  1
  O  O174  1  0.62302517  0.74319551  0.65911636  1
  O  O175  1  0.62397701  0.75266375  0.92035548  1
  O  O176  1  0.86901088  -0.00263254  0.16648385  1
  O  O177  1  0.87812517  -0.00299147  0.41634800  1
  O  O178  1  0.87466357  -0.00274201  0.66031516  1
  O  O179  1  0.87508870  -0.01146554  0.90803478  1
  O  O180  1  0.86992302  0.24307536  0.15697071  1
  O  O181  1  0.87620469  0.25335376  0.42241186  1
  O  O182  1  0.87396999  0.25723293  0.66524568  1
  O  O183  1  0.87334239  0.25302216  0.90347664  1
  O  O184  1  0.87258753  0.50646415  0.15705099  1
  O  O185  1  0.87691068  0.49836991  0.41531325  1
  O  O186  1  0.87413244  0.50009987  0.67113487  1
  O  O187  1  0.87830328  0.51105809  0.91351879  1
  O  O188  1  0.87276875  0.75521272  0.16543729  1
  O  O189  1  0.87756612  0.75390881  0.41243219  1
  O  O190  1  0.87636169  0.74381282  0.66431450  1
  O  O191  1  0.88099333  0.75204987  0.91871651  1
  O  O192  1  -0.01403979  0.12118177  0.16171033  1
  O  O193  1  0.00771690  0.12903747  0.41627331  1
  O  O194  1  0.00173174  0.12666047  0.66486139  1
  O  O195  1  -0.00388155  0.12040839  0.91011692  1
  O  O196  1  -0.00389794  0.37116910  0.15995467  1
  O  O197  1  0.01021826  0.37760741  0.41610418  1
  O  O198  1  0.00218422  0.37867545  0.66563890  1
  O  O199  1  -0.00866870  0.38034035  0.91427394  1
  O  O200  1  -0.00846497  0.62870028  0.16237985  1
  O  O201  1  0.00561032  0.62376140  0.40850610  1
  O  O202  1  -0.00049021  0.62282734  0.66598366  1
  O  O203  1  -0.00029706  0.63110334  0.91917808  1
  O  O204  1  -0.01212356  0.87958856  0.16750803  1
  O  O205  1  -0.00046336  0.87451795  0.41378536  1
  O  O206  1  0.00788600  0.87151103  0.65846739  1
  O  O207  1  -0.00071501  0.87333310  0.91592792  1
  O  O208  1  0.24838011  0.12682695  0.14895849  1
  O  O209  1  0.24150806  0.13081905  0.41356430  1
  O  O210  1  0.25406441  0.12650499  0.67198662  1
  O  O211  1  0.25461381  0.12310472  0.89938958  1
  O  O212  1  0.24787006  0.36716189  0.15077562  1
  O  O213  1  0.24088925  0.37830468  0.41331076  1
  O  O214  1  0.25215470  0.37687808  0.66745391  1
  O  O215  1  0.25114849  0.37446987  0.91488456  1
  O  O216  1  0.24935993  0.62442129  0.15889886  1
  O  O217  1  0.24874868  0.62068172  0.40927498  1
  O  O218  1  0.25125687  0.62305256  0.67311014  1
  O  O219  1  0.24660461  0.62990782  0.91790232  1
  O  O220  1  0.24913044  0.88391738  0.16475254  1
  O  O221  1  0.24725329  0.87422431  0.41082938  1
  O  O222  1  0.25254719  0.87347741  0.66244173  1
  O  O223  1  0.25076657  0.87684527  0.91941452  1
  O  O224  1  0.50180121  0.12751494  0.15643229  1
  O  O225  1  0.50657819  0.13085166  0.41309798  1
  O  O226  1  0.50461915  0.12664963  0.66577983  1
  O  O227  1  0.50883175  0.12152453  0.91168717  1
  O  O228  1  0.50735403  0.36952959  0.15424142  1
  O  O229  1  0.50482640  0.37424344  0.41421614  1
  O  O230  1  0.49736564  0.37672178  0.66933296  1
  O  O231  1  0.50651635  0.37375793  0.91755984  1
  O  O232  1  0.50037778  0.62569924  0.16216455  1
  O  O233  1  0.49353583  0.62083544  0.40621710  1
  O  O234  1  0.50374206  0.62251873  0.66411604  1
  O  O235  1  0.49516256  0.62931416  0.91344352  1
  O  O236  1  0.50818284  0.88144553  0.16254565  1
  O  O237  1  0.49363096  0.87517505  0.41484697  1
  O  O238  1  0.49527465  0.87292991  0.65831562  1
  O  O239  1  0.49635786  0.87676584  0.91814123  1
  O  O240  1  0.75552632  0.12205358  0.16986174  1
  O  O241  1  0.74328725  0.12901530  0.41696381  1
  O  O242  1  0.74126270  0.12716934  0.66234541  1
  O  O243  1  0.74880305  0.12123685  0.91229732  1
  O  O244  1  0.74705510  0.37514674  0.16223763  1
  O  O245  1  0.74182119  0.37422612  0.41383001  1
  O  O246  1  0.74968374  0.37745801  0.66814904  1
  O  O247  1  0.75711323  0.38188896  0.91074596  1
  O  O248  1  0.75514173  0.62928035  0.16525174  1
  O  O249  1  0.74948635  0.62330159  0.41261809  1
  O  O250  1  0.74686318  0.62298516  0.66415940  1
  O  O251  1  0.76063437  0.63166258  0.91395464  1
  O  O252  1  0.75201714  0.87598945  0.17010904  1
  O  O253  1  0.75671257  0.87694570  0.41433907  1
  O  O254  1  0.74725286  0.87218250  0.65608658  1
  O  O255  1  0.75787914  0.86816679  0.90698009  1
  O  O256  1  0.12079949  0.12189053  0.04346474  1
  O  O257  1  0.12369233  0.12785748  0.29734376  1
  O  O258  1  0.13080315  0.13046039  0.54251551  1
  O  O259  1  0.12110806  0.12240128  0.77984192  1
  O  O260  1  0.11721692  0.36651430  0.02543799  1
  O  O261  1  0.12341229  0.37200844  0.29655589  1
  O  O262  1  0.12425791  0.37768100  0.55402909  1
  O  O263  1  0.12484749  0.38240376  0.79252699  1
  O  O264  1  0.12380305  0.63564061  0.03080346  1
  O  O265  1  0.12421089  0.61943471  0.29415521  1
  O  O266  1  0.13284283  0.62162184  0.53798759  1
  O  O267  1  0.12394981  0.62970074  0.80911063  1
  O  O268  1  0.12120471  0.88591116  0.04599584  1
  O  O269  1  0.12200751  0.87983748  0.27800856  1
  O  O270  1  0.12631190  0.87145309  0.54536107  1
  O  O271  1  0.12557447  0.87277495  0.79986612  1
  O  O272  1  0.38273410  0.12104260  0.04566611  1
  O  O273  1  0.37427539  0.13994756  0.28515660  1
  O  O274  1  0.37026898  0.13070934  0.53879918  1
  O  O275  1  0.38050344  0.11833762  0.79541212  1
  O  O276  1  0.37647242  0.36718715  0.02358689  1
  O  O277  1  0.37396629  0.36299359  0.28466524  1
  O  O278  1  0.37464840  0.37837426  0.55335389  1
  O  O279  1  0.38338490  0.37781234  0.79647359  1
  O  O280  1  0.37151277  0.63047140  0.02862491  1
  O  O281  1  0.37336277  0.61839375  0.29306582  1
  O  O282  1  0.37125171  0.61774102  0.53818799  1
  O  O283  1  0.37185874  0.63079079  0.80606053  1
  O  O284  1  0.37469019  0.88833936  0.03925326  1
  O  O285  1  0.37781846  0.88434319  0.27929516  1
  O  O286  1  0.37231232  0.87307800  0.54554142  1
  O  O287  1  0.37506810  0.87605893  0.80377201  1
  O  O288  1  0.63968501  0.12342970  0.03740900  1
  O  O289  1  0.62706620  0.12819817  0.29827798  1
  O  O290  1  0.61970834  0.13075447  0.54774651  1
  O  O291  1  0.62524989  0.12086471  0.79707080  1
  O  O292  1  0.63324563  0.37064423  0.04283066  1
  O  O293  1  0.62325791  0.37313300  0.29788380  1
  O  O294  1  0.62253089  0.37722132  0.55519883  1
  O  O295  1  0.61970234  0.37901344  0.78246204  1
  O  O296  1  0.62779766  0.62914790  0.03948222  1
  O  O297  1  0.63275325  0.62409878  0.27805494  1
  O  O298  1  0.62098562  0.61814127  0.55004664  1
  O  O299  1  0.62767202  0.63391612  0.78724391  1
  O  O300  1  0.63156803  0.87991038  0.05118706  1
  O  O301  1  0.62226064  0.88504142  0.29324153  1
  O  O302  1  0.62559116  0.87562511  0.52660413  1
  O  O303  1  0.61730682  0.86934956  0.78442917  1
  O  O304  1  0.86749520  0.11826964  0.04699378  1
  O  O305  1  0.87708910  0.13148426  0.29353674  1
  O  O306  1  0.88169590  0.12738322  0.53672189  1
  O  O307  1  0.87249069  0.12351191  0.77867625  1
  O  O308  1  0.87392798  0.38122860  0.03025880  1
  O  O309  1  0.87810088  0.36738274  0.28611071  1
  O  O310  1  0.87475470  0.37995090  0.54941809  1
  O  O311  1  0.87767833  0.38009092  0.79999790  1
  O  O312  1  0.87264817  0.63114597  0.04991244  1
  O  O313  1  0.86911214  0.62588000  0.28223271  1
  O  O314  1  0.87681630  0.62128223  0.54747059  1
  O  O315  1  0.88195926  0.63118017  0.80112730  1
  O  O316  1  0.87091206  0.87575239  0.05163533  1
  O  O317  1  0.87722075  0.87729167  0.30173141  1
  O  O318  1  0.88109564  0.87321476  0.53165165  1
  O  O319  1  0.87996212  0.86646400  0.79615507  1
