# generated using pymatgen
data_VFe(PbO3)2
_symmetry_space_group_name_H-M   'P 1'
_cell_length_a   15.36749817
_cell_length_b   15.38990728
_cell_length_c   18.50023376
_cell_angle_alpha   89.95064511
_cell_angle_beta   89.96584163
_cell_angle_gamma   90.00069427
_symmetry_Int_Tables_number   1
_chemical_formula_structural   VFe(PbO3)2
_chemical_formula_sum   'V32 Fe32 Pb64 O192'
_cell_volume   4375.38376583
_cell_formula_units_Z   32
loop_
 _symmetry_equiv_pos_site_id
 _symmetry_equiv_pos_as_xyz
  1  'x, y, z'
loop_
 _atom_site_type_symbol
 _atom_site_label
 _atom_site_symmetry_multiplicity
 _atom_site_fract_x
 _atom_site_fract_y
 _atom_site_fract_z
 _atom_site_occupancy
  V  V0  1  0.12555941  0.62665677  0.39002088  1
  V  V1  1  0.37007067  0.37669739  0.38948782  1
  V  V2  1  0.12493636  0.12373267  0.39372103  1
  V  V3  1  0.37467522  0.62191068  0.64124596  1
  V  V4  1  0.12558823  0.87286699  0.63643257  1
  V  V5  1  0.62296204  0.37555215  0.64758790  1
  V  V6  1  0.87435534  0.62538160  0.38579907  1
  V  V7  1  0.61925208  0.87582934  0.89406992  1
  V  V8  1  0.37490061  0.62512978  0.89296295  1
  V  V9  1  0.87454487  0.87377022  0.89007495  1
  V  V10  1  0.12491871  0.37380971  0.13561639  1
  V  V11  1  0.37456722  0.37347508  0.13765054  1
  V  V12  1  0.37316757  0.37044916  0.88532559  1
  V  V13  1  0.12066491  0.87543482  0.89484386  1
  V  V14  1  0.62553230  0.37423616  0.38978863  1
  V  V15  1  0.36826341  0.87478544  0.89296771  1
  V  V16  1  0.87339247  0.12018572  0.88750418  1
  V  V17  1  0.87264244  0.37578867  0.64480620  1
  V  V18  1  0.87547991  0.62336391  0.89403381  1
  V  V19  1  0.62691750  0.12472144  0.64015784  1
  V  V20  1  0.62580938  0.12798612  0.13842595  1
  V  V21  1  0.12444863  0.87616426  0.38936271  1
  V  V22  1  0.87826085  0.87415027  0.39357592  1
  V  V23  1  0.37659993  0.37646408  0.64136135  1
  V  V24  1  0.62559980  0.62211868  0.64198323  1
  V  V25  1  0.62645672  0.87618426  0.39073022  1
  V  V26  1  0.62053644  0.37400978  0.13401432  1
  V  V27  1  0.12522242  0.12577714  0.88707483  1
  V  V28  1  0.87303816  0.12493483  0.39521082  1
  V  V29  1  0.87350462  0.62333580  0.64285942  1
  V  V30  1  0.37271660  0.87400145  0.39167025  1
  V  V31  1  0.87224962  0.87824854  0.13661781  1
  Fe  Fe32  1  0.37531595  0.12872195  0.13467346  1
  Fe  Fe33  1  0.12312541  0.62402286  0.63748813  1
  Fe  Fe34  1  0.37514649  0.62291131  0.13430011  1
  Fe  Fe35  1  0.12533347  0.62860884  0.89442650  1
  Fe  Fe36  1  0.37422513  0.11981185  0.88169241  1
  Fe  Fe37  1  0.62348826  0.37280830  0.88366737  1
  Fe  Fe38  1  0.87627213  0.12703913  0.13210293  1
  Fe  Fe39  1  0.37772757  0.87785437  0.13073040  1
  Fe  Fe40  1  0.12392727  0.62362373  0.12804692  1
  Fe  Fe41  1  0.87265588  0.37127341  0.12778254  1
  Fe  Fe42  1  0.87449471  0.12564846  0.63522667  1
  Fe  Fe43  1  0.12709147  0.37460055  0.88357715  1
  Fe  Fe44  1  0.87222482  0.87054956  0.63492882  1
  Fe  Fe45  1  0.12311930  0.12733806  0.63401089  1
  Fe  Fe46  1  0.12566364  0.87801191  0.13027015  1
  Fe  Fe47  1  0.12222858  0.37426468  0.38609048  1
  Fe  Fe48  1  0.37697243  0.12529867  0.39272616  1
  Fe  Fe49  1  0.12556561  0.37899840  0.63938095  1
  Fe  Fe50  1  0.37421769  0.12501411  0.63612818  1
  Fe  Fe51  1  0.62548763  0.87831345  0.13111395  1
  Fe  Fe52  1  0.37644240  0.62398384  0.38280656  1
  Fe  Fe53  1  0.62461160  0.62746750  0.89630652  1
  Fe  Fe54  1  0.87573770  0.37660462  0.38502714  1
  Fe  Fe55  1  0.62475983  0.12382207  0.38850043  1
  Fe  Fe56  1  0.62296130  0.12333627  0.88129516  1
  Fe  Fe57  1  0.62594999  0.62587064  0.38378701  1
  Fe  Fe58  1  0.87604764  0.62155401  0.12766101  1
  Fe  Fe59  1  0.37701320  0.86946621  0.63473288  1
  Fe  Fe60  1  0.12547599  0.12743374  0.13454226  1
  Fe  Fe61  1  0.62377136  0.87115512  0.63483458  1
  Fe  Fe62  1  0.62671507  0.62384496  0.12626215  1
  Fe  Fe63  1  0.87746654  0.37247044  0.88852276  1
  Pb  Pb64  1  0.00509441  0.00565102  0.00347166  1
  Pb  Pb65  1  0.00257501  0.00524658  0.24398745  1
  Pb  Pb66  1  -0.00130830  0.00670470  0.50668159  1
  Pb  Pb67  1  -0.00358243  0.00081391  0.74263191  1
  Pb  Pb68  1  -0.00702486  0.24867997  0.00041146  1
  Pb  Pb69  1  -0.00172005  0.25751869  0.24928995  1
  Pb  Pb70  1  0.00410515  0.25033652  0.50272112  1
  Pb  Pb71  1  0.00050023  0.25702358  0.74971324  1
  Pb  Pb72  1  0.00493773  0.49699345  -0.00417319  1
  Pb  Pb73  1  -0.00214199  0.49097571  0.24450663  1
  Pb  Pb74  1  0.00685110  0.49653489  0.50179453  1
  Pb  Pb75  1  0.00185417  0.49338572  0.75769329  1
  Pb  Pb76  1  -0.00059873  0.74497587  0.00647244  1
  Pb  Pb77  1  0.00126408  0.74702984  0.23861876  1
  Pb  Pb78  1  0.00056483  0.74738080  0.50085623  1
  Pb  Pb79  1  0.00477298  0.74317402  0.75310052  1
  Pb  Pb80  1  0.24229302  0.00264265  0.00613554  1
  Pb  Pb81  1  0.25379136  0.00189849  0.24146567  1
  Pb  Pb82  1  0.25354020  0.00764879  0.50613312  1
  Pb  Pb83  1  0.25623565  0.00422705  0.74430207  1
  Pb  Pb84  1  0.25079589  0.23619399  0.00001392  1
  Pb  Pb85  1  0.25301494  0.24662087  0.25123241  1
  Pb  Pb86  1  0.24749238  0.24295340  0.50560999  1
  Pb  Pb87  1  0.24557071  0.25000804  0.74522455  1
  Pb  Pb88  1  0.24890388  0.50653639  -0.00078261  1
  Pb  Pb89  1  0.25185740  0.50422136  0.24709633  1
  Pb  Pb90  1  0.23751942  0.50051788  0.50405664  1
  Pb  Pb91  1  0.23770737  0.50269387  0.75547569  1
  Pb  Pb92  1  0.25087549  0.75161353  0.00724143  1
  Pb  Pb93  1  0.25258041  0.74947843  0.23737059  1
  Pb  Pb94  1  0.25304951  0.75113789  0.50041817  1
  Pb  Pb95  1  0.24314419  0.74440854  0.75291792  1
  Pb  Pb96  1  0.49521999  -0.00299007  0.00151707  1
  Pb  Pb97  1  0.49645330  0.00537600  0.24750325  1
  Pb  Pb98  1  0.49826197  -0.00671584  0.50315100  1
  Pb  Pb99  1  0.49617808  0.00406753  0.74644248  1
  Pb  Pb100  1  0.49757372  0.23954298  -0.00711819  1
  Pb  Pb101  1  0.50119313  0.23997259  0.25601806  1
  Pb  Pb102  1  0.49771124  0.24583970  0.50132983  1
  Pb  Pb103  1  0.50403698  0.24170303  0.75466734  1
  Pb  Pb104  1  0.50049319  0.50560498  -0.00136602  1
  Pb  Pb105  1  0.50372401  0.51278466  0.24923192  1
  Pb  Pb106  1  0.49977868  0.50329996  0.49666009  1
  Pb  Pb107  1  0.50761937  0.50195521  0.75835790  1
  Pb  Pb108  1  0.49051368  0.75191729  0.00918999  1
  Pb  Pb109  1  0.50072987  0.74708487  0.23839641  1
  Pb  Pb110  1  0.50090727  0.75497721  0.50046710  1
  Pb  Pb111  1  0.50447037  0.74553350  0.75241271  1
  Pb  Pb112  1  0.74646144  -0.00234846  0.00102908  1
  Pb  Pb113  1  0.74462452  0.00523962  0.24943992  1
  Pb  Pb114  1  0.75463498  -0.00668863  0.50638189  1
  Pb  Pb115  1  0.74864046  -0.00322639  0.74523619  1
  Pb  Pb116  1  0.75530326  0.25184929  -0.00560895  1
  Pb  Pb117  1  0.75531171  0.25462029  0.24744363  1
  Pb  Pb118  1  0.75361969  0.24631495  0.50258150  1
  Pb  Pb119  1  0.74562260  0.25316609  0.75667475  1
  Pb  Pb120  1  0.74616870  0.49827711  -0.00432144  1
  Pb  Pb121  1  0.75302691  0.50037820  0.23998513  1
  Pb  Pb122  1  0.75282721  0.50188021  0.49656762  1
  Pb  Pb123  1  0.74936699  0.49299797  0.76143596  1
  Pb  Pb124  1  0.74755248  0.74685285  0.00588340  1
  Pb  Pb125  1  0.74171524  0.74204839  0.24158554  1
  Pb  Pb126  1  0.74918981  0.75694542  0.50190523  1
  Pb  Pb127  1  0.74374992  0.74343372  0.75438901  1
  O  O128  1  0.12453268  0.00113372  0.16549135  1
  O  O129  1  0.12502396  0.00071201  0.41762327  1
  O  O130  1  0.12435572  -0.00984744  0.65795380  1
  O  O131  1  0.12542302  0.00166873  0.91553245  1
  O  O132  1  0.12840213  0.25836261  0.16313974  1
  O  O133  1  0.12327219  0.24276971  0.41337873  1
  O  O134  1  0.12527104  0.25363060  0.66233157  1
  O  O135  1  0.12865062  0.24187941  0.90614574  1
  O  O136  1  0.12693548  0.49111744  0.15910029  1
  O  O137  1  0.12346610  0.50763119  0.41205259  1
  O  O138  1  0.12399224  0.50242327  0.67019816  1
  O  O139  1  0.12698812  0.50105516  0.91224193  1
  O  O140  1  0.12296464  0.75131088  0.15675547  1
  O  O141  1  0.12434945  0.74955383  0.41580361  1
  O  O142  1  0.12427648  0.75109612  0.66631696  1
  O  O143  1  0.12380472  0.75705383  0.91875407  1
  O  O144  1  0.37749312  0.00405649  0.16092702  1
  O  O145  1  0.37437849  -0.00727141  0.41574069  1
  O  O146  1  0.37511022  -0.00297127  0.65929612  1
  O  O147  1  0.37641792  -0.00877420  0.91090342  1
  O  O148  1  0.37795073  0.25816834  0.16730268  1
  O  O149  1  0.37572525  0.26008952  0.41819720  1
  O  O150  1  0.37626220  0.25943909  0.65995848  1
  O  O151  1  0.37267826  0.25332374  0.90304262  1
  O  O152  1  0.37759289  0.48902392  0.16302680  1
  O  O153  1  0.37764816  0.49337263  0.41541259  1
  O  O154  1  0.37864995  0.50446741  0.67021942  1
  O  O155  1  0.37419684  0.50514763  0.91049019  1
  O  O156  1  0.37655989  0.75002199  0.15904409  1
  O  O157  1  0.37472351  0.75375846  0.41254827  1
  O  O158  1  0.37663049  0.73888468  0.66598430  1
  O  O159  1  0.37667744  0.75330779  0.91728774  1
  O  O160  1  0.62622254  0.00937432  0.16215867  1
  O  O161  1  0.62506605  -0.00671847  0.41754018  1
  O  O162  1  0.62520968  0.00684404  0.65682735  1
  O  O163  1  0.62697275  -0.00485435  0.91469426  1
  O  O164  1  0.62373853  0.24943178  0.16295120  1
  O  O165  1  0.62648696  0.25610523  0.41714292  1
  O  O166  1  0.62473912  0.25016298  0.66758208  1
  O  O167  1  0.62212371  0.24762847  0.91044294  1
  O  O168  1  0.62539254  0.49080447  0.15476280  1
  O  O169  1  0.62674871  0.49307152  0.41530317  1
  O  O170  1  0.62514563  0.50064807  0.67276758  1
  O  O171  1  0.62349767  0.49857305  0.91292376  1
  O  O172  1  0.62781978  0.75064224  0.15463577  1
  O  O173  1  0.62541375  0.75739763  0.41079257  1
  O  O174  1  0.62598877  0.74202669  0.66653935  1
  O  O175  1  0.63108978  0.76057891  0.91592966  1
  O  O176  1  0.87248474  -0.00190970  0.16368743  1
  O  O177  1  0.87605111  0.00173397  0.41886774  1
  O  O178  1  0.87347287  -0.00237780  0.66326994  1
  O  O179  1  0.87882224  0.00142283  0.91390658  1
  O  O180  1  0.87351433  0.25067133  0.16570062  1
  O  O181  1  0.87635022  0.24330569  0.41534296  1
  O  O182  1  0.87183226  0.25795790  0.66363076  1
  O  O183  1  0.87955635  0.23851791  0.90770254  1
  O  O184  1  0.87343610  0.49509762  0.15509080  1
  O  O185  1  0.87474079  0.50522087  0.41373607  1
  O  O186  1  0.87122104  0.50109623  0.67073667  1
  O  O187  1  0.87653946  0.50632374  0.90860424  1
  O  O188  1  0.87267993  0.75896406  0.15888723  1
  O  O189  1  0.87656424  0.74927755  0.41705865  1
  O  O190  1  0.87167930  0.74071321  0.66537171  1
  O  O191  1  0.87497054  0.75854351  0.91460684  1
  O  O192  1  0.00067124  0.12735703  0.16450736  1
  O  O193  1  0.00042680  0.12163628  0.41739595  1
  O  O194  1  -0.00097608  0.12506380  0.66533699  1
  O  O195  1  0.00422467  0.12087746  0.90995242  1
  O  O196  1  0.00614277  0.37305503  0.15446911  1
  O  O197  1  -0.00142069  0.37451973  0.41858672  1
  O  O198  1  -0.00828470  0.37965554  0.66352020  1
  O  O199  1  0.00369947  0.37269692  0.91373407  1
  O  O200  1  -0.00044298  0.62406263  0.16012375  1
  O  O201  1  0.00206509  0.62840980  0.41474214  1
  O  O202  1  -0.00880739  0.62303091  0.66559218  1
  O  O203  1  -0.00641489  0.63249278  0.91511867  1
  O  O204  1  -0.00849406  0.87822273  0.16000996  1
  O  O205  1  0.00249963  0.87495415  0.41968897  1
  O  O206  1  0.00524499  0.86922921  0.66079419  1
  O  O207  1  -0.00564023  0.87897376  0.91638248  1
  O  O208  1  0.25033404  0.13128894  0.16683964  1
  O  O209  1  0.24524636  0.12412722  0.41487913  1
  O  O210  1  0.24799051  0.12493114  0.66404857  1
  O  O211  1  0.24585554  0.12023507  0.90954081  1
  O  O212  1  0.25460568  0.37401664  0.16057422  1
  O  O213  1  0.25350513  0.37715473  0.40963603  1
  O  O214  1  0.25965598  0.38212673  0.66378055  1
  O  O215  1  0.25802972  0.37834494  0.91254283  1
  O  O216  1  0.24834082  0.61966441  0.16093713  1
  O  O217  1  0.24491596  0.62652772  0.41099202  1
  O  O218  1  0.25646074  0.62303321  0.66355179  1
  O  O219  1  0.25727092  0.63175835  0.91576312  1
  O  O220  1  0.25153998  0.87635882  0.16070473  1
  O  O221  1  0.25103205  0.87318219  0.41516547  1
  O  O222  1  0.24385312  0.86913823  0.66251261  1
  O  O223  1  0.25234093  0.87347956  0.91245269  1
  O  O224  1  0.50576114  0.12941592  0.16360413  1
  O  O225  1  0.50169051  0.12546655  0.42193962  1
  O  O226  1  0.50507533  0.12857053  0.65914038  1
  O  O227  1  0.49773787  0.12087458  0.91213242  1
  O  O228  1  0.50319058  0.37195733  0.16129142  1
  O  O229  1  0.50394762  0.37492942  0.41463858  1
  O  O230  1  0.49637496  0.37973409  0.66881949  1
  O  O231  1  0.48864902  0.37800670  0.91243043  1
  O  O232  1  0.50261335  0.61988998  0.15723237  1
  O  O233  1  0.50112455  0.62377101  0.41492840  1
  O  O234  1  0.49977017  0.62231549  0.66748201  1
  O  O235  1  0.49306319  0.63004081  0.91585784  1
  O  O236  1  0.50274972  0.87835377  0.16330660  1
  O  O237  1  0.49955342  0.87467757  0.41250124  1
  O  O238  1  0.50127524  0.87050579  0.66675045  1
  O  O239  1  0.50169349  0.87426259  0.91179339  1
  O  O240  1  0.74462055  0.12805328  0.16200031  1
  O  O241  1  0.75428765  0.12315233  0.41634750  1
  O  O242  1  0.74543486  0.12891995  0.66476012  1
  O  O243  1  0.75619936  0.12100842  0.90587539  1
  O  O244  1  0.73986094  0.36969120  0.15832494  1
  O  O245  1  0.74650463  0.37393744  0.41521814  1
  O  O246  1  0.75104467  0.37793660  0.67111269  1
  O  O247  1  0.75048937  0.37205278  0.91059192  1
  O  O248  1  0.75131221  0.62315548  0.15911424  1
  O  O249  1  0.75284139  0.62674169  0.41428168  1
  O  O250  1  0.75187144  0.62099989  0.67011782  1
  O  O251  1  0.75758519  0.63096690  0.91401124  1
  O  O252  1  0.75408586  0.87979524  0.16540337  1
  O  O253  1  0.74856291  0.87538394  0.41465059  1
  O  O254  1  0.74720363  0.87227791  0.66816734  1
  O  O255  1  0.75726393  0.88137765  0.91377303  1
  O  O256  1  0.13298045  0.12314680  0.03371288  1
  O  O257  1  0.12197517  0.12192554  0.30286253  1
  O  O258  1  0.12594554  0.12529675  0.53331537  1
  O  O259  1  0.12481720  0.12084838  0.79583492  1
  O  O260  1  0.12960342  0.37282273  0.04430023  1
  O  O261  1  0.11629403  0.37635648  0.28686654  1
  O  O262  1  0.12536242  0.38670488  0.53759858  1
  O  O263  1  0.12454417  0.37693873  0.78247112  1
  O  O264  1  0.12523711  0.62387345  0.02678784  1
  O  O265  1  0.12217801  0.62812790  0.29935146  1
  O  O266  1  0.12501648  0.62067136  0.53760086  1
  O  O267  1  0.12699744  0.63474604  0.79233809  1
  O  O268  1  0.12648917  0.88684133  0.02997649  1
  O  O269  1  0.12342276  0.87554467  0.29886962  1
  O  O270  1  0.12743336  0.86841896  0.54517825  1
  O  O271  1  0.12202079  0.87539639  0.80343995  1
  O  O272  1  0.37253219  0.13340273  0.03402702  1
  O  O273  1  0.38112411  0.13321570  0.29264306  1
  O  O274  1  0.36454342  0.12935671  0.53417710  1
  O  O275  1  0.37766606  0.11740003  0.78086300  1
  O  O276  1  0.37494783  0.37213206  0.04685798  1
  O  O277  1  0.37553947  0.37579475  0.29860392  1
  O  O278  1  0.37872170  0.38254811  0.55045446  1
  O  O279  1  0.37416177  0.37696940  0.79443121  1
  O  O280  1  0.37450000  0.62581931  0.03341155  1
  O  O281  1  0.37783510  0.61611798  0.28330340  1
  O  O282  1  0.37722425  0.61992005  0.54997378  1
  O  O283  1  0.37439841  0.62885257  0.80166889  1
  O  O284  1  0.38175027  0.87330860  0.02929409  1
  O  O285  1  0.37329947  0.87496096  0.30119784  1
  O  O286  1  0.37901663  0.86464054  0.53457524  1
  O  O287  1  0.37272804  0.87047516  0.80188570  1
  O  O288  1  0.62369773  0.12855675  0.04715969  1
  O  O289  1  0.62193655  0.12427496  0.28926123  1
  O  O290  1  0.63047322  0.13203479  0.54888520  1
  O  O291  1  0.61914393  0.12514084  0.78131285  1
  O  O292  1  0.61989602  0.37042450  0.04298132  1
  O  O293  1  0.62567742  0.37499973  0.29901847  1
  O  O294  1  0.62557488  0.37668450  0.55664280  1
  O  O295  1  0.62474049  0.37384139  0.78238131  1
  O  O296  1  0.63009547  0.62217895  0.02425633  1
  O  O297  1  0.62656418  0.62083247  0.28434544  1
  O  O298  1  0.62683153  0.62042713  0.55079186  1
  O  O299  1  0.62252118  0.63205989  0.79514093  1
  O  O300  1  0.62952386  0.88481780  0.03119180  1
  O  O301  1  0.62841443  0.88069311  0.29992297  1
  O  O302  1  0.62379914  0.86903200  0.53442794  1
  O  O303  1  0.62432702  0.87616067  0.80260684  1
  O  O304  1  0.87956079  0.13043444  0.03216618  1
  O  O305  1  0.87495858  0.12291649  0.30425744  1
  O  O306  1  0.87558307  0.12565571  0.53535190  1
  O  O307  1  0.87821125  0.11776694  0.79623902  1
  O  O308  1  0.87475434  0.36084816  0.02688558  1
  O  O309  1  0.87879863  0.37292330  0.28531542  1
  O  O310  1  0.86818546  0.38042902  0.55362815  1
  O  O311  1  0.87807359  0.37591229  0.78727867  1
  O  O312  1  0.87618292  0.63388499  0.02792293  1
  O  O313  1  0.87517599  0.62610401  0.29476047  1
  O  O314  1  0.87117749  0.62020650  0.55194684  1
  O  O315  1  0.87640190  0.63108814  0.80238287  1
  O  O316  1  0.86959200  0.88094087  0.04532337  1
  O  O317  1  0.87826654  0.87605907  0.30322196  1
  O  O318  1  0.86604132  0.87077321  0.53450800  1
  O  O319  1  0.87536102  0.87382599  0.79895355  1
