# generated using pymatgen
data_VFe(PbO3)2
_symmetry_space_group_name_H-M   'P 1'
_cell_length_a   15.38432073
_cell_length_b   15.39082698
_cell_length_c   18.48463952
_cell_angle_alpha   90.00336629
_cell_angle_beta   90.03091391
_cell_angle_gamma   90.00535326
_symmetry_Int_Tables_number   1
_chemical_formula_structural   VFe(PbO3)2
_chemical_formula_sum   'V32 Fe32 Pb64 O192'
_cell_volume   4376.74456382
_cell_formula_units_Z   32
loop_
 _symmetry_equiv_pos_site_id
 _symmetry_equiv_pos_as_xyz
  1  'x, y, z'
loop_
 _atom_site_type_symbol
 _atom_site_label
 _atom_site_symmetry_multiplicity
 _atom_site_fract_x
 _atom_site_fract_y
 _atom_site_fract_z
 _atom_site_occupancy
  V  V0  1  0.37644231  0.87394268  0.63820506  1
  V  V1  1  0.37688979  0.62635265  0.39126498  1
  V  V2  1  0.12797925  0.88480352  0.88746538  1
  V  V3  1  0.37626065  0.37236680  0.40264738  1
  V  V4  1  0.37303939  0.12708128  0.88727158  1
  V  V5  1  0.12327756  0.36961976  0.63537766  1
  V  V6  1  0.62522280  0.12692856  0.88491423  1
  V  V7  1  0.12646786  0.87067171  0.64196274  1
  V  V8  1  0.62449131  0.87372742  0.38910592  1
  V  V9  1  0.87674431  0.37452408  0.13983538  1
  V  V10  1  0.87473131  0.12579629  0.64284849  1
  V  V11  1  0.12721585  0.62727071  0.88999883  1
  V  V12  1  0.62431877  0.37470123  0.14018662  1
  V  V13  1  0.12317328  0.87427965  0.13522877  1
  V  V14  1  0.87440778  0.87578892  0.38858320  1
  V  V15  1  0.87273075  0.12315450  0.39188962  1
  V  V16  1  0.62289719  0.62239053  0.88477862  1
  V  V17  1  0.12550558  0.37634269  0.39287948  1
  V  V18  1  0.37124903  0.37317058  0.14183641  1
  V  V19  1  0.37592985  0.12115096  0.39633240  1
  V  V20  1  0.12742064  0.87351536  0.38815907  1
  V  V21  1  0.87362540  0.62780280  0.64670918  1
  V  V22  1  0.62880716  0.62574072  0.39225436  1
  V  V23  1  0.87801868  0.87545227  0.64651477  1
  V  V24  1  0.87291061  0.62322112  0.13503416  1
  V  V25  1  0.87440618  0.62747259  0.39094509  1
  V  V26  1  0.37572553  0.37720390  0.88396747  1
  V  V27  1  0.12577383  0.12671757  0.14187341  1
  V  V28  1  0.62290389  0.63083041  0.64040492  1
  V  V29  1  0.62707578  0.12407324  0.39635425  1
  V  V30  1  0.12634574  0.37442567  0.88657251  1
  V  V31  1  0.12228901  0.62596342  0.63992028  1
  Fe  Fe32  1  0.12562274  0.62036915  0.13794761  1
  Fe  Fe33  1  0.87781947  0.87337079  0.89419280  1
  Fe  Fe34  1  0.12923335  0.12912256  0.87831468  1
  Fe  Fe35  1  0.37412644  0.87687228  0.12910532  1
  Fe  Fe36  1  0.87454165  0.37382836  0.39055964  1
  Fe  Fe37  1  0.37322673  0.87456706  0.89647425  1
  Fe  Fe38  1  0.62768212  0.87460906  0.12369770  1
  Fe  Fe39  1  0.37042379  0.37801458  0.62665277  1
  Fe  Fe40  1  0.62616233  0.12739794  0.13114414  1
  Fe  Fe41  1  0.87939391  0.37667863  0.64653471  1
  Fe  Fe42  1  0.37407574  0.12297508  0.63019865  1
  Fe  Fe43  1  0.12217992  0.12634856  0.39386061  1
  Fe  Fe44  1  0.62765459  0.87345608  0.64537701  1
  Fe  Fe45  1  0.62513101  0.12028877  0.63350202  1
  Fe  Fe46  1  0.12285930  0.62516519  0.38396309  1
  Fe  Fe47  1  0.87875039  0.87660193  0.12613132  1
  Fe  Fe48  1  0.62545882  0.37662702  0.63602331  1
  Fe  Fe49  1  0.61934869  0.37374888  0.87524706  1
  Fe  Fe50  1  0.87172578  0.37585356  0.87481252  1
  Fe  Fe51  1  0.37329045  0.62238950  0.88557284  1
  Fe  Fe52  1  0.62255852  0.87491192  0.88940768  1
  Fe  Fe53  1  0.62652177  0.37620183  0.39861751  1
  Fe  Fe54  1  0.37355518  0.62986285  0.64035563  1
  Fe  Fe55  1  0.37768784  0.62058478  0.13284472  1
  Fe  Fe56  1  0.12306927  0.11754079  0.63832595  1
  Fe  Fe57  1  0.87587045  0.62150207  0.88256637  1
  Fe  Fe58  1  0.12451686  0.37315713  0.13400999  1
  Fe  Fe59  1  0.37647382  0.87510641  0.38329777  1
  Fe  Fe60  1  0.62568335  0.62035614  0.13202819  1
  Fe  Fe61  1  0.87757869  0.12726214  0.88556869  1
  Fe  Fe62  1  0.87404028  0.12851415  0.13025752  1
  Fe  Fe63  1  0.37620894  0.12896787  0.13740023  1
  Pb  Pb64  1  -0.01040013  0.00903064  -0.00218974  1
  Pb  Pb65  1  -0.00009708  0.00487121  0.24635173  1
  Pb  Pb66  1  0.00262363  0.00316424  0.50318668  1
  Pb  Pb67  1  -0.00900233  0.00055694  0.75962805  1
  Pb  Pb68  1  -0.00494625  0.24789589  -0.00661807  1
  Pb  Pb69  1  0.00275139  0.24609073  0.25404366  1
  Pb  Pb70  1  -0.00389106  0.25262324  0.50459152  1
  Pb  Pb71  1  -0.00448433  0.23707679  0.75632668  1
  Pb  Pb72  1  0.00835715  0.49603305  -0.00163064  1
  Pb  Pb73  1  0.00206748  0.50014584  0.25025299  1
  Pb  Pb74  1  -0.00510613  0.49445991  0.50428615  1
  Pb  Pb75  1  -0.00436746  0.50296179  0.75396477  1
  Pb  Pb76  1  -0.00177463  0.74734332  -0.00205470  1
  Pb  Pb77  1  0.00462262  0.74405996  0.24619918  1
  Pb  Pb78  1  -0.00019822  0.75210864  0.49956202  1
  Pb  Pb79  1  -0.00661573  0.75289106  0.76076787  1
  Pb  Pb80  1  0.26241597  0.00550407  0.00447601  1
  Pb  Pb81  1  0.25746675  -0.00480828  0.25029507  1
  Pb  Pb82  1  0.24792426  0.00671846  0.50395551  1
  Pb  Pb83  1  0.24996514  0.00001846  0.74910822  1
  Pb  Pb84  1  0.25225897  0.25362772  -0.00109254  1
  Pb  Pb85  1  0.24319502  0.24403127  0.25778222  1
  Pb  Pb86  1  0.25358909  0.24269721  0.50616268  1
  Pb  Pb87  1  0.24899201  0.24226961  0.74119789  1
  Pb  Pb88  1  0.24326091  0.50128379  0.00528194  1
  Pb  Pb89  1  0.24529644  0.50440050  0.24964587  1
  Pb  Pb90  1  0.25584043  0.50488851  0.50276588  1
  Pb  Pb91  1  0.25567881  0.50832775  0.74755563  1
  Pb  Pb92  1  0.25860360  0.74400751  0.00315912  1
  Pb  Pb93  1  0.25790503  0.75001441  0.24378931  1
  Pb  Pb94  1  0.25576068  0.74480212  0.50052115  1
  Pb  Pb95  1  0.26166587  0.75350613  0.76038361  1
  Pb  Pb96  1  0.50378429  -0.00304515  0.00015848  1
  Pb  Pb97  1  0.50172243  -0.00441401  0.23775766  1
  Pb  Pb98  1  0.50515244  0.00136376  0.50427265  1
  Pb  Pb99  1  0.50497807  -0.00178891  0.75070293  1
  Pb  Pb100  1  0.50007919  0.24064346  -0.00035039  1
  Pb  Pb101  1  0.50414291  0.24895367  0.25299165  1
  Pb  Pb102  1  0.50626765  0.24806791  0.50744294  1
  Pb  Pb103  1  0.49991731  0.25294492  0.73351860  1
  Pb  Pb104  1  0.49993100  0.50826262  -0.00005305  1
  Pb  Pb105  1  0.50595597  0.49611962  0.25243453  1
  Pb  Pb106  1  0.49894113  0.49672450  0.50723645  1
  Pb  Pb107  1  0.49862626  0.49841709  0.74178193  1
  Pb  Pb108  1  0.49921035  0.74663200  -0.00216879  1
  Pb  Pb109  1  0.49881090  0.75328273  0.23531967  1
  Pb  Pb110  1  0.49719988  0.74895144  0.50266845  1
  Pb  Pb111  1  0.49601171  0.76504471  0.76249232  1
  Pb  Pb112  1  0.74952833  -0.00536828  -0.00415631  1
  Pb  Pb113  1  0.75103838  0.00118515  0.23525448  1
  Pb  Pb114  1  0.74026077  -0.00425067  0.50716272  1
  Pb  Pb115  1  0.74925857  -0.00574769  0.75690237  1
  Pb  Pb116  1  0.74944544  0.24807560  -0.00963686  1
  Pb  Pb117  1  0.75099750  0.25611014  0.25299235  1
  Pb  Pb118  1  0.74886936  0.25736737  0.50831477  1
  Pb  Pb119  1  0.74646848  0.25704830  0.74557768  1
  Pb  Pb120  1  0.74739284  0.49704689  -0.01232246  1
  Pb  Pb121  1  0.75183576  0.48757194  0.25768573  1
  Pb  Pb122  1  0.75304795  0.49005571  0.51108865  1
  Pb  Pb123  1  0.74924106  0.49487189  0.74941455  1
  Pb  Pb124  1  0.74722275  0.75353642  -0.00573505  1
  Pb  Pb125  1  0.74746300  0.75393212  0.23782035  1
  Pb  Pb126  1  0.74361078  0.75623574  0.50582866  1
  Pb  Pb127  1  0.75549966  0.75289604  0.76044121  1
  O  O128  1  0.12319420  0.00377984  0.16354637  1
  O  O129  1  0.12081402  -0.00853578  0.41355660  1
  O  O130  1  0.12343404  -0.01276325  0.66613740  1
  O  O131  1  0.12867892  -0.00081745  0.90148406  1
  O  O132  1  0.12468868  0.24742682  0.16773968  1
  O  O133  1  0.12214207  0.25706485  0.42000381  1
  O  O134  1  0.12524997  0.25360627  0.64899138  1
  O  O135  1  0.13216645  0.25768627  0.90872624  1
  O  O136  1  0.12318987  0.49450652  0.17048974  1
  O  O137  1  0.12263068  0.49722492  0.41334196  1
  O  O138  1  0.12235020  0.51090550  0.66062671  1
  O  O139  1  0.13067069  0.49494106  0.91327332  1
  O  O140  1  0.12277247  0.75481100  0.15621391  1
  O  O141  1  0.12099627  0.75451542  0.41464747  1
  O  O142  1  0.12081749  0.75508116  0.66849895  1
  O  O143  1  0.12692080  0.74186186  0.91078358  1
  O  O144  1  0.37131301  0.00250948  0.16322255  1
  O  O145  1  0.37466405  0.00266184  0.41172885  1
  O  O146  1  0.37038924  -0.01069954  0.66153122  1
  O  O147  1  0.37037641  0.00910999  0.91087891  1
  O  O148  1  0.37739565  0.25760042  0.17240675  1
  O  O149  1  0.37475371  0.24631307  0.42159584  1
  O  O150  1  0.36864458  0.25238182  0.65058711  1
  O  O151  1  0.37298149  0.24984527  0.91157797  1
  O  O152  1  0.37862869  0.48812392  0.16884971  1
  O  O153  1  0.37583811  0.50833391  0.41660801  1
  O  O154  1  0.36909729  0.50334416  0.65988114  1
  O  O155  1  0.37509822  0.49184736  0.90616762  1
  O  O156  1  0.37134338  0.74989082  0.15641862  1
  O  O157  1  0.37572632  0.74728883  0.41518818  1
  O  O158  1  0.37180180  0.75772860  0.66767106  1
  O  O159  1  0.37109343  0.74580141  0.91672959  1
  O  O160  1  0.62659106  -0.00011451  0.15770353  1
  O  O161  1  0.62689992  -0.00256949  0.41762266  1
  O  O162  1  0.62777861  -0.00174738  0.67077966  1
  O  O163  1  0.62065050  0.01045121  0.90902655  1
  O  O164  1  0.62689502  0.25910308  0.16671393  1
  O  O165  1  0.62633687  0.24485801  0.42147592  1
  O  O166  1  0.62718414  0.24711645  0.65565699  1
  O  O167  1  0.61791306  0.24492500  0.90794961  1
  O  O168  1  0.62678341  0.49171874  0.16748775  1
  O  O169  1  0.62573080  0.51236715  0.41914778  1
  O  O170  1  0.62824032  0.51161883  0.66192249  1
  O  O171  1  0.62097683  0.50162363  0.90674407  1
  O  O172  1  0.62844445  0.74757828  0.15726440  1
  O  O173  1  0.62551801  0.74726331  0.41862706  1
  O  O174  1  0.62870021  0.74507919  0.67016200  1
  O  O175  1  0.62236884  0.74126159  0.90802547  1
  O  O176  1  0.88029088  0.00199758  0.15833507  1
  O  O177  1  0.87441039  -0.00065936  0.41556673  1
  O  O178  1  0.87745454  -0.00428657  0.66812517  1
  O  O179  1  0.87913018  0.00182551  0.91098202  1
  O  O180  1  0.87316962  0.25747462  0.16304525  1
  O  O181  1  0.87474535  0.24185277  0.41654263  1
  O  O182  1  0.87897133  0.24329294  0.65913854  1
  O  O183  1  0.87695070  0.25419059  0.90971515  1
  O  O184  1  0.87374666  0.49665165  0.16423959  1
  O  O185  1  0.87181536  0.51120395  0.41490459  1
  O  O186  1  0.88081022  0.50769111  0.66581014  1
  O  O187  1  0.87551832  0.49728317  0.90873099  1
  O  O188  1  0.87832796  0.74179521  0.15513839  1
  O  O189  1  0.87281680  0.74948781  0.41820532  1
  O  O190  1  0.87765199  0.75434654  0.67076182  1
  O  O191  1  0.88037583  0.74414991  0.91525787  1
  O  O192  1  0.00509465  0.12928183  0.16583427  1
  O  O193  1  -0.00810889  0.12171392  0.41939906  1
  O  O194  1  -0.00442370  0.11944455  0.66454070  1
  O  O195  1  0.00733294  0.12993201  0.91095348  1
  O  O196  1  -0.00642998  0.37465138  0.16058965  1
  O  O197  1  0.00239542  0.37713353  0.41772740  1
  O  O198  1  0.01192033  0.38015321  0.66710866  1
  O  O199  1  0.00965093  0.37636772  0.90313823  1
  O  O200  1  -0.00813564  0.61940740  0.16445792  1
  O  O201  1  -0.00768309  0.62924268  0.41350398  1
  O  O202  1  0.00434809  0.63220575  0.66772738  1
  O  O203  1  0.00927891  0.61671186  0.91213942  1
  O  O204  1  0.00634435  0.87631856  0.16243795  1
  O  O205  1  -0.00121888  0.87281702  0.41665679  1
  O  O206  1  -0.00129302  0.87355636  0.66766993  1
  O  O207  1  0.01478565  0.87080174  0.91525966  1
  O  O208  1  0.24385352  0.12866968  0.16784347  1
  O  O209  1  0.25268261  0.12432818  0.41489997  1
  O  O210  1  0.24913536  0.11945249  0.66263336  1
  O  O211  1  0.25449608  0.12961417  0.91172679  1
  O  O212  1  0.25539025  0.37294719  0.16440448  1
  O  O213  1  0.24213282  0.37648294  0.41785833  1
  O  O214  1  0.23838672  0.38191522  0.65897943  1
  O  O215  1  0.25574231  0.37386932  0.91358661  1
  O  O216  1  0.25228540  0.61864903  0.16413665  1
  O  O217  1  0.25412130  0.62758725  0.41082259  1
  O  O218  1  0.23901049  0.63370775  0.66335332  1
  O  O219  1  0.24444464  0.61822920  0.91502282  1
  O  O220  1  0.23965069  0.87844621  0.16188017  1
  O  O221  1  0.24323920  0.87310060  0.41011546  1
  O  O222  1  0.24695432  0.87171307  0.66217456  1
  O  O223  1  0.23923874  0.87112187  0.91842089  1
  O  O224  1  0.50167258  0.13031533  0.16857469  1
  O  O225  1  0.49773352  0.12370739  0.41826972  1
  O  O226  1  0.49765460  0.12055055  0.65827940  1
  O  O227  1  0.49379885  0.12692934  0.91025501  1
  O  O228  1  0.50358447  0.37396851  0.16551806  1
  O  O229  1  0.49913355  0.37687872  0.42152032  1
  O  O230  1  0.49728415  0.38020260  0.65277108  1
  O  O231  1  0.49152251  0.37029278  0.90703795  1
  O  O232  1  0.50142592  0.61930494  0.16685756  1
  O  O233  1  0.50069492  0.62859914  0.41579894  1
  O  O234  1  0.50593187  0.62815317  0.65850683  1
  O  O235  1  0.50273106  0.62192583  0.90974978  1
  O  O236  1  0.50064492  0.87501904  0.15160078  1
  O  O237  1  0.50380648  0.87378457  0.41308168  1
  O  O238  1  0.49327713  0.87270585  0.66050197  1
  O  O239  1  0.49865051  0.87676644  0.91549902  1
  O  O240  1  0.75091270  0.12914238  0.16249972  1
  O  O241  1  0.75554908  0.12180000  0.41729712  1
  O  O242  1  0.75836891  0.11965722  0.66485379  1
  O  O243  1  0.74308509  0.12902401  0.90142460  1
  O  O244  1  0.74953406  0.37591352  0.16539893  1
  O  O245  1  0.75341566  0.37670782  0.42469889  1
  O  O246  1  0.75169824  0.37797178  0.66081900  1
  O  O247  1  0.74453146  0.37264685  0.90340627  1
  O  O248  1  0.75777749  0.62072355  0.16105756  1
  O  O249  1  0.74865982  0.63064043  0.41588938  1
  O  O250  1  0.75111014  0.62955013  0.66797018  1
  O  O251  1  0.74355485  0.62217432  0.90587626  1
  O  O252  1  0.75498419  0.87319313  0.15644981  1
  O  O253  1  0.75027904  0.87295131  0.41789288  1
  O  O254  1  0.75943383  0.87361243  0.67048165  1
  O  O255  1  0.74916280  0.87446262  0.90868976  1
  O  O256  1  0.12646841  0.12803147  0.05103762  1
  O  O257  1  0.11913009  0.13487725  0.29402716  1
  O  O258  1  0.12470288  0.11193401  0.53584584  1
  O  O259  1  0.12835020  0.13191390  0.77750636  1
  O  O260  1  0.12843237  0.37854534  0.03456527  1
  O  O261  1  0.12452008  0.37149446  0.30132757  1
  O  O262  1  0.11759576  0.38176278  0.54416286  1
  O  O263  1  0.13207352  0.37702105  0.79569251  1
  O  O264  1  0.12446334  0.61027949  0.03775720  1
  O  O265  1  0.11764645  0.62611831  0.28421934  1
  O  O266  1  0.12026992  0.63033853  0.54818082  1
  O  O267  1  0.12823808  0.62392046  0.79844953  1
  O  O268  1  0.12335425  0.88049151  0.04503855  1
  O  O269  1  0.12294166  0.87239644  0.29702113  1
  O  O270  1  0.12326078  0.86943732  0.55065807  1
  O  O271  1  0.12942394  0.87379066  0.79593601  1
  O  O272  1  0.37196330  0.13062564  0.03759321  1
  O  O273  1  0.37625471  0.12893483  0.30513819  1
  O  O274  1  0.36774501  0.11608215  0.52975593  1
  O  O275  1  0.37234778  0.12860194  0.79582607  1
  O  O276  1  0.37405836  0.37149146  0.05064591  1
  O  O277  1  0.37223716  0.37429892  0.31131791  1
  O  O278  1  0.36671619  0.38566425  0.52479951  1
  O  O279  1  0.37110515  0.37430955  0.79254996  1
  O  O280  1  0.38006090  0.61593705  0.03221103  1
  O  O281  1  0.37911278  0.62617625  0.30038691  1
  O  O282  1  0.36994600  0.63481566  0.53930181  1
  O  O283  1  0.36553618  0.62746152  0.78378959  1
  O  O284  1  0.36495839  0.88205821  0.02765052  1
  O  O285  1  0.36840156  0.87384799  0.28417397  1
  O  O286  1  0.37343655  0.87019466  0.54651144  1
  O  O287  1  0.37243297  0.86911674  0.79399265  1
  O  O288  1  0.62044904  0.13272029  0.03112672  1
  O  O289  1  0.62650943  0.12368716  0.30529351  1
  O  O290  1  0.62520258  0.11185122  0.53217566  1
  O  O291  1  0.61772292  0.12587075  0.79352607  1
  O  O292  1  0.62414813  0.37441649  0.04937180  1
  O  O293  1  0.63244801  0.37956692  0.29783595  1
  O  O294  1  0.62988356  0.38070229  0.53290502  1
  O  O295  1  0.62091260  0.37570735  0.77463643  1
  O  O296  1  0.62047030  0.61456392  0.03278075  1
  O  O297  1  0.62832190  0.62518555  0.30157901  1
  O  O298  1  0.62825047  0.63409167  0.54873908  1
  O  O299  1  0.62057346  0.62270916  0.79378113  1
  O  O300  1  0.63133733  0.87845123  0.02254778  1
  O  O301  1  0.62981975  0.87158812  0.29831515  1
  O  O302  1  0.63397070  0.87422865  0.54422012  1
  O  O303  1  0.61679382  0.87575085  0.78562602  1
  O  O304  1  0.88118981  0.13052063  0.02954280  1
  O  O305  1  0.87585383  0.12347734  0.30079010  1
  O  O306  1  0.87630324  0.11951858  0.55145461  1
  O  O307  1  0.88616292  0.12565892  0.78380950  1
  O  O308  1  0.87216092  0.37585182  0.04895993  1
  O  O309  1  0.86572816  0.37432191  0.29072877  1
  O  O310  1  0.88367062  0.37994442  0.54363463  1
  O  O311  1  0.87705195  0.37524397  0.77266059  1
  O  O312  1  0.87488331  0.61843971  0.04408087  1
  O  O313  1  0.87247692  0.62924082  0.30016391  1
  O  O314  1  0.87516453  0.63087733  0.55523935  1
  O  O315  1  0.88163276  0.63015092  0.78207900  1
  O  O316  1  0.88000522  0.87550585  0.02532980  1
  O  O317  1  0.87567831  0.87317639  0.29795676  1
  O  O318  1  0.87723920  0.87373375  0.55529455  1
  O  O319  1  0.88349314  0.87215387  0.79148954  1
