# generated using pymatgen
data_VFe(PbO3)2
_symmetry_space_group_name_H-M   'P 1'
_cell_length_a   15.37536202
_cell_length_b   15.36482246
_cell_length_c   18.59471596
_cell_angle_alpha   90.00459509
_cell_angle_beta   89.98297509
_cell_angle_gamma   89.98682860
_symmetry_Int_Tables_number   1
_chemical_formula_structural   VFe(PbO3)2
_chemical_formula_sum   'V32 Fe32 Pb64 O192'
_cell_volume   4392.80994011
_cell_formula_units_Z   32
loop_
 _symmetry_equiv_pos_site_id
 _symmetry_equiv_pos_as_xyz
  1  'x, y, z'
loop_
 _atom_site_type_symbol
 _atom_site_label
 _atom_site_symmetry_multiplicity
 _atom_site_fract_x
 _atom_site_fract_y
 _atom_site_fract_z
 _atom_site_occupancy
  V  V0  1  0.37559407  0.87832033  0.13356043  1
  V  V1  1  0.62160839  0.63143928  0.38739949  1
  V  V2  1  0.37155957  0.12473908  0.64104093  1
  V  V3  1  0.87551651  0.62591352  0.13851629  1
  V  V4  1  0.62143123  0.37556125  0.89196067  1
  V  V5  1  0.37614268  0.87731973  0.38893760  1
  V  V6  1  0.37661123  0.37453040  0.38772158  1
  V  V7  1  0.62682111  0.62301470  0.89553185  1
  V  V8  1  0.37907770  0.12799504  0.38957828  1
  V  V9  1  0.36811069  0.37318489  0.13614921  1
  V  V10  1  0.62355170  0.87564048  0.89241555  1
  V  V11  1  0.62455095  0.37762774  0.13503086  1
  V  V12  1  0.87135248  0.12356852  0.88730303  1
  V  V13  1  0.87174615  0.12485199  0.38852950  1
  V  V14  1  0.87189146  0.37597467  0.63966370  1
  V  V15  1  0.37498883  0.12393881  0.89211231  1
  V  V16  1  0.87447972  0.87182554  0.64078913  1
  V  V17  1  0.12199018  0.12727182  0.88885516  1
  V  V18  1  0.37574641  0.62589096  0.89131404  1
  V  V19  1  0.62603536  0.87306484  0.64063488  1
  V  V20  1  0.12280041  0.62413448  0.64095919  1
  V  V21  1  0.37355699  0.37595195  0.89118754  1
  V  V22  1  0.87555470  0.87871286  0.13969198  1
  V  V23  1  0.62723539  0.37540582  0.39213943  1
  V  V24  1  0.12505119  0.37516010  0.63967025  1
  V  V25  1  0.62459985  0.87951490  0.38836587  1
  V  V26  1  0.62636253  0.62310386  0.64197438  1
  V  V27  1  0.87729643  0.12870101  0.13548138  1
  V  V28  1  0.37396792  0.37692289  0.63882394  1
  V  V29  1  0.12531279  0.87475280  0.63970230  1
  V  V30  1  0.11762845  0.37547206  0.13802620  1
  V  V31  1  0.87578270  0.62724315  0.88804080  1
  Fe  Fe32  1  0.87545220  0.62488608  0.63701854  1
  Fe  Fe33  1  0.37616520  0.62593698  0.13722949  1
  Fe  Fe34  1  0.62768827  0.12519998  0.13099770  1
  Fe  Fe35  1  0.87561604  0.37625131  0.89084926  1
  Fe  Fe36  1  0.12464206  0.62450018  0.88632093  1
  Fe  Fe37  1  0.87270673  0.37539920  0.13626461  1
  Fe  Fe38  1  0.62501564  0.12781382  0.89010236  1
  Fe  Fe39  1  0.87246489  0.62308830  0.38340137  1
  Fe  Fe40  1  0.12590200  0.87548949  0.14010921  1
  Fe  Fe41  1  0.62545985  0.87467330  0.13224191  1
  Fe  Fe42  1  0.37496396  0.87282183  0.64141787  1
  Fe  Fe43  1  0.12625632  0.12471411  0.38814396  1
  Fe  Fe44  1  0.12498524  0.62438901  0.13932818  1
  Fe  Fe45  1  0.62751553  0.62677509  0.13075969  1
  Fe  Fe46  1  0.87100023  0.87590081  0.38150557  1
  Fe  Fe47  1  0.37600890  0.87531513  0.88431127  1
  Fe  Fe48  1  0.62259979  0.37622267  0.63547394  1
  Fe  Fe49  1  0.12592866  0.87456948  0.88651095  1
  Fe  Fe50  1  0.62548563  0.12433959  0.63828466  1
  Fe  Fe51  1  0.12514308  0.12657011  0.13455848  1
  Fe  Fe52  1  0.12301871  0.87508942  0.37886685  1
  Fe  Fe53  1  0.87551307  0.87519572  0.88610658  1
  Fe  Fe54  1  0.12697624  0.62411241  0.37825856  1
  Fe  Fe55  1  0.37232713  0.62554022  0.63592242  1
  Fe  Fe56  1  0.12393171  0.12380530  0.63498284  1
  Fe  Fe57  1  0.37399143  0.12627330  0.13267542  1
  Fe  Fe58  1  0.12480077  0.37308079  0.38261448  1
  Fe  Fe59  1  0.37959097  0.62426066  0.38261460  1
  Fe  Fe60  1  0.87291394  0.37239391  0.37975098  1
  Fe  Fe61  1  0.62193712  0.12500019  0.38779893  1
  Fe  Fe62  1  0.87686550  0.12348951  0.63596164  1
  Fe  Fe63  1  0.12773853  0.37642526  0.88520779  1
  Pb  Pb64  1  0.00942780  -0.00439523  0.00071703  1
  Pb  Pb65  1  0.00641214  -0.00266551  0.25065258  1
  Pb  Pb66  1  -0.00059994  0.00076728  0.49420478  1
  Pb  Pb67  1  -0.00164209  -0.00758246  0.74964173  1
  Pb  Pb68  1  0.00084962  0.25240094  -0.00224860  1
  Pb  Pb69  1  0.00992852  0.25131500  0.25491333  1
  Pb  Pb70  1  -0.00045419  0.24653038  0.49540432  1
  Pb  Pb71  1  -0.00141840  0.25386390  0.74775269  1
  Pb  Pb72  1  0.00541410  0.50072039  -0.00269503  1
  Pb  Pb73  1  -0.00088436  0.50734175  0.25279192  1
  Pb  Pb74  1  -0.00154698  0.50003720  0.48779715  1
  Pb  Pb75  1  0.00004618  0.49156359  0.75516429  1
  Pb  Pb76  1  0.01268233  0.75556644  0.00281182  1
  Pb  Pb77  1  0.00371512  0.75191026  0.25072760  1
  Pb  Pb78  1  -0.00021558  0.74778084  0.48640421  1
  Pb  Pb79  1  0.00455800  0.75312845  0.75438415  1
  Pb  Pb80  1  0.24801438  0.00002447  -0.00010514  1
  Pb  Pb81  1  0.24451712  0.00359638  0.24482238  1
  Pb  Pb82  1  0.24492406  -0.00074823  0.49883776  1
  Pb  Pb83  1  0.24950598  -0.01043117  0.75348889  1
  Pb  Pb84  1  0.24931841  0.24011200  0.00339818  1
  Pb  Pb85  1  0.24106038  0.24820041  0.25227934  1
  Pb  Pb86  1  0.24384480  0.24469191  0.50066049  1
  Pb  Pb87  1  0.24607813  0.25477880  0.74973968  1
  Pb  Pb88  1  0.24722441  0.51087362  0.00378719  1
  Pb  Pb89  1  0.24897366  0.50885850  0.25104333  1
  Pb  Pb90  1  0.25116119  0.50608447  0.49269263  1
  Pb  Pb91  1  0.23923550  0.50280448  0.75393360  1
  Pb  Pb92  1  0.24228259  0.75237446  0.00100729  1
  Pb  Pb93  1  0.24539546  0.74770886  0.24496901  1
  Pb  Pb94  1  0.25399435  0.74560889  0.49358525  1
  Pb  Pb95  1  0.24291536  0.74849366  0.75355730  1
  Pb  Pb96  1  0.50720924  0.00192283  0.00267219  1
  Pb  Pb97  1  0.50905375  0.00774374  0.24315991  1
  Pb  Pb98  1  0.49602325  -0.00620143  0.50492249  1
  Pb  Pb99  1  0.49658703  -0.00231826  0.75225199  1
  Pb  Pb100  1  0.49601763  0.24315819  0.00265244  1
  Pb  Pb101  1  0.50886250  0.24478617  0.24497130  1
  Pb  Pb102  1  0.50927906  0.25017214  0.50534001  1
  Pb  Pb103  1  0.50531170  0.24431274  0.75058338  1
  Pb  Pb104  1  0.49631795  0.50768550  0.00610905  1
  Pb  Pb105  1  0.49923295  0.50578163  0.24644469  1
  Pb  Pb106  1  0.50336891  0.49491753  0.50165529  1
  Pb  Pb107  1  0.49603391  0.49935621  0.74889435  1
  Pb  Pb108  1  0.49954437  0.74318246  0.00405740  1
  Pb  Pb109  1  0.49946933  0.74766794  0.24174021  1
  Pb  Pb110  1  0.48779317  0.74937822  0.50606227  1
  Pb  Pb111  1  0.49401094  0.75139657  0.75145255  1
  Pb  Pb112  1  0.74157514  -0.00007827  0.00253103  1
  Pb  Pb113  1  0.75064762  0.00098379  0.24713596  1
  Pb  Pb114  1  0.75081019  0.01044174  0.50482017  1
  Pb  Pb115  1  0.74955498  0.00371985  0.75065524  1
  Pb  Pb116  1  0.75410204  0.25676540  0.00163610  1
  Pb  Pb117  1  0.75288705  0.25329734  0.24755426  1
  Pb  Pb118  1  0.74799512  0.24111539  0.50438997  1
  Pb  Pb119  1  0.74413347  0.24382124  0.75031035  1
  Pb  Pb120  1  0.75540344  0.49685312  0.00377306  1
  Pb  Pb121  1  0.75935551  0.50061324  0.25044978  1
  Pb  Pb122  1  0.75641257  0.50044183  0.50001825  1
  Pb  Pb123  1  0.75774453  0.49410864  0.75416339  1
  Pb  Pb124  1  0.74319562  0.75266271  0.00145791  1
  Pb  Pb125  1  0.75763469  0.75078684  0.24854796  1
  Pb  Pb126  1  0.75912805  0.74518218  0.49992091  1
  Pb  Pb127  1  0.75511648  0.75301983  0.75415013  1
  O  O128  1  0.12304417  0.00185995  0.16350541  1
  O  O129  1  0.12830533  -0.00105373  0.41405013  1
  O  O130  1  0.12407118  -0.00777005  0.66156288  1
  O  O131  1  0.12660147  0.00813395  0.91254215  1
  O  O132  1  0.12499665  0.25650622  0.16394889  1
  O  O133  1  0.12823332  0.24904514  0.41844138  1
  O  O134  1  0.12570797  0.25343748  0.66462674  1
  O  O135  1  0.12763567  0.24548536  0.91151095  1
  O  O136  1  0.12598896  0.49050210  0.16218423  1
  O  O137  1  0.13015696  0.49774044  0.41188847  1
  O  O138  1  0.12533922  0.50254753  0.66455278  1
  O  O139  1  0.12701132  0.50093864  0.91702757  1
  O  O140  1  0.12412133  0.75006113  0.16434637  1
  O  O141  1  0.12763613  0.75082882  0.40858921  1
  O  O142  1  0.12409495  0.74987861  0.66428006  1
  O  O143  1  0.12623181  0.74795280  0.91619499  1
  O  O144  1  0.37474769  -0.00398137  0.15903209  1
  O  O145  1  0.38065166  -0.00147665  0.41553459  1
  O  O146  1  0.37468052  0.00499572  0.66599899  1
  O  O147  1  0.37526148  0.00731465  0.91276784  1
  O  O148  1  0.38079936  0.25948659  0.16258828  1
  O  O149  1  0.37866567  0.24634327  0.41302329  1
  O  O150  1  0.37210616  0.24707563  0.66589498  1
  O  O151  1  0.37609376  0.24880449  0.91553218  1
  O  O152  1  0.37899300  0.48828364  0.16346189  1
  O  O153  1  0.37886509  0.49185732  0.40993764  1
  O  O154  1  0.37439422  0.49881438  0.66519072  1
  O  O155  1  0.37954417  0.50263167  0.91696149  1
  O  O156  1  0.37608094  0.75756527  0.15957045  1
  O  O157  1  0.38232751  0.75668651  0.41014391  1
  O  O158  1  0.37599010  0.74793198  0.66982753  1
  O  O159  1  0.38047586  0.74362790  0.90900039  1
  O  O160  1  0.62858036  -0.00049696  0.16266433  1
  O  O161  1  0.62163800  -0.00511079  0.41302892  1
  O  O162  1  0.62612725  -0.00751670  0.66362308  1
  O  O163  1  0.62486133  -0.00332516  0.91250895  1
  O  O164  1  0.62739979  0.25460097  0.15948789  1
  O  O165  1  0.61943333  0.25468975  0.41525505  1
  O  O166  1  0.62358774  0.25174214  0.66653369  1
  O  O167  1  0.62312462  0.25805024  0.91462222  1
  O  O168  1  0.62800841  0.49547807  0.15774209  1
  O  O169  1  0.61974570  0.49524493  0.41405292  1
  O  O170  1  0.62444895  0.50503927  0.66481517  1
  O  O171  1  0.62339182  0.49592864  0.91807782  1
  O  O172  1  0.62656346  0.75122269  0.16291974  1
  O  O173  1  0.62068799  0.74700584  0.40742474  1
  O  O174  1  0.62572423  0.75117226  0.66786202  1
  O  O175  1  0.62529130  0.75285196  0.91481205  1
  O  O176  1  0.87576441  0.00007715  0.16004103  1
  O  O177  1  0.86909461  0.00475696  0.41314257  1
  O  O178  1  0.87464193  -0.00739122  0.66450919  1
  O  O179  1  0.87865611  0.00865819  0.91268100  1
  O  O180  1  0.87265561  0.24466222  0.15858219  1
  O  O181  1  0.87128510  0.24374548  0.41172726  1
  O  O182  1  0.87679943  0.25886267  0.66208444  1
  O  O183  1  0.87602408  0.24256452  0.91419496  1
  O  O184  1  0.87341199  0.50477278  0.15979054  1
  O  O185  1  0.86820977  0.49720111  0.41279544  1
  O  O186  1  0.87497167  0.49671217  0.66679207  1
  O  O187  1  0.87050141  0.50820239  0.91662312  1
  O  O188  1  0.87592991  0.74949155  0.16160269  1
  O  O189  1  0.86760095  0.74926217  0.41233391  1
  O  O190  1  0.87359332  0.75088557  0.66880642  1
  O  O191  1  0.87002390  0.74319220  0.91169883  1
  O  O192  1  -0.00731249  0.12598077  0.16270155  1
  O  O193  1  -0.00727274  0.12384104  0.41086436  1
  O  O194  1  0.00030396  0.12474723  0.66616439  1
  O  O195  1  0.00282309  0.12762249  0.90934689  1
  O  O196  1  0.00230656  0.37361072  0.15711138  1
  O  O197  1  -0.00224431  0.37219096  0.41030918  1
  O  O198  1  -0.00147635  0.37836471  0.66480235  1
  O  O199  1  0.00161056  0.37462535  0.91568836  1
  O  O200  1  -0.00609971  0.62304270  0.16400868  1
  O  O201  1  -0.00012306  0.62303847  0.40714713  1
  O  O202  1  0.00542517  0.62524510  0.66346002  1
  O  O203  1  -0.00794534  0.62388126  0.90679274  1
  O  O204  1  -0.00807380  0.87505072  0.16387036  1
  O  O205  1  -0.00328331  0.87640463  0.41054512  1
  O  O206  1  0.00274118  0.87116325  0.66356417  1
  O  O207  1  -0.00067515  0.87626196  0.91739569  1
  O  O208  1  0.25120806  0.12939253  0.16431868  1
  O  O209  1  0.26174852  0.12226687  0.41515099  1
  O  O210  1  0.25389993  0.12416204  0.66711142  1
  O  O211  1  0.25084860  0.12720781  0.91275705  1
  O  O212  1  0.25255981  0.37271115  0.15535045  1
  O  O213  1  0.26146498  0.37043995  0.41203889  1
  O  O214  1  0.25003958  0.37532497  0.66743255  1
  O  O215  1  0.25640457  0.37584996  0.91463834  1
  O  O216  1  0.25215264  0.62024856  0.16363928  1
  O  O217  1  0.25502326  0.62534538  0.41066319  1
  O  O218  1  0.24235931  0.62592390  0.66477211  1
  O  O219  1  0.25911359  0.62382465  0.91193668  1
  O  O220  1  0.25786408  0.87616262  0.16130916  1
  O  O221  1  0.26025727  0.87612506  0.40838568  1
  O  O222  1  0.24371218  0.87312702  0.66294537  1
  O  O223  1  0.25255930  0.87640065  0.91369472  1
  O  O224  1  0.50054938  0.12686842  0.15963337  1
  O  O225  1  0.49395848  0.12272594  0.41823550  1
  O  O226  1  0.49257899  0.12541638  0.66506700  1
  O  O227  1  0.49525598  0.12729500  0.91301547  1
  O  O228  1  0.50747127  0.37520138  0.15977321  1
  O  O229  1  0.49631447  0.37178977  0.41774134  1
  O  O230  1  0.49426529  0.37543404  0.66738996  1
  O  O231  1  0.50102820  0.37566627  0.91823939  1
  O  O232  1  0.50235846  0.62273029  0.16311913  1
  O  O233  1  0.50634190  0.62127208  0.41530596  1
  O  O234  1  0.50758455  0.62641375  0.66738916  1
  O  O235  1  0.49998292  0.62383529  0.91765290  1
  O  O236  1  0.49439594  0.87679787  0.15796047  1
  O  O237  1  0.50365424  0.87488386  0.41873752  1
  O  O238  1  0.50802979  0.87402971  0.66676671  1
  O  O239  1  0.50483616  0.87581458  0.91410971  1
  O  O240  1  0.75832162  0.12280273  0.16055413  1
  O  O241  1  0.75054426  0.12555145  0.41434348  1
  O  O242  1  0.75206170  0.12440127  0.66907035  1
  O  O243  1  0.75565997  0.12530357  0.91008438  1
  O  O244  1  0.74366476  0.37375524  0.16288998  1
  O  O245  1  0.74233374  0.37206363  0.41166268  1
  O  O246  1  0.75427656  0.37789777  0.66144214  1
  O  O247  1  0.74295623  0.37581695  0.91538576  1
  O  O248  1  0.75604678  0.62669451  0.15964928  1
  O  O249  1  0.73638892  0.62125382  0.41466791  1
  O  O250  1  0.74309267  0.62622291  0.66854048  1
  O  O251  1  0.74979016  0.62474872  0.91703806  1
  O  O252  1  0.75762601  0.87484143  0.16193927  1
  O  O253  1  0.73842557  0.87249624  0.41274287  1
  O  O254  1  0.74588357  0.87197705  0.66669917  1
  O  O255  1  0.74604581  0.87601946  0.91402065  1
  O  O256  1  0.12762152  0.12909695  0.03477049  1
  O  O257  1  0.12542704  0.13536337  0.28782624  1
  O  O258  1  0.13054591  0.12368812  0.53543305  1
  O  O259  1  0.12519153  0.12564961  0.79839399  1
  O  O260  1  0.12189321  0.37404929  0.04685749  1
  O  O261  1  0.12572527  0.36474507  0.28295717  1
  O  O262  1  0.12686593  0.37626384  0.54925385  1
  O  O263  1  0.12540329  0.38005252  0.78499188  1
  O  O264  1  0.12703280  0.62298429  0.03806904  1
  O  O265  1  0.12544148  0.61727872  0.27741535  1
  O  O266  1  0.12562861  0.62400678  0.55058314  1
  O  O267  1  0.13191154  0.62600544  0.78639905  1
  O  O268  1  0.12139618  0.87319819  0.03826754  1
  O  O269  1  0.12180188  0.87845999  0.27840639  1
  O  O270  1  0.12498832  0.87217159  0.54936988  1
  O  O271  1  0.12310971  0.87221599  0.78593754  1
  O  O272  1  0.37066976  0.13195275  0.03282325  1
  O  O273  1  0.37918528  0.12617348  0.29914980  1
  O  O274  1  0.37185139  0.12463216  0.55041736  1
  O  O275  1  0.37332222  0.12562266  0.80130883  1
  O  O276  1  0.37456231  0.37420477  0.04518405  1
  O  O277  1  0.37917435  0.37175169  0.29750527  1
  O  O278  1  0.37386248  0.37464594  0.54822888  1
  O  O279  1  0.37693850  0.37671836  0.80050802  1
  O  O280  1  0.38006948  0.62280258  0.03668113  1
  O  O281  1  0.38135102  0.61926226  0.28304792  1
  O  O282  1  0.37442267  0.63196136  0.53646869  1
  O  O283  1  0.37970921  0.62010526  0.80047757  1
  O  O284  1  0.37397907  0.87821270  0.04261020  1
  O  O285  1  0.38157253  0.88116143  0.29935766  1
  O  O286  1  0.38392936  0.87358004  0.54162776  1
  O  O287  1  0.37820612  0.88276398  0.78391154  1
  O  O288  1  0.62463599  0.11876838  0.02995072  1
  O  O289  1  0.61919241  0.12483139  0.28852328  1
  O  O290  1  0.63142378  0.12712948  0.53789797  1
  O  O291  1  0.62628344  0.13108438  0.79011997  1
  O  O292  1  0.62729753  0.37471774  0.04420385  1
  O  O293  1  0.62384691  0.37557974  0.30156165  1
  O  O294  1  0.61533311  0.37560727  0.53658260  1
  O  O295  1  0.62014887  0.37807262  0.80119515  1
  O  O296  1  0.62128204  0.63097916  0.03074593  1
  O  O297  1  0.62271952  0.62491854  0.29669827  1
  O  O298  1  0.62559730  0.62567897  0.55147304  1
  O  O299  1  0.62538274  0.62259685  0.80499868  1
  O  O300  1  0.63031081  0.88041089  0.03243810  1
  O  O301  1  0.62228339  0.87893163  0.29766481  1
  O  O302  1  0.62638624  0.87110946  0.55029418  1
  O  O303  1  0.62434125  0.87426420  0.80148299  1
  O  O304  1  0.87825008  0.12633662  0.04472563  1
  O  O305  1  0.87121839  0.12422411  0.29788897  1
  O  O306  1  0.86737586  0.12361041  0.53646346  1
  O  O307  1  0.87306769  0.12452100  0.79620079  1
  O  O308  1  0.86553554  0.37351196  0.03534114  1
  O  O309  1  0.86481502  0.37403928  0.27962077  1
  O  O310  1  0.87376957  0.37795216  0.54907358  1
  O  O311  1  0.87508176  0.38265723  0.79112965  1
  O  O312  1  0.87758331  0.62803327  0.04802970  1
  O  O313  1  0.86882644  0.61991563  0.28347131  1
  O  O314  1  0.86393407  0.62443197  0.53832518  1
  O  O315  1  0.86925183  0.62377148  0.79681073  1
  O  O316  1  0.87599294  0.87722434  0.04886742  1
  O  O317  1  0.86820174  0.87527044  0.28263438  1
  O  O318  1  0.87097173  0.86976763  0.54989047  1
  O  O319  1  0.87750076  0.87311166  0.78681248  1
