# generated using pymatgen
data_VFe(PbO3)2
_symmetry_space_group_name_H-M   'P 1'
_cell_length_a   15.38750884
_cell_length_b   15.38379099
_cell_length_c   18.53421756
_cell_angle_alpha   90.02092723
_cell_angle_beta   89.98708307
_cell_angle_gamma   90.00138465
_symmetry_Int_Tables_number   1
_chemical_formula_structural   VFe(PbO3)2
_chemical_formula_sum   'V32 Fe32 Pb64 O192'
_cell_volume   4387.38658196
_cell_formula_units_Z   32
loop_
 _symmetry_equiv_pos_site_id
 _symmetry_equiv_pos_as_xyz
  1  'x, y, z'
loop_
 _atom_site_type_symbol
 _atom_site_label
 _atom_site_symmetry_multiplicity
 _atom_site_fract_x
 _atom_site_fract_y
 _atom_site_fract_z
 _atom_site_occupancy
  V  V0  1  0.62264363  0.12360117  0.38657568  1
  V  V1  1  0.87235377  0.37684948  0.63927872  1
  V  V2  1  0.62290584  0.12621517  0.64238635  1
  V  V3  1  0.12628019  0.87265840  0.63813313  1
  V  V4  1  0.12779747  0.87704143  0.38813454  1
  V  V5  1  0.12079651  0.62289585  0.88957430  1
  V  V6  1  0.12388090  0.62756247  0.13658134  1
  V  V7  1  0.62506807  0.37713249  0.64387801  1
  V  V8  1  0.37914711  0.37520444  0.64626662  1
  V  V9  1  0.62227409  0.37208880  0.38434251  1
  V  V10  1  0.87590900  0.88284083  0.88715819  1
  V  V11  1  0.12382143  0.37659698  0.13925947  1
  V  V12  1  0.37631010  0.62485622  0.64750701  1
  V  V13  1  0.12805015  0.12485054  0.63902143  1
  V  V14  1  0.36992658  0.87420178  0.13181942  1
  V  V15  1  0.87759833  0.12993183  0.88883520  1
  V  V16  1  0.38072381  0.12394664  0.89251367  1
  V  V17  1  0.62547157  0.62340836  0.64426102  1
  V  V18  1  0.87791005  0.63656373  0.88954371  1
  V  V19  1  0.87176035  0.12385298  0.14136773  1
  V  V20  1  0.87345381  0.62394511  0.14172488  1
  V  V21  1  0.62229780  0.12347719  0.13449529  1
  V  V22  1  0.37466385  0.87433299  0.38767985  1
  V  V23  1  0.12373791  0.12673136  0.89002651  1
  V  V24  1  0.12736539  0.37746351  0.64266261  1
  V  V25  1  0.87706348  0.38008105  0.89044469  1
  V  V26  1  0.37164413  0.37440912  0.89393078  1
  V  V27  1  0.37917108  0.87760260  0.65052526  1
  V  V28  1  0.87573201  0.62495428  0.63840580  1
  V  V29  1  0.12568006  0.37268546  0.38608522  1
  V  V30  1  0.12154628  0.12472511  0.14032162  1
  V  V31  1  0.37528361  0.37482191  0.38659381  1
  Fe  Fe32  1  0.87478702  0.37500040  0.37664158  1
  Fe  Fe33  1  0.63064217  0.62510260  0.89494122  1
  Fe  Fe34  1  0.62429419  0.87710282  0.14443274  1
  Fe  Fe35  1  0.62177642  0.62509080  0.37731787  1
  Fe  Fe36  1  0.12080196  0.87646777  0.89115080  1
  Fe  Fe37  1  0.62669230  0.87753054  0.88113568  1
  Fe  Fe38  1  0.37214741  0.12284429  0.12738902  1
  Fe  Fe39  1  0.12911606  0.12453495  0.38572441  1
  Fe  Fe40  1  0.62415467  0.62505562  0.12894079  1
  Fe  Fe41  1  0.62562950  0.37113392  0.89659509  1
  Fe  Fe42  1  0.37526616  0.12739792  0.64097790  1
  Fe  Fe43  1  0.12218666  0.37383415  0.88687213  1
  Fe  Fe44  1  0.87861141  0.87361071  0.14517920  1
  Fe  Fe45  1  0.12652277  0.62401713  0.63388126  1
  Fe  Fe46  1  0.87466536  0.87821744  0.63193536  1
  Fe  Fe47  1  0.62119209  0.87591233  0.37618215  1
  Fe  Fe48  1  0.37650176  0.62598077  0.38259973  1
  Fe  Fe49  1  0.62466699  0.87302011  0.64134633  1
  Fe  Fe50  1  0.87379725  0.12997853  0.63339243  1
  Fe  Fe51  1  0.87838678  0.37438062  0.14734840  1
  Fe  Fe52  1  0.37208969  0.37278027  0.12811217  1
  Fe  Fe53  1  0.87533813  0.87546576  0.38109863  1
  Fe  Fe54  1  0.63262820  0.12422863  0.88702114  1
  Fe  Fe55  1  0.62651846  0.37236128  0.12906864  1
  Fe  Fe56  1  0.37668675  0.12373429  0.38728795  1
  Fe  Fe57  1  0.87591787  0.12740875  0.38760746  1
  Fe  Fe58  1  0.12470430  0.87613811  0.13353618  1
  Fe  Fe59  1  0.13021910  0.62567980  0.38950494  1
  Fe  Fe60  1  0.37368722  0.62521577  0.89355625  1
  Fe  Fe61  1  0.87483722  0.62354496  0.37951742  1
  Fe  Fe62  1  0.37164579  0.87662017  0.88164401  1
  Fe  Fe63  1  0.37120045  0.62447822  0.12298708  1
  Pb  Pb64  1  -0.00374997  -0.00762203  0.00754122  1
  Pb  Pb65  1  -0.00295587  -0.00285568  0.25367119  1
  Pb  Pb66  1  -0.00970993  0.00200522  0.49762822  1
  Pb  Pb67  1  0.00040818  -0.00132380  0.74495301  1
  Pb  Pb68  1  -0.00702746  0.25485460  0.00647254  1
  Pb  Pb69  1  -0.00127756  0.24144456  0.25620970  1
  Pb  Pb70  1  -0.00534993  0.24526590  0.49717435  1
  Pb  Pb71  1  0.00386821  0.25654519  0.74897493  1
  Pb  Pb72  1  -0.00832584  0.49603991  0.00620796  1
  Pb  Pb73  1  0.00205492  0.50887360  0.25547196  1
  Pb  Pb74  1  0.00223036  0.50404783  0.49348801  1
  Pb  Pb75  1  0.00205696  0.49786954  0.74895932  1
  Pb  Pb76  1  -0.00422962  0.76257343  0.00885945  1
  Pb  Pb77  1  -0.00367367  0.74951792  0.25388743  1
  Pb  Pb78  1  -0.00436677  0.75020229  0.49275604  1
  Pb  Pb79  1  0.01034191  0.75822037  0.75032866  1
  Pb  Pb80  1  0.24861064  0.00081534  -0.00157578  1
  Pb  Pb81  1  0.25089196  0.00860246  0.24846050  1
  Pb  Pb82  1  0.25772287  0.00514007  0.50131900  1
  Pb  Pb83  1  0.24852504  -0.00885276  0.75539758  1
  Pb  Pb84  1  0.25479361  0.24782018  0.00419063  1
  Pb  Pb85  1  0.25068937  0.24163220  0.24771995  1
  Pb  Pb86  1  0.25709556  0.24556319  0.50101126  1
  Pb  Pb87  1  0.24690144  0.25543001  0.75459020  1
  Pb  Pb88  1  0.25472803  0.49722297  0.00172615  1
  Pb  Pb89  1  0.25506311  0.50747257  0.24721210  1
  Pb  Pb90  1  0.24880684  0.50425688  0.50081505  1
  Pb  Pb91  1  0.25498874  0.50482841  0.75558424  1
  Pb  Pb92  1  0.25069178  0.75183671  -0.00673800  1
  Pb  Pb93  1  0.25181113  0.73927371  0.24852320  1
  Pb  Pb94  1  0.24993610  0.74531938  0.50126436  1
  Pb  Pb95  1  0.25655106  0.75213609  0.75636027  1
  Pb  Pb96  1  0.50851925  -0.01113466  -0.00260511  1
  Pb  Pb97  1  0.49234258  -0.00097303  0.24505301  1
  Pb  Pb98  1  0.50555400  -0.00588995  0.50267640  1
  Pb  Pb99  1  0.50861076  0.00018165  0.75616841  1
  Pb  Pb100  1  0.50075320  0.25422882  0.00185604  1
  Pb  Pb101  1  0.49191455  0.25082359  0.23858269  1
  Pb  Pb102  1  0.49751440  0.24553550  0.50196383  1
  Pb  Pb103  1  0.51129494  0.25219519  0.76067863  1
  Pb  Pb104  1  0.50415221  0.50826262  0.00009823  1
  Pb  Pb105  1  0.49836049  0.50421569  0.23198895  1
  Pb  Pb106  1  0.50105985  0.50408384  0.49494100  1
  Pb  Pb107  1  0.50352279  0.50937048  0.76617532  1
  Pb  Pb108  1  0.50276463  0.75005607  -0.00809815  1
  Pb  Pb109  1  0.50408334  0.74134501  0.24026708  1
  Pb  Pb110  1  0.50949547  0.75466782  0.49670192  1
  Pb  Pb111  1  0.50016638  0.74217386  0.76119884  1
  Pb  Pb112  1  0.74674776  -0.00910205  0.00541361  1
  Pb  Pb113  1  0.75328716  -0.00950171  0.25258291  1
  Pb  Pb114  1  0.75583325  -0.01245472  0.49656829  1
  Pb  Pb115  1  0.74797811  -0.00002767  0.74519940  1
  Pb  Pb116  1  0.74879892  0.25567726  0.00441544  1
  Pb  Pb117  1  0.75781024  0.24937214  0.25047035  1
  Pb  Pb118  1  0.75429117  0.24714930  0.49707332  1
  Pb  Pb119  1  0.74175674  0.25356391  0.75535728  1
  Pb  Pb120  1  0.74429251  0.49760337  0.00432088  1
  Pb  Pb121  1  0.74668145  0.49673581  0.24264129  1
  Pb  Pb122  1  0.75130383  0.50282962  0.48914914  1
  Pb  Pb123  1  0.74109272  0.50330770  0.75841324  1
  Pb  Pb124  1  0.73477040  0.75830036  0.00910436  1
  Pb  Pb125  1  0.74038525  0.74935027  0.24923996  1
  Pb  Pb126  1  0.74808690  0.75491262  0.48735393  1
  Pb  Pb127  1  0.74486191  0.75313970  0.74845195  1
  O  O128  1  0.12305105  0.00687958  0.16151378  1
  O  O129  1  0.13160608  -0.00692681  0.41409170  1
  O  O130  1  0.12624487  0.00408494  0.66111506  1
  O  O131  1  0.11667264  0.00943394  0.91477079  1
  O  O132  1  0.12339148  0.24724698  0.16315263  1
  O  O133  1  0.13189513  0.25864027  0.41437313  1
  O  O134  1  0.12837471  0.25039451  0.66617578  1
  O  O135  1  0.11682452  0.24309868  0.91654050  1
  O  O136  1  0.12567133  0.49780508  0.15945690  1
  O  O137  1  0.13248352  0.49003413  0.41523855  1
  O  O138  1  0.12615338  0.49852031  0.66714970  1
  O  O139  1  0.11661620  0.50403752  0.91407813  1
  O  O140  1  0.12644943  0.74346768  0.15738288  1
  O  O141  1  0.13167509  0.75838444  0.41555747  1
  O  O142  1  0.12451668  0.75039433  0.66343589  1
  O  O143  1  0.11544970  0.74008525  0.91379693  1
  O  O144  1  0.37211679  -0.00302869  0.15949372  1
  O  O145  1  0.37541979  -0.00644232  0.41610613  1
  O  O146  1  0.37309890  -0.00317904  0.66743294  1
  O  O147  1  0.36686020  0.00741142  0.91112914  1
  O  O148  1  0.37104915  0.24686831  0.15850784  1
  O  O149  1  0.37761274  0.25630295  0.41472493  1
  O  O150  1  0.37387906  0.25803392  0.66887135  1
  O  O151  1  0.36876409  0.24488279  0.91463669  1
  O  O152  1  0.36951755  0.49848099  0.15364576  1
  O  O153  1  0.37771719  0.49157764  0.41211208  1
  O  O154  1  0.37665230  0.49588272  0.67383129  1
  O  O155  1  0.37028963  0.49169659  0.91157264  1
  O  O156  1  0.36821380  0.75590471  0.15128814  1
  O  O157  1  0.37623065  0.75774364  0.41337607  1
  O  O158  1  0.37501709  0.75065566  0.67177467  1
  O  O159  1  0.37005765  0.75196923  0.91127286  1
  O  O160  1  0.62629084  0.00992536  0.16568857  1
  O  O161  1  0.62007136  0.00708432  0.40798395  1
  O  O162  1  0.62230312  0.00766358  0.66203943  1
  O  O163  1  0.63086547  0.00033034  0.91746358  1
  O  O164  1  0.62831204  0.23855800  0.15919525  1
  O  O165  1  0.61999282  0.25251566  0.41418353  1
  O  O166  1  0.62265113  0.25167731  0.66922282  1
  O  O167  1  0.62822946  0.24459098  0.92104971  1
  O  O168  1  0.62596222  0.49910048  0.15397377  1
  O  O169  1  0.61983891  0.49039073  0.40817595  1
  O  O170  1  0.62355236  0.49939953  0.67392627  1
  O  O171  1  0.63063332  0.49696303  0.91619616  1
  O  O172  1  0.62629781  0.74947332  0.15917689  1
  O  O173  1  0.62107822  0.75165905  0.40847431  1
  O  O174  1  0.62409326  0.74390515  0.66722379  1
  O  O175  1  0.63100671  0.75416524  0.91360543  1
  O  O176  1  0.88016534  0.00809690  0.16627754  1
  O  O177  1  0.87593120  0.00135029  0.41182953  1
  O  O178  1  0.87764167  0.00523489  0.66108779  1
  O  O179  1  0.87876388  -0.00064792  0.90937643  1
  O  O180  1  0.87889559  0.24143850  0.16528975  1
  O  O181  1  0.87381913  0.25513507  0.41564769  1
  O  O182  1  0.87496912  0.25702288  0.66416519  1
  O  O183  1  0.87865312  0.24823672  0.91240533  1
  O  O184  1  0.88213542  0.50610996  0.16583950  1
  O  O185  1  0.87441801  0.49597838  0.41164066  1
  O  O186  1  0.87266064  0.49934074  0.66948308  1
  O  O187  1  0.87767749  0.49479623  0.91119384  1
  O  O188  1  0.88345288  0.74085842  0.16265231  1
  O  O189  1  0.87661502  0.74991210  0.41015834  1
  O  O190  1  0.87285113  0.74016950  0.65823116  1
  O  O191  1  0.88048112  0.75135207  0.90668616  1
  O  O192  1  0.00145016  0.12623580  0.16514396  1
  O  O193  1  0.00513422  0.12841554  0.41475789  1
  O  O194  1  0.01052415  0.12989651  0.66132140  1
  O  O195  1  -0.00652274  0.12479979  0.91751898  1
  O  O196  1  0.01072864  0.37330326  0.16999550  1
  O  O197  1  0.00858594  0.37550696  0.40445721  1
  O  O198  1  -0.00023893  0.37687285  0.66506613  1
  O  O199  1  -0.00541972  0.37158176  0.91816742  1
  O  O200  1  0.00765497  0.62185731  0.16496966  1
  O  O201  1  0.00329151  0.62240202  0.41268339  1
  O  O202  1  -0.00714185  0.61944656  0.65859805  1
  O  O203  1  -0.00764983  0.62086182  0.91955580  1
  O  O204  1  0.00515348  0.87512407  0.17039050  1
  O  O205  1  0.01013060  0.87545924  0.40836164  1
  O  O206  1  0.00289140  0.87526407  0.66336791  1
  O  O207  1  -0.00786592  0.87501904  0.91740968  1
  O  O208  1  0.24290773  0.12499863  0.15978934  1
  O  O209  1  0.25265025  0.12613203  0.42044908  1
  O  O210  1  0.24455367  0.12692573  0.66856410  1
  O  O211  1  0.23985166  0.12621739  0.91065509  1
  O  O212  1  0.23972685  0.37096455  0.16156551  1
  O  O213  1  0.25721429  0.37433746  0.41138286  1
  O  O214  1  0.25433461  0.37745153  0.66973026  1
  O  O215  1  0.24949776  0.37048063  0.91342201  1
  O  O216  1  0.24369007  0.62289726  0.15908074  1
  O  O217  1  0.25578564  0.62450435  0.42049695  1
  O  O218  1  0.25433250  0.62319713  0.66754495  1
  O  O219  1  0.23723917  0.62193362  0.90799522  1
  O  O220  1  0.25319841  0.87861743  0.15879066  1
  O  O221  1  0.25468209  0.87516759  0.41596853  1
  O  O222  1  0.24890323  0.87496107  0.66839195  1
  O  O223  1  0.24521201  0.87778493  0.91269973  1
  O  O224  1  0.50400465  0.12330854  0.15158687  1
  O  O225  1  0.50491591  0.12850769  0.41644439  1
  O  O226  1  0.50353276  0.12864167  0.66911596  1
  O  O227  1  0.49546470  0.12457451  0.90878683  1
  O  O228  1  0.49997388  0.36924089  0.15530767  1
  O  O229  1  0.49854618  0.37274758  0.41489319  1
  O  O230  1  0.49734007  0.37590165  0.67030382  1
  O  O231  1  0.49077737  0.36831479  0.91335684  1
  O  O232  1  0.49576907  0.62628428  0.14835893  1
  O  O233  1  0.49878431  0.62256869  0.41472618  1
  O  O234  1  0.50063228  0.62291115  0.67578930  1
  O  O235  1  0.50115920  0.62307211  0.91355585  1
  O  O236  1  0.48843780  0.87751967  0.15886954  1
  O  O237  1  0.49426170  0.87776450  0.41265643  1
  O  O238  1  0.49513990  0.87458250  0.66972325  1
  O  O239  1  0.49875348  0.87921207  0.90677810  1
  O  O240  1  0.75393887  0.12322930  0.16010488  1
  O  O241  1  0.73883985  0.13015771  0.41190289  1
  O  O242  1  0.74246559  0.13041029  0.66101584  1
  O  O243  1  0.76329971  0.12392963  0.91482109  1
  O  O244  1  0.75003299  0.37218245  0.16267892  1
  O  O245  1  0.73960603  0.37233700  0.40543706  1
  O  O246  1  0.74741325  0.37643830  0.66811005  1
  O  O247  1  0.76178826  0.36995736  0.91549987  1
  O  O248  1  0.75699405  0.62407998  0.15598070  1
  O  O249  1  0.74683596  0.62201948  0.40949841  1
  O  O250  1  0.75183132  0.62006726  0.66764221  1
  O  O251  1  0.76596734  0.62337221  0.91709204  1
  O  O252  1  0.75269219  0.87778014  0.16578093  1
  O  O253  1  0.74674897  0.87842409  0.40521245  1
  O  O254  1  0.75145559  0.87533361  0.66340364  1
  O  O255  1  0.76150906  0.87523788  0.91178344  1
  O  O256  1  0.11864050  0.12624291  0.04932328  1
  O  O257  1  0.13328180  0.12746378  0.28602146  1
  O  O258  1  0.13161564  0.12798840  0.54820587  1
  O  O259  1  0.12054519  0.12775185  0.79876323  1
  O  O260  1  0.11875407  0.37349534  0.04774038  1
  O  O261  1  0.13113758  0.37344884  0.29553701  1
  O  O262  1  0.12815267  0.37535961  0.55194068  1
  O  O263  1  0.11992468  0.37029592  0.78722212  1
  O  O264  1  0.12104550  0.62377787  0.04592315  1
  O  O265  1  0.13596676  0.62346749  0.28932815  1
  O  O266  1  0.13147388  0.62055642  0.53450799  1
  O  O267  1  0.11429230  0.62413997  0.79821394  1
  O  O268  1  0.11216795  0.87601856  0.03302275  1
  O  O269  1  0.13241966  0.87546549  0.29740670  1
  O  O270  1  0.12775986  0.87458810  0.54762391  1
  O  O271  1  0.11503976  0.87458331  0.79034357  1
  O  O272  1  0.36394905  0.12376287  0.02762923  1
  O  O273  1  0.37163979  0.12045898  0.28764472  1
  O  O274  1  0.37452160  0.12935303  0.54146756  1
  O  O275  1  0.37298961  0.12654144  0.80152894  1
  O  O276  1  0.36564372  0.36912889  0.02785011  1
  O  O277  1  0.37833133  0.37263319  0.29579748  1
  O  O278  1  0.37846315  0.37823539  0.55565087  1
  O  O279  1  0.37077684  0.37141144  0.80248521  1
  O  O280  1  0.36417641  0.61972064  0.02177023  1
  O  O281  1  0.36519235  0.62626541  0.28285931  1
  O  O282  1  0.38246195  0.62317874  0.55674227  1
  O  O283  1  0.37674918  0.62143453  0.79097377  1
  O  O284  1  0.36999935  0.87944477  0.04039039  1
  O  O285  1  0.37373403  0.87596556  0.29704399  1
  O  O286  1  0.37668945  0.87279448  0.55955627  1
  O  O287  1  0.36405928  0.87621875  0.78099332  1
  O  O288  1  0.62990071  0.11897036  0.04338579  1
  O  O289  1  0.62048091  0.12720477  0.29615496  1
  O  O290  1  0.61844191  0.13139990  0.55151814  1
  O  O291  1  0.62709792  0.12858983  0.78684547  1
  O  O292  1  0.63057281  0.36782069  0.02737956  1
  O  O293  1  0.61729534  0.36936935  0.29387537  1
  O  O294  1  0.62461642  0.37741872  0.55335442  1
  O  O295  1  0.62777815  0.36463746  0.79451649  1
  O  O296  1  0.63262722  0.62813885  0.02652445  1
  O  O297  1  0.62053570  0.62866719  0.27715911  1
  O  O298  1  0.62159673  0.61847377  0.55357385  1
  O  O299  1  0.62919734  0.62127569  0.79249033  1
  O  O300  1  0.62969313  0.88209011  0.04147941  1
  O  O301  1  0.62007237  0.87582153  0.27527939  1
  O  O302  1  0.61502288  0.87671621  0.54116030  1
  O  O303  1  0.63044308  0.88265036  0.78025644  1
  O  O304  1  0.87594611  0.12339758  0.05008299  1
  O  O305  1  0.87677949  0.13279517  0.28736828  1
  O  O306  1  0.87673493  0.13308127  0.53311780  1
  O  O307  1  0.87802729  0.12876648  0.79791743  1
  O  O308  1  0.88499094  0.37401696  0.04579022  1
  O  O309  1  0.87195964  0.36944256  0.27625463  1
  O  O310  1  0.87200379  0.37915777  0.54847579  1
  O  O311  1  0.87894791  0.37719112  0.79920691  1
  O  O312  1  0.88174532  0.62034378  0.05049520  1
  O  O313  1  0.88341970  0.62398288  0.27996668  1
  O  O314  1  0.87083856  0.61746889  0.54765959  1
  O  O315  1  0.87918997  0.62914323  0.79860487  1
  O  O316  1  0.88277610  0.87643545  0.04320059  1
  O  O317  1  0.88060464  0.87802123  0.28002046  1
  O  O318  1  0.87479574  0.87976170  0.53170425  1
  O  O319  1  0.87922282  0.88014901  0.79590599  1
