# generated using pymatgen
data_VFe(PbO3)2
_symmetry_space_group_name_H-M   'P 1'
_cell_length_a   15.38722930
_cell_length_b   15.37705751
_cell_length_c   18.54377049
_cell_angle_alpha   89.98449850
_cell_angle_beta   89.99530180
_cell_angle_gamma   90.00183238
_symmetry_Int_Tables_number   1
_chemical_formula_structural   VFe(PbO3)2
_chemical_formula_sum   'V32 Fe32 Pb64 O192'
_cell_volume   4387.64710666
_cell_formula_units_Z   32
loop_
 _symmetry_equiv_pos_site_id
 _symmetry_equiv_pos_as_xyz
  1  'x, y, z'
loop_
 _atom_site_type_symbol
 _atom_site_label
 _atom_site_symmetry_multiplicity
 _atom_site_fract_x
 _atom_site_fract_y
 _atom_site_fract_z
 _atom_site_occupancy
  V  V0  1  0.62974869  0.37279599  0.88863962  1
  V  V1  1  0.37434584  0.12821344  0.13632681  1
  V  V2  1  0.87512073  0.62539600  0.39035410  1
  V  V3  1  0.62718711  0.62188203  0.13817653  1
  V  V4  1  0.12496871  0.12548504  0.89306091  1
  V  V5  1  0.37297234  0.12630511  0.38815949  1
  V  V6  1  0.87370104  0.62778601  0.63642333  1
  V  V7  1  0.62933467  0.87342203  0.89060861  1
  V  V8  1  0.12686160  0.87664713  0.38734115  1
  V  V9  1  0.62242811  0.11907669  0.14109718  1
  V  V10  1  0.87332004  0.37568567  0.63657649  1
  V  V11  1  0.12623117  0.62536509  0.13574038  1
  V  V12  1  0.12284448  0.12396650  0.63652389  1
  V  V13  1  0.62501865  0.62344528  0.64488002  1
  V  V14  1  0.62355381  0.12488789  0.63642221  1
  V  V15  1  0.37482550  0.87443122  0.64420126  1
  V  V16  1  0.12637503  0.37838104  0.13861250  1
  V  V17  1  0.62439054  0.37383215  0.64047518  1
  V  V18  1  0.62388951  0.87557991  0.63875311  1
  V  V19  1  0.62686348  0.12334795  0.89376019  1
  V  V20  1  0.87468896  0.62334183  0.88860340  1
  V  V21  1  0.62487985  0.87025862  0.14078735  1
  V  V22  1  0.87450262  0.87587633  0.89286252  1
  V  V23  1  0.12564614  0.62502961  0.39262438  1
  V  V24  1  0.37390614  0.12274338  0.64236937  1
  V  V25  1  0.62381164  0.37598057  0.39053246  1
  V  V26  1  0.62010378  0.12655547  0.38684477  1
  V  V27  1  0.12006575  0.37460068  0.88758636  1
  V  V28  1  0.62382369  0.37292931  0.13841573  1
  V  V29  1  0.87570260  0.12366199  0.89503502  1
  V  V30  1  0.87844555  0.62449377  0.14086388  1
  V  V31  1  0.37417689  0.37708095  0.39297676  1
  Fe  Fe32  1  0.37649813  0.62402171  0.87887297  1
  Fe  Fe33  1  0.62124382  0.87194508  0.38224828  1
  Fe  Fe34  1  0.87171343  0.12605087  0.14705026  1
  Fe  Fe35  1  0.37312813  0.36931581  0.88700995  1
  Fe  Fe36  1  0.62202497  0.62281730  0.38369169  1
  Fe  Fe37  1  0.37471782  0.37321236  0.63854522  1
  Fe  Fe38  1  0.87476026  0.37860452  0.38096651  1
  Fe  Fe39  1  0.37694880  0.62481534  0.64531371  1
  Fe  Fe40  1  0.87565794  0.12652257  0.37938396  1
  Fe  Fe41  1  0.63091646  0.62356653  0.88273871  1
  Fe  Fe42  1  0.87290605  0.12423538  0.62970613  1
  Fe  Fe43  1  0.12392857  0.62612756  0.63995300  1
  Fe  Fe44  1  0.87381791  0.37929475  0.14468267  1
  Fe  Fe45  1  0.37682117  0.62287680  0.13330207  1
  Fe  Fe46  1  0.12651841  0.37608888  0.39214776  1
  Fe  Fe47  1  0.37590384  0.37671799  0.13143972  1
  Fe  Fe48  1  0.12588353  0.87341096  0.13044547  1
  Fe  Fe49  1  0.12450339  0.87831442  0.63932664  1
  Fe  Fe50  1  0.12086418  0.62330596  0.87998698  1
  Fe  Fe51  1  0.37481602  0.12463684  0.88491049  1
  Fe  Fe52  1  0.12536843  0.12620248  0.13940189  1
  Fe  Fe53  1  0.87428285  0.87229992  0.13907678  1
  Fe  Fe54  1  0.12751203  0.12652522  0.37763193  1
  Fe  Fe55  1  0.87285995  0.87684162  0.62901288  1
  Fe  Fe56  1  0.87619709  0.37007855  0.88810108  1
  Fe  Fe57  1  0.37634832  0.87750257  0.88656274  1
  Fe  Fe58  1  0.12113462  0.87647983  0.88723235  1
  Fe  Fe59  1  0.37627817  0.87466504  0.13301643  1
  Fe  Fe60  1  0.37313209  0.62597523  0.38483143  1
  Fe  Fe61  1  0.87499651  0.87196453  0.38807941  1
  Fe  Fe62  1  0.12492892  0.37251252  0.62957816  1
  Fe  Fe63  1  0.37406621  0.87426568  0.38266831  1
  Pb  Pb64  1  0.00767786  0.00087833  0.01070003  1
  Pb  Pb65  1  -0.00046595  0.00216281  0.24313007  1
  Pb  Pb66  1  -0.00875985  0.00318531  0.49248363  1
  Pb  Pb67  1  0.00152973  -0.00498046  0.74608202  1
  Pb  Pb68  1  -0.00341155  0.23907137  0.01215690  1
  Pb  Pb69  1  -0.00181693  0.24634296  0.25001763  1
  Pb  Pb70  1  0.00156666  0.25013448  0.48718443  1
  Pb  Pb71  1  -0.00731622  0.25614046  0.74619728  1
  Pb  Pb72  1  -0.00554678  0.49030866  0.00100598  1
  Pb  Pb73  1  0.00501991  0.48930056  0.25650023  1
  Pb  Pb74  1  0.00876771  0.49706894  0.50132382  1
  Pb  Pb75  1  0.00350633  0.50057640  0.74525954  1
  Pb  Pb76  1  0.00367810  0.75666557  -0.00102586  1
  Pb  Pb77  1  -0.00203100  0.75710690  0.24862371  1
  Pb  Pb78  1  0.01188362  0.75341563  0.50498955  1
  Pb  Pb79  1  0.01051857  0.75848303  0.75110170  1
  Pb  Pb80  1  0.25157463  -0.01313432  0.00054590  1
  Pb  Pb81  1  0.24830476  -0.00168281  0.24144827  1
  Pb  Pb82  1  0.23859857  -0.00677262  0.50179364  1
  Pb  Pb83  1  0.25554091  -0.00366837  0.75595981  1
  Pb  Pb84  1  0.24385928  0.24705010  -0.00013321  1
  Pb  Pb85  1  0.23482863  0.25905107  0.25564439  1
  Pb  Pb86  1  0.24763440  0.25762021  0.50185968  1
  Pb  Pb87  1  0.25557543  0.25245840  0.74893380  1
  Pb  Pb88  1  0.26073492  0.50443843  -0.00779859  1
  Pb  Pb89  1  0.25579214  0.50443353  0.24895638  1
  Pb  Pb90  1  0.25196827  0.51488606  0.51258066  1
  Pb  Pb91  1  0.24900299  0.50120247  0.74387505  1
  Pb  Pb92  1  0.24889848  0.74979279  -0.01289717  1
  Pb  Pb93  1  0.26549860  0.75269302  0.24474408  1
  Pb  Pb94  1  0.24907944  0.74818517  0.50401352  1
  Pb  Pb95  1  0.24323584  0.74154501  0.75313221  1
  Pb  Pb96  1  0.49429012  -0.00548343  0.00130498  1
  Pb  Pb97  1  0.49877374  -0.01061821  0.25295358  1
  Pb  Pb98  1  0.49840429  -0.00287364  0.49572637  1
  Pb  Pb99  1  0.49521170  -0.00033428  0.75646315  1
  Pb  Pb100  1  0.49534784  0.25352527  -0.00041172  1
  Pb  Pb101  1  0.49810176  0.25284223  0.24829993  1
  Pb  Pb102  1  0.49409183  0.25743938  0.50512084  1
  Pb  Pb103  1  0.49187463  0.24786286  0.75496067  1
  Pb  Pb104  1  0.49137526  0.50262667  -0.00423696  1
  Pb  Pb105  1  0.49740071  0.51073040  0.24944672  1
  Pb  Pb106  1  0.48789772  0.50529244  0.50580929  1
  Pb  Pb107  1  0.48960582  0.49917243  0.75444276  1
  Pb  Pb108  1  0.48833909  0.73999030  -0.00365539  1
  Pb  Pb109  1  0.49911161  0.74965085  0.24965342  1
  Pb  Pb110  1  0.49470447  0.74419020  0.49329556  1
  Pb  Pb111  1  0.49328118  0.74910617  0.75719506  1
  Pb  Pb112  1  0.76248920  0.00129241  0.01048628  1
  Pb  Pb113  1  0.76314610  -0.00654192  0.25775846  1
  Pb  Pb114  1  0.75943142  -0.00215473  0.49566787  1
  Pb  Pb115  1  0.75227381  0.00157675  0.74412012  1
  Pb  Pb116  1  0.75912054  0.24508014  0.00913988  1
  Pb  Pb117  1  0.75851190  0.25198844  0.25306162  1
  Pb  Pb118  1  0.75735098  0.24499492  0.49477314  1
  Pb  Pb119  1  0.75373298  0.25399935  0.74935951  1
  Pb  Pb120  1  0.75533095  0.49050143  0.00128318  1
  Pb  Pb121  1  0.74511671  0.50524800  0.25204386  1
  Pb  Pb122  1  0.74939019  0.50127866  0.49852208  1
  Pb  Pb123  1  0.74955553  0.50128265  0.75315941  1
  Pb  Pb124  1  0.75646328  0.75377251  0.00320648  1
  Pb  Pb125  1  0.74504472  0.75450943  0.25547211  1
  Pb  Pb126  1  0.74755229  0.75634315  0.49477275  1
  Pb  Pb127  1  0.74659004  0.74674770  0.74920497  1
  O  O128  1  0.12656776  -0.00038971  0.16146611  1
  O  O129  1  0.12957189  -0.00399994  0.40649898  1
  O  O130  1  0.12864897  0.00766216  0.66849301  1
  O  O131  1  0.11763385  0.00904546  0.91416048  1
  O  O132  1  0.12686009  0.26056816  0.15992215  1
  O  O133  1  0.12936061  0.24806593  0.41403378  1
  O  O134  1  0.12710906  0.23975065  0.65929443  1
  O  O135  1  0.11874652  0.24749032  0.91952038  1
  O  O136  1  0.12290449  0.50430375  0.16614890  1
  O  O137  1  0.12576373  0.50791052  0.41371632  1
  O  O138  1  0.12055750  0.49790040  0.66111487  1
  O  O139  1  0.11767789  0.49109433  0.90600117  1
  O  O140  1  0.12229642  0.74026564  0.15823742  1
  O  O141  1  0.12642397  0.75088566  0.41689764  1
  O  O142  1  0.12298048  0.75287984  0.66532393  1
  O  O143  1  0.11923031  0.74809835  0.91041045  1
  O  O144  1  0.38161844  0.01012695  0.16136201  1
  O  O145  1  0.37907455  0.00961962  0.40928598  1
  O  O146  1  0.38070125  -0.00268789  0.67017870  1
  O  O147  1  0.37901190  0.00323242  0.91655753  1
  O  O148  1  0.38204894  0.24711539  0.15953871  1
  O  O149  1  0.37911928  0.25046022  0.41770032  1
  O  O150  1  0.37898621  0.24484941  0.66539327  1
  O  O151  1  0.37570038  0.24645931  0.91864643  1
  O  O152  1  0.37491638  0.49906670  0.16557459  1
  O  O153  1  0.37478844  0.49365787  0.41392910  1
  O  O154  1  0.37866402  0.49699643  0.66744357  1
  O  O155  1  0.37790036  0.49575246  0.90708247  1
  O  O156  1  0.37784275  0.74830803  0.15851722  1
  O  O157  1  0.37281496  0.75051417  0.41429893  1
  O  O158  1  0.38201484  0.75840284  0.66371012  1
  O  O159  1  0.37896705  0.75055721  0.90829423  1
  O  O160  1  0.62133037  0.00200416  0.16078349  1
  O  O161  1  0.61758236  0.01039746  0.40527931  1
  O  O162  1  0.62468835  -0.00295238  0.66295718  1
  O  O163  1  0.63184427  0.00383867  0.91701975  1
  O  O164  1  0.62141949  0.25487416  0.16141419  1
  O  O165  1  0.62068913  0.25487372  0.41697493  1
  O  O166  1  0.62679410  0.25275012  0.66132971  1
  O  O167  1  0.63224361  0.24443175  0.91879741  1
  O  O168  1  0.62617169  0.49834608  0.16374951  1
  O  O169  1  0.62300047  0.49286373  0.41506132  1
  O  O170  1  0.62897768  0.49420113  0.66789210  1
  O  O171  1  0.63273772  0.48988759  0.90589564  1
  O  O172  1  0.62496378  0.75130689  0.16045875  1
  O  O173  1  0.62299101  0.74652336  0.41448474  1
  O  O174  1  0.62754474  0.75424078  0.66346155  1
  O  O175  1  0.63307009  0.75769411  0.91050214  1
  O  O176  1  0.86966907  -0.00228454  0.16595716  1
  O  O177  1  0.87172623  0.00062682  0.40718073  1
  O  O178  1  0.87001607  0.00154370  0.66264932  1
  O  O179  1  0.87278592  0.00378920  0.91921826  1
  O  O180  1  0.87044184  0.25443373  0.16584450  1
  O  O181  1  0.87037950  0.25229727  0.40748237  1
  O  O182  1  0.87161511  0.25119095  0.66024409  1
  O  O183  1  0.87400146  0.24198287  0.91889202  1
  O  O184  1  0.87335048  0.50976849  0.16865116  1
  O  O185  1  0.87724609  0.50749951  0.41633548  1
  O  O186  1  0.87111607  0.49981805  0.66425426  1
  O  O187  1  0.87354016  0.50219858  0.91070475  1
  O  O188  1  0.87225989  0.74150048  0.16705888  1
  O  O189  1  0.87821502  0.74166029  0.41668183  1
  O  O190  1  0.86718817  0.74421955  0.65478112  1
  O  O191  1  0.87233575  0.74859394  0.91450418  1
  O  O192  1  -0.00007190  0.12876350  0.16467784  1
  O  O193  1  0.00199396  0.12455181  0.40301762  1
  O  O194  1  0.00553283  0.12231074  0.65479770  1
  O  O195  1  -0.00522453  0.12520961  0.91916227  1
  O  O196  1  0.00714744  0.38090582  0.16441869  1
  O  O197  1  -0.00142723  0.37841512  0.41278530  1
  O  O198  1  -0.00420252  0.37113542  0.65965015  1
  O  O199  1  0.00290603  0.36920259  0.91915561  1
  O  O200  1  -0.00215533  0.62439839  0.16303810  1
  O  O201  1  0.00321212  0.62722713  0.41661019  1
  O  O202  1  -0.01196370  0.62375377  0.65933971  1
  O  O203  1  -0.01008293  0.62378169  0.91422024  1
  O  O204  1  0.00088990  0.87106623  0.16289491  1
  O  O205  1  0.00877744  0.87296110  0.41013381  1
  O  O206  1  -0.00384385  0.87801032  0.66127101  1
  O  O207  1  -0.00735621  0.87801665  0.91634951  1
  O  O208  1  0.25975071  0.12843020  0.15621432  1
  O  O209  1  0.25913857  0.12887221  0.41041480  1
  O  O210  1  0.25129309  0.12156233  0.66660101  1
  O  O211  1  0.24210837  0.12726486  0.91027472  1
  O  O212  1  0.24497425  0.38027294  0.16031658  1
  O  O213  1  0.25906419  0.37172058  0.41292222  1
  O  O214  1  0.24795093  0.37077393  0.66289334  1
  O  O215  1  0.23811368  0.36876194  0.90895113  1
  O  O216  1  0.24250782  0.62217466  0.15711927  1
  O  O217  1  0.24460727  0.62592295  0.41662806  1
  O  O218  1  0.25037369  0.62732850  0.66631567  1
  O  O219  1  0.24785413  0.62190453  0.90463028  1
  O  O220  1  0.25094117  0.87521546  0.15915007  1
  O  O221  1  0.24576004  0.87490205  0.41360460  1
  O  O222  1  0.25907653  0.87850645  0.66427377  1
  O  O223  1  0.24820275  0.87912944  0.90839011  1
  O  O224  1  0.50375076  0.12847980  0.16725882  1
  O  O225  1  0.49925646  0.13169265  0.41721816  1
  O  O226  1  0.50338962  0.12359483  0.66546779  1
  O  O227  1  0.51072569  0.12581409  0.91329429  1
  O  O228  1  0.50648053  0.37873113  0.16374847  1
  O  O229  1  0.49968031  0.37424397  0.41820119  1
  O  O230  1  0.50974963  0.37350936  0.66446121  1
  O  O231  1  0.51315347  0.36727463  0.90996401  1
  O  O232  1  0.50651768  0.62350312  0.16097284  1
  O  O233  1  0.49774497  0.62032417  0.41509068  1
  O  O234  1  0.50752386  0.62481218  0.66677017  1
  O  O235  1  0.50645899  0.62421684  0.90762478  1
  O  O236  1  0.50584724  0.87633865  0.16272204  1
  O  O237  1  0.49777889  0.87788550  0.41642443  1
  O  O238  1  0.50586674  0.87639405  0.66722085  1
  O  O239  1  0.51392339  0.87901246  0.91259372  1
  O  O240  1  0.73507958  0.12787564  0.16815367  1
  O  O241  1  0.73705213  0.13075160  0.40603294  1
  O  O242  1  0.74307985  0.12513442  0.66364037  1
  O  O243  1  0.75321825  0.12424275  0.92028590  1
  O  O244  1  0.74009695  0.37848294  0.16560316  1
  O  O245  1  0.74279101  0.37681906  0.41093876  1
  O  O246  1  0.74719350  0.37319565  0.66700787  1
  O  O247  1  0.74820994  0.36890217  0.91845118  1
  O  O248  1  0.75100413  0.62544385  0.16561894  1
  O  O249  1  0.75582722  0.62320383  0.41137611  1
  O  O250  1  0.75334135  0.62180044  0.66866707  1
  O  O251  1  0.75752271  0.62432253  0.91703410  1
  O  O252  1  0.74159594  0.87387075  0.16554972  1
  O  O253  1  0.74627874  0.87327870  0.41099673  1
  O  O254  1  0.74262341  0.87604640  0.66181574  1
  O  O255  1  0.74897135  0.87900052  0.92104327  1
  O  O256  1  0.11914754  0.12935380  0.03799885  1
  O  O257  1  0.13517258  0.13462665  0.27723408  1
  O  O258  1  0.13087016  0.11785097  0.54555461  1
  O  O259  1  0.11917036  0.12948408  0.80280547  1
  O  O260  1  0.12441300  0.38263069  0.04776450  1
  O  O261  1  0.12983926  0.37598695  0.29095129  1
  O  O262  1  0.12535806  0.37295632  0.52903835  1
  O  O263  1  0.11379824  0.36647331  0.79680278  1
  O  O264  1  0.12214606  0.62034166  0.04520216  1
  O  O265  1  0.12542976  0.62885554  0.30224361  1
  O  O266  1  0.12823797  0.62938254  0.53807492  1
  O  O267  1  0.11612100  0.62679712  0.77945481  1
  O  O268  1  0.12128913  0.87727638  0.02935544  1
  O  O269  1  0.12845940  0.87043731  0.29681895  1
  O  O270  1  0.13119599  0.88145021  0.53897401  1
  O  O271  1  0.11389284  0.87877333  0.78590335  1
  O  O272  1  0.38094923  0.12668406  0.04519892  1
  O  O273  1  0.37740704  0.13153141  0.29757844  1
  O  O274  1  0.37263815  0.11982375  0.55159195  1
  O  O275  1  0.37918710  0.12405719  0.78465236  1
  O  O276  1  0.37904869  0.37959506  0.03154969  1
  O  O277  1  0.37851795  0.37389956  0.30194637  1
  O  O278  1  0.38018715  0.37273874  0.53807822  1
  O  O279  1  0.38009308  0.36224200  0.78632932  1
  O  O280  1  0.38027900  0.61743151  0.03202269  1
  O  O281  1  0.37112466  0.62316268  0.28428793  1
  O  O282  1  0.37339049  0.61839736  0.54311671  1
  O  O283  1  0.38104262  0.62787803  0.77728013  1
  O  O284  1  0.37914354  0.88134062  0.03225139  1
  O  O285  1  0.37781131  0.87389438  0.28238642  1
  O  O286  1  0.37839909  0.88065924  0.55326882  1
  O  O287  1  0.38502791  0.88154779  0.78592352  1
  O  O288  1  0.62324876  0.12354133  0.05019865  1
  O  O289  1  0.61393529  0.13420475  0.29643285  1
  O  O290  1  0.62402172  0.12368709  0.54554697  1
  O  O291  1  0.63026667  0.12501665  0.80315489  1
  O  O292  1  0.62521472  0.37595479  0.04734024  1
  O  O293  1  0.61936297  0.37418413  0.29995321  1
  O  O294  1  0.62692358  0.37773142  0.54978493  1
  O  O295  1  0.63417210  0.36527950  0.79772225  1
  O  O296  1  0.62906744  0.62202742  0.04723937  1
  O  O297  1  0.62484330  0.62107798  0.28378782  1
  O  O298  1  0.63120261  0.62026338  0.55376697  1
  O  O299  1  0.63942187  0.62720131  0.78305341  1
  O  O300  1  0.62636626  0.87285568  0.05009632  1
  O  O301  1  0.61798077  0.86989473  0.28210674  1
  O  O302  1  0.62098915  0.87657138  0.54808857  1
  O  O303  1  0.63326758  0.87729143  0.79971687  1
  O  O304  1  0.86785180  0.12689167  0.04471776  1
  O  O305  1  0.86713676  0.12629367  0.27768126  1
  O  O306  1  0.86765709  0.12113025  0.52999190  1
  O  O307  1  0.87530455  0.12295759  0.80420835  1
  O  O308  1  0.87353892  0.38520327  0.04306259  1
  O  O309  1  0.87428115  0.38270440  0.28073059  1
  O  O310  1  0.86744760  0.37923200  0.54576905  1
  O  O311  1  0.87698283  0.36322069  0.78879574  1
  O  O312  1  0.87650181  0.62379559  0.04994273  1
  O  O313  1  0.87823167  0.62530987  0.29979942  1
  O  O314  1  0.86927918  0.62060350  0.54590864  1
  O  O315  1  0.87318550  0.62684298  0.79778518  1
  O  O316  1  0.86778899  0.87030762  0.03857953  1
  O  O317  1  0.87030369  0.86680061  0.28680643  1
  O  O318  1  0.87050000  0.88155691  0.52862386  1
  O  O319  1  0.87066096  0.87739415  0.80190079  1
