# generated using pymatgen
data_VFe(PbO3)2
_symmetry_space_group_name_H-M   'P 1'
_cell_length_a   15.37158888
_cell_length_b   15.38618614
_cell_length_c   18.54645458
_cell_angle_alpha   90.00028066
_cell_angle_beta   89.99527194
_cell_angle_gamma   89.99771981
_symmetry_Int_Tables_number   1
_chemical_formula_structural   VFe(PbO3)2
_chemical_formula_sum   'V32 Fe32 Pb64 O192'
_cell_volume   4386.42432265
_cell_formula_units_Z   32
loop_
 _symmetry_equiv_pos_site_id
 _symmetry_equiv_pos_as_xyz
  1  'x, y, z'
loop_
 _atom_site_type_symbol
 _atom_site_label
 _atom_site_symmetry_multiplicity
 _atom_site_fract_x
 _atom_site_fract_y
 _atom_site_fract_z
 _atom_site_occupancy
  V  V0  1  0.87608969  0.62698387  0.89472814  1
  V  V1  1  0.62540302  0.62538958  0.64039451  1
  V  V2  1  0.87439741  0.12233968  0.63564456  1
  V  V3  1  0.87306685  0.37300201  0.63962418  1
  V  V4  1  0.37415889  0.37236461  0.14157833  1
  V  V5  1  0.87517571  0.13603175  0.37875977  1
  V  V6  1  0.12690749  0.37571235  0.14186012  1
  V  V7  1  0.37436757  0.37510558  0.38804122  1
  V  V8  1  0.62275402  0.12439500  0.14449068  1
  V  V9  1  0.37617111  0.37404705  0.88623702  1
  V  V10  1  0.37459495  0.12290733  0.39243146  1
  V  V11  1  0.62330357  0.62649652  0.38500513  1
  V  V12  1  0.12510810  0.62624810  0.38774316  1
  V  V13  1  0.37519422  0.62468446  0.14303261  1
  V  V14  1  0.87494797  0.62182962  0.63974046  1
  V  V15  1  0.62264237  0.37672388  0.14419749  1
  V  V16  1  0.87543411  0.62582364  0.38531202  1
  V  V17  1  0.12547545  0.62628664  0.13654355  1
  V  V18  1  0.87356372  0.87558507  0.38608043  1
  V  V19  1  0.63000637  0.87695042  0.63591484  1
  V  V20  1  0.62403474  0.37257069  0.88930371  1
  V  V21  1  0.87446852  0.37375361  0.89247058  1
  V  V22  1  0.37589648  0.37676566  0.63717145  1
  V  V23  1  0.88038044  0.12577406  0.13981160  1
  V  V24  1  0.37617607  0.12276683  0.88695413  1
  V  V25  1  0.62282346  0.87665460  0.88884786  1
  V  V26  1  0.12641749  0.87532768  0.88821455  1
  V  V27  1  0.87475001  0.87653592  0.89045255  1
  V  V28  1  0.87282309  0.62606737  0.13813632  1
  V  V29  1  0.62470147  0.87376153  0.14269225  1
  V  V30  1  0.12452041  0.62465480  0.63931112  1
  V  V31  1  0.37406624  0.87793658  0.14202262  1
  Fe  Fe32  1  0.12965973  0.12498465  0.13746804  1
  Fe  Fe33  1  0.12382790  0.37740215  0.38774983  1
  Fe  Fe34  1  0.12249043  0.62351187  0.88662977  1
  Fe  Fe35  1  0.12011812  0.87428145  0.62970877  1
  Fe  Fe36  1  0.62808154  0.62368138  0.89844264  1
  Fe  Fe37  1  0.62236787  0.62554989  0.12998286  1
  Fe  Fe38  1  0.37483732  0.62171460  0.63983887  1
  Fe  Fe39  1  0.62521681  0.37834104  0.38875861  1
  Fe  Fe40  1  0.87304121  0.12427443  0.88624851  1
  Fe  Fe41  1  0.37657540  0.12720916  0.62601064  1
  Fe  Fe42  1  0.12617675  0.87449958  0.13629471  1
  Fe  Fe43  1  0.37488078  0.62652392  0.87988983  1
  Fe  Fe44  1  0.37833172  0.12639940  0.14076521  1
  Fe  Fe45  1  0.37511796  0.87358693  0.63563162  1
  Fe  Fe46  1  0.37578799  0.87697494  0.87805535  1
  Fe  Fe47  1  0.62756101  0.12729791  0.62748238  1
  Fe  Fe48  1  0.37286502  0.62320605  0.38365197  1
  Fe  Fe49  1  0.62716952  0.37854958  0.63243878  1
  Fe  Fe50  1  0.87497240  0.37225182  0.14834265  1
  Fe  Fe51  1  0.12598235  0.37412342  0.88291610  1
  Fe  Fe52  1  0.37579982  0.87225994  0.38839900  1
  Fe  Fe53  1  0.12407255  0.12629264  0.62905262  1
  Fe  Fe54  1  0.12358972  0.87286025  0.39069444  1
  Fe  Fe55  1  0.62500218  0.87131878  0.38471023  1
  Fe  Fe56  1  0.87584216  0.38048454  0.37338379  1
  Fe  Fe57  1  0.87442903  0.87816368  0.13626356  1
  Fe  Fe58  1  0.12316549  0.37672306  0.63976163  1
  Fe  Fe59  1  0.62742476  0.12429147  0.39303431  1
  Fe  Fe60  1  0.62790042  0.12560451  0.88654305  1
  Fe  Fe61  1  0.12283277  0.12586695  0.88520390  1
  Fe  Fe62  1  0.87289175  0.86943446  0.63743030  1
  Fe  Fe63  1  0.12171561  0.12628754  0.39278379  1
  Pb  Pb64  1  0.00615410  0.00124057  0.00172141  1
  Pb  Pb65  1  0.01611913  -0.00639112  0.25327138  1
  Pb  Pb66  1  0.00369287  -0.00334901  0.49911090  1
  Pb  Pb67  1  0.00474590  0.00339689  0.74425548  1
  Pb  Pb68  1  0.00457275  0.24484254  -0.00110696  1
  Pb  Pb69  1  0.01257808  0.25125356  0.25749581  1
  Pb  Pb70  1  0.01447075  0.25750013  0.50439294  1
  Pb  Pb71  1  0.00822541  0.24640273  0.75189482  1
  Pb  Pb72  1  -0.00319098  0.49326283  0.00323662  1
  Pb  Pb73  1  0.00134231  0.49508725  0.25029607  1
  Pb  Pb74  1  0.00210162  0.49397824  0.49810757  1
  Pb  Pb75  1  0.00672580  0.49986420  0.75448460  1
  Pb  Pb76  1  0.00262580  0.76371677  0.00576855  1
  Pb  Pb77  1  0.00696512  0.75568870  0.24695980  1
  Pb  Pb78  1  -0.00273861  0.75599243  0.50234684  1
  Pb  Pb79  1  0.00235009  0.74768117  0.74835632  1
  Pb  Pb80  1  0.24103439  0.00189620  0.00254117  1
  Pb  Pb81  1  0.24476436  -0.00023705  0.25329176  1
  Pb  Pb82  1  0.24309834  -0.00275285  0.49828405  1
  Pb  Pb83  1  0.25004699  0.00003044  0.73505266  1
  Pb  Pb84  1  0.24783325  0.24085627  -0.00098213  1
  Pb  Pb85  1  0.24384645  0.24456333  0.25479123  1
  Pb  Pb86  1  0.24833452  0.24659037  0.50051996  1
  Pb  Pb87  1  0.24324128  0.24516117  0.74266377  1
  Pb  Pb88  1  0.24848147  0.50124837  -0.00679969  1
  Pb  Pb89  1  0.25215482  0.50385830  0.25178183  1
  Pb  Pb90  1  0.25316133  0.50388936  0.50195086  1
  Pb  Pb91  1  0.24428237  0.50177982  0.75211529  1
  Pb  Pb92  1  0.25323210  0.75034340  -0.00798603  1
  Pb  Pb93  1  0.25953739  0.75265370  0.25450518  1
  Pb  Pb94  1  0.25666391  0.75908062  0.50154416  1
  Pb  Pb95  1  0.25578015  0.75312191  0.74476259  1
  Pb  Pb96  1  0.49214166  0.00531273  0.00086367  1
  Pb  Pb97  1  0.50237470  -0.00851365  0.25809731  1
  Pb  Pb98  1  0.49650265  -0.00286772  0.49755207  1
  Pb  Pb99  1  0.49760071  0.00174842  0.73951684  1
  Pb  Pb100  1  0.49400103  0.24381984  0.00110757  1
  Pb  Pb101  1  0.50926543  0.24802611  0.25940737  1
  Pb  Pb102  1  0.50143133  0.24614061  0.49946205  1
  Pb  Pb103  1  0.50857940  0.24634838  0.73920775  1
  Pb  Pb104  1  0.50205333  0.50451379  -0.00150977  1
  Pb  Pb105  1  0.50031165  0.50048417  0.25108150  1
  Pb  Pb106  1  0.49336080  0.50447047  0.50040699  1
  Pb  Pb107  1  0.49895404  0.50650047  0.75221438  1
  Pb  Pb108  1  0.50021719  0.74582838  -0.00432088  1
  Pb  Pb109  1  0.49577663  0.75563912  0.25496752  1
  Pb  Pb110  1  0.48836650  0.75266373  0.50135016  1
  Pb  Pb111  1  0.49191484  0.74905026  0.75128931  1
  Pb  Pb112  1  0.75331571  0.00012233  0.00033707  1
  Pb  Pb113  1  0.74584459  0.00737364  0.25304880  1
  Pb  Pb114  1  0.74827060  -0.00032546  0.49621773  1
  Pb  Pb115  1  0.75118441  0.01208641  0.75202989  1
  Pb  Pb116  1  0.75434676  0.25033358  0.00407100  1
  Pb  Pb117  1  0.74233269  0.24911280  0.25689713  1
  Pb  Pb118  1  0.73721372  0.25640113  0.50035628  1
  Pb  Pb119  1  0.74957167  0.24261101  0.74995901  1
  Pb  Pb120  1  0.75587175  0.49217749  0.00790414  1
  Pb  Pb121  1  0.74807394  0.49366462  0.25181935  1
  Pb  Pb122  1  0.74865571  0.49433515  0.49567181  1
  Pb  Pb123  1  0.74400431  0.50511352  0.75448674  1
  Pb  Pb124  1  0.75476150  0.75596836  0.00460641  1
  Pb  Pb125  1  0.74518412  0.75156148  0.24788778  1
  Pb  Pb126  1  0.75618540  0.75149772  0.50016043  1
  Pb  Pb127  1  0.74210991  0.74379363  0.75526828  1
  O  O128  1  0.12820463  0.00004385  0.16744896  1
  O  O129  1  0.12030468  0.00025809  0.41442954  1
  O  O130  1  0.11861500  0.00141532  0.65752269  1
  O  O131  1  0.12344283  -0.00435622  0.91362472  1
  O  O132  1  0.12627962  0.25515062  0.16445155  1
  O  O133  1  0.12319808  0.25223690  0.41619628  1
  O  O134  1  0.12000971  0.25118049  0.66257737  1
  O  O135  1  0.12653111  0.25168957  0.91643144  1
  O  O136  1  0.12750137  0.49819944  0.16329936  1
  O  O137  1  0.11959790  0.50757443  0.41453881  1
  O  O138  1  0.12159308  0.50437383  0.66587385  1
  O  O139  1  0.12421757  0.49653836  0.91777290  1
  O  O140  1  0.12720569  0.74626595  0.16229325  1
  O  O141  1  0.12207310  0.74082224  0.41332240  1
  O  O142  1  0.12175047  0.74235784  0.66109254  1
  O  O143  1  0.12327148  0.75611883  0.91212705  1
  O  O144  1  0.37971763  -0.00657487  0.16627097  1
  O  O145  1  0.37624658  0.00526584  0.40947019  1
  O  O146  1  0.37916784  0.00038510  0.65728709  1
  O  O147  1  0.37776721  0.00467442  0.90996470  1
  O  O148  1  0.37785103  0.25650612  0.16872009  1
  O  O149  1  0.37447483  0.25572402  0.41152142  1
  O  O150  1  0.37755302  0.25841247  0.65913885  1
  O  O151  1  0.37785131  0.24709316  0.91303998  1
  O  O152  1  0.37366146  0.49674993  0.16823900  1
  O  O153  1  0.37443217  0.49662435  0.41496337  1
  O  O154  1  0.37623621  0.49392021  0.66813812  1
  O  O155  1  0.37668922  0.49177148  0.90780562  1
  O  O156  1  0.37513906  0.75305276  0.16454425  1
  O  O157  1  0.37463261  0.74451507  0.41530201  1
  O  O158  1  0.37797582  0.74749065  0.66278555  1
  O  O159  1  0.37449218  0.75361312  0.91036584  1
  O  O160  1  0.62156238  -0.00421166  0.16654123  1
  O  O161  1  0.62982596  -0.00277749  0.41373912  1
  O  O162  1  0.63047437  -0.00565742  0.65231584  1
  O  O163  1  0.62815727  -0.00640328  0.91566018  1
  O  O164  1  0.62209396  0.25333081  0.16904856  1
  O  O165  1  0.62746595  0.25206613  0.41346899  1
  O  O166  1  0.62955646  0.25346169  0.65857430  1
  O  O167  1  0.62571470  0.25453254  0.91770778  1
  O  O168  1  0.62312775  0.49714711  0.16188036  1
  O  O169  1  0.62946250  0.50979475  0.41304557  1
  O  O170  1  0.62781160  0.50559511  0.66573148  1
  O  O171  1  0.62464498  0.49118678  0.92000587  1
  O  O172  1  0.62297974  0.75382534  0.16071620  1
  O  O173  1  0.62791667  0.73977189  0.41301668  1
  O  O174  1  0.62818400  0.74458380  0.66516380  1
  O  O175  1  0.62732289  0.75864853  0.91660840  1
  O  O176  1  0.86725355  0.00859592  0.16034616  1
  O  O177  1  0.87262925  -0.01193018  0.40730623  1
  O  O178  1  0.87245282  0.00527543  0.65617962  1
  O  O179  1  0.87383890  -0.00433899  0.91551478  1
  O  O180  1  0.86984361  0.24112853  0.16830557  1
  O  O181  1  0.87441550  0.24944616  0.37422191  1
  O  O182  1  0.87129881  0.25418119  0.65874258  1
  O  O183  1  0.87210239  0.25699916  0.91586534  1
  O  O184  1  0.87556116  0.51076200  0.16422572  1
  O  O185  1  0.87646835  0.50936360  0.40668416  1
  O  O186  1  0.87389122  0.50273554  0.66851456  1
  O  O187  1  0.87407395  0.49810243  0.91884889  1
  O  O188  1  0.87578533  0.74335670  0.16444226  1
  O  O189  1  0.87441399  0.74529551  0.41397907  1
  O  O190  1  0.87270614  0.74032526  0.66977510  1
  O  O191  1  0.87593867  0.74758442  0.91600193  1
  O  O192  1  -0.00438942  0.12562219  0.15621981  1
  O  O193  1  -0.01540084  0.12317440  0.41213961  1
  O  O194  1  -0.00972023  0.12933907  0.65977491  1
  O  O195  1  -0.00249030  0.12681961  0.91640558  1
  O  O196  1  0.00765488  0.37649724  0.16284066  1
  O  O197  1  -0.00545176  0.37711878  0.41368081  1
  O  O198  1  -0.01154035  0.37830902  0.66633595  1
  O  O199  1  -0.00731599  0.37541362  0.91458443  1
  O  O200  1  0.00213073  0.62477859  0.16179623  1
  O  O201  1  -0.00327540  0.62714400  0.41059321  1
  O  O202  1  0.00077261  0.62343566  0.66453740  1
  O  O203  1  -0.00767809  0.62267372  0.91933583  1
  O  O204  1  -0.00186459  0.87528519  0.16424096  1
  O  O205  1  -0.00889513  0.86695617  0.41161118  1
  O  O206  1  -0.00324047  0.87106699  0.66706327  1
  O  O207  1  0.00165796  0.87462432  0.91534937  1
  O  O208  1  0.25426708  0.12611746  0.17004174  1
  O  O209  1  0.25559798  0.12835348  0.41310347  1
  O  O210  1  0.25111577  0.12807409  0.65522641  1
  O  O211  1  0.25794545  0.12506883  0.91021341  1
  O  O212  1  0.24828728  0.37542538  0.16671707  1
  O  O213  1  0.25589053  0.37798440  0.41354373  1
  O  O214  1  0.25575715  0.37697315  0.66074869  1
  O  O215  1  0.25936075  0.37109896  0.91073117  1
  O  O216  1  0.24903876  0.62357684  0.16766200  1
  O  O217  1  0.24156963  0.62148529  0.41088970  1
  O  O218  1  0.24252924  0.62203240  0.66070077  1
  O  O219  1  0.25029248  0.62411870  0.91414125  1
  O  O220  1  0.25734894  0.87523565  0.16256839  1
  O  O221  1  0.24963402  0.87334973  0.41439288  1
  O  O222  1  0.24605754  0.87268675  0.65764746  1
  O  O223  1  0.24460914  0.87762257  0.90765820  1
  O  O224  1  0.50380715  0.12520442  0.17378802  1
  O  O225  1  0.49481968  0.12907474  0.41204154  1
  O  O226  1  0.50316373  0.12656880  0.65665349  1
  O  O227  1  0.49760462  0.12497550  0.91416934  1
  O  O228  1  0.50132290  0.37702160  0.16875878  1
  O  O229  1  0.49271971  0.37775893  0.41300038  1
  O  O230  1  0.49713462  0.37852256  0.66085918  1
  O  O231  1  0.49606720  0.37150382  0.91433471  1
  O  O232  1  0.49642241  0.62352351  0.16341924  1
  O  O233  1  0.50651228  0.62142032  0.40349869  1
  O  O234  1  0.50825889  0.62285808  0.66330502  1
  O  O235  1  0.49831540  0.62400192  0.91520977  1
  O  O236  1  0.50017278  0.87303207  0.16683044  1
  O  O237  1  0.50192965  0.87240085  0.41683053  1
  O  O238  1  0.51397263  0.87125764  0.66063184  1
  O  O239  1  0.50586199  0.87686934  0.90997933  1
  O  O240  1  0.74416053  0.12531891  0.16786525  1
  O  O241  1  0.76532183  0.12350622  0.41442286  1
  O  O242  1  0.75506891  0.12716920  0.66190679  1
  O  O243  1  0.74985837  0.12568530  0.92257151  1
  O  O244  1  0.74135748  0.37570685  0.16583908  1
  O  O245  1  0.75558990  0.37955647  0.41061531  1
  O  O246  1  0.75744474  0.38091294  0.66557274  1
  O  O247  1  0.75213532  0.37635997  0.91785298  1
  O  O248  1  0.75287186  0.62711906  0.15686690  1
  O  O249  1  0.75460559  0.62606044  0.40947679  1
  O  O250  1  0.74760937  0.62352109  0.66812327  1
  O  O251  1  0.76001500  0.62373954  0.92217069  1
  O  O252  1  0.74414866  0.87387788  0.16289933  1
  O  O253  1  0.75494784  0.86544989  0.41172768  1
  O  O254  1  0.74437232  0.86895099  0.66655362  1
  O  O255  1  0.74909822  0.87337358  0.91720728  1
  O  O256  1  0.13371845  0.12164438  0.03632550  1
  O  O257  1  0.12168562  0.13080116  0.29039686  1
  O  O258  1  0.11960131  0.12898799  0.52783844  1
  O  O259  1  0.11960566  0.12909470  0.78529845  1
  O  O260  1  0.12955459  0.37520261  0.05099691  1
  O  O261  1  0.11859044  0.37222157  0.28761932  1
  O  O262  1  0.11416238  0.37752561  0.53883287  1
  O  O263  1  0.12170516  0.37682149  0.78253109  1
  O  O264  1  0.12818521  0.62460839  0.04561379  1
  O  O265  1  0.12471690  0.62540499  0.29659557  1
  O  O266  1  0.12195340  0.62142002  0.54858928  1
  O  O267  1  0.12013344  0.61975956  0.78761736  1
  O  O268  1  0.12360863  0.88055592  0.03613586  1
  O  O269  1  0.11911849  0.87729482  0.28902724  1
  O  O270  1  0.11497927  0.87286937  0.52870367  1
  O  O271  1  0.12106673  0.87665761  0.79758287  1
  O  O272  1  0.38341796  0.12423219  0.04076833  1
  O  O273  1  0.37494640  0.12783955  0.30125198  1
  O  O274  1  0.37762252  0.13210054  0.52622478  1
  O  O275  1  0.37893997  0.12488141  0.79652203  1
  O  O276  1  0.37481856  0.37324615  0.05078868  1
  O  O277  1  0.37460152  0.37757689  0.29707100  1
  O  O278  1  0.37599030  0.38236465  0.54590559  1
  O  O279  1  0.37781807  0.37019487  0.79612144  1
  O  O280  1  0.37097318  0.62430996  0.05194538  1
  O  O281  1  0.36688911  0.62518234  0.28348468  1
  O  O282  1  0.37663628  0.61367656  0.53891317  1
  O  O283  1  0.37910539  0.62427981  0.77937220  1
  O  O284  1  0.37761281  0.87825460  0.05097906  1
  O  O285  1  0.38032144  0.86794977  0.28702879  1
  O  O286  1  0.37938060  0.86782793  0.53384825  1
  O  O287  1  0.37875964  0.87456584  0.77840583  1
  O  O288  1  0.62011655  0.12520661  0.05329183  1
  O  O289  1  0.63281495  0.12847851  0.29147125  1
  O  O290  1  0.63252559  0.12951128  0.52685843  1
  O  O291  1  0.63523718  0.12485297  0.78698867  1
  O  O292  1  0.62064881  0.37227446  0.05356545  1
  O  O293  1  0.62393746  0.37945117  0.28798941  1
  O  O294  1  0.63501584  0.37986340  0.53222018  1
  O  O295  1  0.62559401  0.37500251  0.79825245  1
  O  O296  1  0.61769866  0.62456180  0.03014232  1
  O  O297  1  0.62912700  0.62661002  0.29345775  1
  O  O298  1  0.62724593  0.62552693  0.54989666  1
  O  O299  1  0.63551739  0.62309233  0.79793624  1
  O  O300  1  0.62157787  0.87750902  0.05213599  1
  O  O301  1  0.61951948  0.86796855  0.28459534  1
  O  O302  1  0.63330371  0.86810227  0.54496246  1
  O  O303  1  0.62692996  0.87595500  0.79812176  1
  O  O304  1  0.87193479  0.13023211  0.04833945  1
  O  O305  1  0.87221827  0.10921639  0.28968660  1
  O  O306  1  0.87320812  0.12784574  0.54549417  1
  O  O307  1  0.86421815  0.12490828  0.78657550  1
  O  O308  1  0.87083474  0.37871671  0.04778478  1
  O  O309  1  0.87592189  0.38951169  0.27130976  1
  O  O310  1  0.87389597  0.37850699  0.54858768  1
  O  O311  1  0.87259342  0.37548772  0.80221824  1
  O  O312  1  0.87761649  0.62548097  0.04698287  1
  O  O313  1  0.87479988  0.62955370  0.29459227  1
  O  O314  1  0.87338071  0.62319401  0.54867716  1
  O  O315  1  0.87394485  0.62433234  0.80395674  1
  O  O316  1  0.87403778  0.86801772  0.03649605  1
  O  O317  1  0.87265543  0.87143554  0.29456877  1
  O  O318  1  0.87308478  0.86229654  0.53809816  1
  O  O319  1  0.87345772  0.87463606  0.79983297  1
