# generated using pymatgen
data_VFe(PbO3)2
_symmetry_space_group_name_H-M   'P 1'
_cell_length_a   15.38317795
_cell_length_b   15.37956568
_cell_length_c   18.49241857
_cell_angle_alpha   90.01636678
_cell_angle_beta   90.01535163
_cell_angle_gamma   90.00990028
_symmetry_Int_Tables_number   1
_chemical_formula_structural   VFe(PbO3)2
_chemical_formula_sum   'V32 Fe32 Pb64 O192'
_cell_volume   4375.05795568
_cell_formula_units_Z   32
loop_
 _symmetry_equiv_pos_site_id
 _symmetry_equiv_pos_as_xyz
  1  'x, y, z'
loop_
 _atom_site_type_symbol
 _atom_site_label
 _atom_site_symmetry_multiplicity
 _atom_site_fract_x
 _atom_site_fract_y
 _atom_site_fract_z
 _atom_site_occupancy
  V  V0  1  0.37386958  0.12477157  0.64310589  1
  V  V1  1  0.12453269  0.87549388  0.38982902  1
  V  V2  1  0.37518032  0.12529647  0.13354163  1
  V  V3  1  0.87376271  0.62462909  0.13687918  1
  V  V4  1  0.37765995  0.62578296  0.89068343  1
  V  V5  1  0.12693203  0.12670593  0.64152266  1
  V  V6  1  0.87420182  0.87513144  0.89224263  1
  V  V7  1  0.37668830  0.87319233  0.64229141  1
  V  V8  1  0.62490490  0.12485190  0.89161219  1
  V  V9  1  0.87717502  0.12669008  0.38552614  1
  V  V10  1  0.62393400  0.37786602  0.13516857  1
  V  V11  1  0.62481838  0.87516403  0.89785971  1
  V  V12  1  0.37464447  0.87287989  0.38551218  1
  V  V13  1  0.37682111  0.37356154  0.39090923  1
  V  V14  1  0.62563493  0.37671560  0.88762360  1
  V  V15  1  0.37118404  0.12213223  0.38734858  1
  V  V16  1  0.62982160  0.37558414  0.39388026  1
  V  V17  1  0.12324952  0.12417216  0.89553352  1
  V  V18  1  0.12409552  0.62620307  0.88825297  1
  V  V19  1  0.12719708  0.37632514  0.64176019  1
  V  V20  1  0.12618364  0.87340260  0.13551034  1
  V  V21  1  0.12125585  0.62379736  0.13651487  1
  V  V22  1  0.37433779  0.12550093  0.89347635  1
  V  V23  1  0.12523689  0.37464073  0.38938394  1
  V  V24  1  0.12760587  0.62690425  0.64286485  1
  V  V25  1  0.87541192  0.62441499  0.39243132  1
  V  V26  1  0.62478218  0.87755512  0.63663529  1
  V  V27  1  0.87458635  0.87493877  0.63712128  1
  V  V28  1  0.12634732  0.62153281  0.38895410  1
  V  V29  1  0.12417126  0.37744613  0.89555966  1
  V  V30  1  0.87546917  0.62398001  0.88862949  1
  V  V31  1  0.87429827  0.12557286  0.89542855  1
  Fe  Fe32  1  0.37174705  0.62342602  0.38603067  1
  Fe  Fe33  1  0.62504769  0.62685544  0.63366574  1
  Fe  Fe34  1  0.37547257  0.37506028  0.12663777  1
  Fe  Fe35  1  0.87486331  0.12549407  0.13229920  1
  Fe  Fe36  1  0.62335233  0.37204605  0.63013134  1
  Fe  Fe37  1  0.37368732  0.62424194  0.13083830  1
  Fe  Fe38  1  0.12414376  0.12569858  0.13242048  1
  Fe  Fe39  1  0.37330009  0.62617716  0.63639489  1
  Fe  Fe40  1  0.37308955  0.37500886  0.63793739  1
  Fe  Fe41  1  0.87690948  0.37549641  0.39299996  1
  Fe  Fe42  1  0.87640310  0.87479423  0.37779188  1
  Fe  Fe43  1  0.87806679  0.12234637  0.63356131  1
  Fe  Fe44  1  0.12759319  0.12753933  0.38235307  1
  Fe  Fe45  1  0.87341176  0.37849779  0.13201765  1
  Fe  Fe46  1  0.37470449  0.87737116  0.89897171  1
  Fe  Fe47  1  0.62299718  0.62390805  0.38728092  1
  Fe  Fe48  1  0.37242560  0.87565602  0.12704727  1
  Fe  Fe49  1  0.12689912  0.87728047  0.63879950  1
  Fe  Fe50  1  0.62501783  0.87527884  0.37867375  1
  Fe  Fe51  1  0.62595370  0.62212328  0.12551894  1
  Fe  Fe52  1  0.62853230  0.62654242  0.89654293  1
  Fe  Fe53  1  0.12509702  0.37820098  0.13048269  1
  Fe  Fe54  1  0.87368128  0.37255794  0.89103637  1
  Fe  Fe55  1  0.87812893  0.62757344  0.63481420  1
  Fe  Fe56  1  0.87655331  0.37376657  0.62984077  1
  Fe  Fe57  1  0.62597268  0.12812604  0.14172133  1
  Fe  Fe58  1  0.87637539  0.87217729  0.14274842  1
  Fe  Fe59  1  0.62373542  0.87374478  0.13655122  1
  Fe  Fe60  1  0.37643184  0.37253606  0.89726773  1
  Fe  Fe61  1  0.62250297  0.12755469  0.37980479  1
  Fe  Fe62  1  0.62342368  0.12253825  0.63555983  1
  Fe  Fe63  1  0.12270282  0.87445310  0.88602881  1
  Pb  Pb64  1  -0.00801716  0.00344384  0.00517051  1
  Pb  Pb65  1  -0.00372861  0.00236091  0.24489291  1
  Pb  Pb66  1  -0.00286523  0.00374753  0.49682120  1
  Pb  Pb67  1  0.00661078  -0.00179560  0.75002722  1
  Pb  Pb68  1  0.00615481  0.25094268  0.00803271  1
  Pb  Pb69  1  -0.00124738  0.25200191  0.24008089  1
  Pb  Pb70  1  -0.01029799  0.24674103  0.50256913  1
  Pb  Pb71  1  -0.00743448  0.25393267  0.75165262  1
  Pb  Pb72  1  -0.00248906  0.49155945  0.00243256  1
  Pb  Pb73  1  -0.00599173  0.48865339  0.25221874  1
  Pb  Pb74  1  -0.00566712  0.49970337  0.50505117  1
  Pb  Pb75  1  -0.00913416  0.49403239  0.75093759  1
  Pb  Pb76  1  -0.00656746  0.75541651  0.00107720  1
  Pb  Pb77  1  -0.00218801  0.75249379  0.25185371  1
  Pb  Pb78  1  -0.00078128  0.74875146  0.49889108  1
  Pb  Pb79  1  0.00554343  0.75635037  0.74995194  1
  Pb  Pb80  1  0.24852687  -0.00285075  -0.00056359  1
  Pb  Pb81  1  0.24542720  0.00724969  0.24609947  1
  Pb  Pb82  1  0.24267714  -0.00497241  0.50175876  1
  Pb  Pb83  1  0.25177058  -0.00642565  0.75818368  1
  Pb  Pb84  1  0.24186410  0.25202179  0.00588127  1
  Pb  Pb85  1  0.24372151  0.25168975  0.24128831  1
  Pb  Pb86  1  0.25409053  0.25691843  0.50137293  1
  Pb  Pb87  1  0.25478144  0.25459976  0.75854109  1
  Pb  Pb88  1  0.25732858  0.50115010  0.00345153  1
  Pb  Pb89  1  0.25819131  0.50108511  0.24365772  1
  Pb  Pb90  1  0.25967079  0.50079765  0.50404331  1
  Pb  Pb91  1  0.26191875  0.49619768  0.75676042  1
  Pb  Pb92  1  0.25516564  0.74992951  -0.00126916  1
  Pb  Pb93  1  0.25793023  0.74480789  0.24531039  1
  Pb  Pb94  1  0.24767112  0.75007958  0.50072968  1
  Pb  Pb95  1  0.25234862  0.76121360  0.75735424  1
  Pb  Pb96  1  0.51355691  -0.00049237  0.00994688  1
  Pb  Pb97  1  0.50733193  -0.00489713  0.24393719  1
  Pb  Pb98  1  0.50684241  0.00489104  0.49494188  1
  Pb  Pb99  1  0.49167559  -0.00776164  0.75677328  1
  Pb  Pb100  1  0.50751744  0.24550867  0.00272389  1
  Pb  Pb101  1  0.50319155  0.24869263  0.24771958  1
  Pb  Pb102  1  0.50416188  0.25248658  0.50413707  1
  Pb  Pb103  1  0.50113259  0.25708015  0.74922362  1
  Pb  Pb104  1  0.49361540  0.50622757  0.00198686  1
  Pb  Pb105  1  0.49761969  0.51244627  0.24518052  1
  Pb  Pb106  1  0.50033198  0.50256372  0.50260955  1
  Pb  Pb107  1  0.50412039  0.50055952  0.74352344  1
  Pb  Pb108  1  0.50606521  0.75394354  0.00787135  1
  Pb  Pb109  1  0.50109068  0.74708013  0.23866967  1
  Pb  Pb110  1  0.50258674  0.73808973  0.49642993  1
  Pb  Pb111  1  0.50715447  0.73998084  0.75497136  1
  Pb  Pb112  1  0.75286807  0.00169134  0.01099028  1
  Pb  Pb113  1  0.74937797  -0.00456810  0.24196305  1
  Pb  Pb114  1  0.74876545  0.00529451  0.48921828  1
  Pb  Pb115  1  0.75083927  0.00189402  0.74578524  1
  Pb  Pb116  1  0.75126804  0.24081876  0.00509288  1
  Pb  Pb117  1  0.75653564  0.25218782  0.24555643  1
  Pb  Pb118  1  0.74175983  0.24712561  0.50223720  1
  Pb  Pb119  1  0.75350376  0.25230939  0.73991293  1
  Pb  Pb120  1  0.75200702  0.49649382  -0.00184354  1
  Pb  Pb121  1  0.74551860  0.50290008  0.25105353  1
  Pb  Pb122  1  0.74936138  0.50790612  0.50623110  1
  Pb  Pb123  1  0.74943904  0.49707115  0.73935416  1
  Pb  Pb124  1  0.75169626  0.76190307  0.00945683  1
  Pb  Pb125  1  0.73479507  0.75231061  0.24857171  1
  Pb  Pb126  1  0.74487230  0.75199500  0.49323050  1
  Pb  Pb127  1  0.74431541  0.73918617  0.75245842  1
  O  O128  1  0.12531992  -0.00780108  0.15636974  1
  O  O129  1  0.12867448  -0.00111539  0.41364830  1
  O  O130  1  0.12799956  0.00459906  0.66839849  1
  O  O131  1  0.12298821  0.00343216  0.91593939  1
  O  O132  1  0.12584245  0.25182113  0.16003931  1
  O  O133  1  0.12893042  0.25709268  0.41110313  1
  O  O134  1  0.12827753  0.25202982  0.66856440  1
  O  O135  1  0.12208737  0.25011186  0.91758411  1
  O  O136  1  0.12333813  0.50806227  0.15880277  1
  O  O137  1  0.12745790  0.49720007  0.41694581  1
  O  O138  1  0.12609222  0.49647139  0.66345199  1
  O  O139  1  0.12228109  0.49813575  0.91382984  1
  O  O140  1  0.12483202  0.74840444  0.16325613  1
  O  O141  1  0.12700667  0.74859716  0.41629800  1
  O  O142  1  0.12716469  0.74648711  0.66563573  1
  O  O143  1  0.12194219  0.74473137  0.91289619  1
  O  O144  1  0.37240783  0.00603223  0.15692021  1
  O  O145  1  0.37095272  0.00242696  0.41032725  1
  O  O146  1  0.37344488  -0.00068029  0.67019925  1
  O  O147  1  0.37594247  0.00997787  0.91923338  1
  O  O148  1  0.37423875  0.24590220  0.15705265  1
  O  O149  1  0.37097095  0.25134177  0.41258611  1
  O  O150  1  0.37077408  0.24267792  0.66595653  1
  O  O151  1  0.37701198  0.24141241  0.91828254  1
  O  O152  1  0.37329077  0.49914014  0.16099720  1
  O  O153  1  0.37177983  0.49188946  0.41388438  1
  O  O154  1  0.37158550  0.50109119  0.66787083  1
  O  O155  1  0.37244796  0.50483174  0.91268016  1
  O  O156  1  0.36950894  0.74990000  0.15770129  1
  O  O157  1  0.37061988  0.75727717  0.40840510  1
  O  O158  1  0.37237483  0.75722543  0.66407664  1
  O  O159  1  0.37287841  0.74308462  0.91249923  1
  O  O160  1  0.62254852  0.00109964  0.16022577  1
  O  O161  1  0.62052000  0.00217200  0.40846381  1
  O  O162  1  0.62203341  -0.00533289  0.66842192  1
  O  O163  1  0.62772222  -0.00062851  0.92037180  1
  O  O164  1  0.62381025  0.26011019  0.16359262  1
  O  O165  1  0.62044191  0.25357370  0.41437875  1
  O  O166  1  0.62209788  0.24609605  0.66536795  1
  O  O167  1  0.62682662  0.24883625  0.91592439  1
  O  O168  1  0.62700921  0.49582073  0.16094219  1
  O  O169  1  0.62278044  0.49302478  0.41652992  1
  O  O170  1  0.62462289  0.49989582  0.65924697  1
  O  O171  1  0.62780184  0.49320984  0.90712237  1
  O  O172  1  0.62619004  0.74501715  0.15719106  1
  O  O173  1  0.62300067  0.75156361  0.41217079  1
  O  O174  1  0.62493241  0.75941155  0.66662322  1
  O  O175  1  0.62706428  0.75762037  0.91793515  1
  O  O176  1  0.87871380  -0.00098007  0.16240345  1
  O  O177  1  0.87827701  0.00606319  0.40800627  1
  O  O178  1  0.87819027  -0.00704407  0.66636039  1
  O  O179  1  0.87310357  0.00057052  0.91824425  1
  O  O180  1  0.87457338  0.25352662  0.15836300  1
  O  O181  1  0.87769439  0.24423817  0.41266081  1
  O  O182  1  0.88074727  0.24861150  0.66157253  1
  O  O183  1  0.87299317  0.24260491  0.91366530  1
  O  O184  1  0.87781614  0.50841309  0.16540102  1
  O  O185  1  0.87827439  0.50578007  0.41788743  1
  O  O186  1  0.88051841  0.49984067  0.66153687  1
  O  O187  1  0.87561636  0.50565258  0.91033312  1
  O  O188  1  0.87972058  0.73897339  0.16506081  1
  O  O189  1  0.87886375  0.74442184  0.41163843  1
  O  O190  1  0.87749432  0.75861095  0.66255877  1
  O  O191  1  0.87607896  0.74844879  0.91556823  1
  O  O192  1  0.00033985  0.12461299  0.16007266  1
  O  O193  1  -0.00114734  0.12555224  0.40948228  1
  O  O194  1  0.00692024  0.12323604  0.66699468  1
  O  O195  1  -0.00531282  0.12319212  0.91601482  1
  O  O196  1  -0.00010082  0.37988221  0.16195698  1
  O  O197  1  0.00985190  0.37666039  0.41397766  1
  O  O198  1  0.00962810  0.37324016  0.66521682  1
  O  O199  1  0.00364628  0.37366525  0.91590534  1
  O  O200  1  0.00276870  0.62630042  0.16411056  1
  O  O201  1  0.00168842  0.62454384  0.41709818  1
  O  O202  1  0.00940467  0.62577234  0.66747156  1
  O  O203  1  -0.00452554  0.62470965  0.91424402  1
  O  O204  1  0.00995038  0.86981463  0.16478316  1
  O  O205  1  0.00300477  0.87415552  0.41193976  1
  O  O206  1  -0.00345179  0.87561151  0.66265923  1
  O  O207  1  -0.00438363  0.87594611  0.91544737  1
  O  O208  1  0.25491199  0.12481042  0.15943488  1
  O  O209  1  0.25582639  0.12734615  0.41604913  1
  O  O210  1  0.25357776  0.12293142  0.67137400  1
  O  O211  1  0.25302099  0.12669856  0.91409388  1
  O  O212  1  0.25044112  0.37656705  0.15651730  1
  O  O213  1  0.24925689  0.37491566  0.41556431  1
  O  O214  1  0.24411285  0.37352030  0.67112274  1
  O  O215  1  0.24191242  0.37233755  0.91599446  1
  O  O216  1  0.24051250  0.62571915  0.16014908  1
  O  O217  1  0.24572173  0.62432732  0.41684661  1
  O  O218  1  0.24277238  0.62488141  0.66954849  1
  O  O219  1  0.24801543  0.62293009  0.91213363  1
  O  O220  1  0.24275821  0.87330911  0.15951377  1
  O  O221  1  0.25380153  0.87705228  0.41706333  1
  O  O222  1  0.25683805  0.87782156  0.66836211  1
  O  O223  1  0.24590078  0.87565167  0.91612624  1
  O  O224  1  0.49150334  0.12730103  0.16149958  1
  O  O225  1  0.48812956  0.12759656  0.41204799  1
  O  O226  1  0.48957828  0.12107590  0.66724289  1
  O  O227  1  0.50081016  0.12442473  0.91726650  1
  O  O228  1  0.50554119  0.37753595  0.15778451  1
  O  O229  1  0.49397810  0.37300684  0.41241045  1
  O  O230  1  0.49777081  0.37244027  0.66453518  1
  O  O231  1  0.50931736  0.37163139  0.91347223  1
  O  O232  1  0.50087759  0.62195233  0.15480612  1
  O  O233  1  0.49626875  0.62201024  0.41374414  1
  O  O234  1  0.49932392  0.63019189  0.66601036  1
  O  O235  1  0.49427449  0.62436712  0.91001333  1
  O  O236  1  0.49533237  0.87385489  0.15768720  1
  O  O237  1  0.48898405  0.87868969  0.40801602  1
  O  O238  1  0.49582170  0.87754056  0.66588957  1
  O  O239  1  0.50676846  0.87767498  0.91630925  1
  O  O240  1  0.75121674  0.12736245  0.16485297  1
  O  O241  1  0.75494631  0.12675820  0.40588184  1
  O  O242  1  0.75140473  0.12036292  0.66314593  1
  O  O243  1  0.75108960  0.12251429  0.91710633  1
  O  O244  1  0.74429473  0.37854719  0.16218769  1
  O  O245  1  0.74563813  0.37312294  0.41249622  1
  O  O246  1  0.75102378  0.37287931  0.65620353  1
  O  O247  1  0.74365649  0.37168467  0.91432921  1
  O  O248  1  0.75684924  0.62216608  0.15600274  1
  O  O249  1  0.75634321  0.62281738  0.41335823  1
  O  O250  1  0.75180386  0.62878227  0.66431820  1
  O  O251  1  0.76015926  0.62715543  0.91424503  1
  O  O252  1  0.75036863  0.87223992  0.16060541  1
  O  O253  1  0.75224420  0.87612215  0.40743149  1
  O  O254  1  0.75334566  0.87867353  0.65943397  1
  O  O255  1  0.75035917  0.87621664  0.92118131  1
  O  O256  1  0.12497357  0.13086674  0.03127746  1
  O  O257  1  0.13655918  0.12423796  0.28327188  1
  O  O258  1  0.12828293  0.12644706  0.55025384  1
  O  O259  1  0.12290080  0.12683156  0.80413121  1
  O  O260  1  0.11831041  0.37160974  0.02977194  1
  O  O261  1  0.12639342  0.37838192  0.29807801  1
  O  O262  1  0.12943439  0.37250775  0.55095067  1
  O  O263  1  0.12406795  0.37402466  0.80411704  1
  O  O264  1  0.11984702  0.62661843  0.04578601  1
  O  O265  1  0.12479709  0.62109204  0.29759153  1
  O  O266  1  0.12779062  0.62692231  0.55172372  1
  O  O267  1  0.12310215  0.62425741  0.79713594  1
  O  O268  1  0.12292860  0.86984971  0.04440119  1
  O  O269  1  0.12879761  0.87341670  0.29891678  1
  O  O270  1  0.13397769  0.87719927  0.53932631  1
  O  O271  1  0.12468642  0.87236816  0.78472229  1
  O  O272  1  0.37576372  0.12594234  0.04246347  1
  O  O273  1  0.36939246  0.12355902  0.29648098  1
  O  O274  1  0.37231527  0.12233050  0.55220317  1
  O  O275  1  0.37640653  0.12443081  0.80201110  1
  O  O276  1  0.37488585  0.38201961  0.02491841  1
  O  O277  1  0.37389251  0.37444605  0.30005977  1
  O  O278  1  0.36570355  0.37230473  0.53779083  1
  O  O279  1  0.36770360  0.36930486  0.79621946  1
  O  O280  1  0.37115722  0.61781922  0.03003188  1
  O  O281  1  0.36760277  0.62010002  0.28558420  1
  O  O282  1  0.37118750  0.62380879  0.53616202  1
  O  O283  1  0.37366320  0.62526500  0.79868217  1
  O  O284  1  0.37118490  0.87243611  0.02552233  1
  O  O285  1  0.36919808  0.87507908  0.29465230  1
  O  O286  1  0.37638688  0.87788825  0.55159018  1
  O  O287  1  0.37328762  0.88239838  0.79699186  1
  O  O288  1  0.62363441  0.13014049  0.03924177  1
  O  O289  1  0.61394793  0.13324812  0.27995319  1
  O  O290  1  0.62002642  0.12465204  0.53492889  1
  O  O291  1  0.62420925  0.12193412  0.80111684  1
  O  O292  1  0.62693715  0.37707179  0.04390361  1
  O  O293  1  0.62427901  0.37607706  0.30286361  1
  O  O294  1  0.62036224  0.36590353  0.52923282  1
  O  O295  1  0.62510568  0.37055769  0.79624088  1
  O  O296  1  0.62262010  0.62111853  0.02339474  1
  O  O297  1  0.62973281  0.61823123  0.28694856  1
  O  O298  1  0.62514468  0.62725718  0.53224293  1
  O  O299  1  0.62730823  0.63731197  0.79492553  1
  O  O300  1  0.62317513  0.87352925  0.03366350  1
  O  O301  1  0.62195924  0.87075760  0.27798874  1
  O  O302  1  0.62082099  0.87858739  0.54532266  1
  O  O303  1  0.62851643  0.87725143  0.80676959  1
  O  O304  1  0.86928964  0.11891049  0.03090561  1
  O  O305  1  0.87909958  0.12813474  0.29427073  1
  O  O306  1  0.88312239  0.12109613  0.53374770  1
  O  O307  1  0.87378652  0.12069513  0.80417497  1
  O  O308  1  0.87295366  0.38623235  0.03069307  1
  O  O309  1  0.87923129  0.38120313  0.29293292  1
  O  O310  1  0.88467196  0.37328482  0.52825409  1
  O  O311  1  0.88259413  0.37298049  0.79087982  1
  O  O312  1  0.87892744  0.62392280  0.04607789  1
  O  O313  1  0.87785143  0.62146784  0.30130844  1
  O  O314  1  0.88032103  0.62492699  0.53527339  1
  O  O315  1  0.87598621  0.62776971  0.79698932  1
  O  O316  1  0.87786127  0.86734195  0.04024380  1
  O  O317  1  0.88325019  0.87150019  0.27775422  1
  O  O318  1  0.87604008  0.87751311  0.54613369  1
  O  O319  1  0.87130295  0.87454445  0.80127278  1
