# generated using pymatgen
data_VFe(PbO3)2
_symmetry_space_group_name_H-M   'P 1'
_cell_length_a   15.36305143
_cell_length_b   15.37420139
_cell_length_c   18.56003613
_cell_angle_alpha   89.93878692
_cell_angle_beta   90.02563841
_cell_angle_gamma   89.98347970
_symmetry_Int_Tables_number   1
_chemical_formula_structural   VFe(PbO3)2
_chemical_formula_sum   'V32 Fe32 Pb64 O192'
_cell_volume   4383.77804990
_cell_formula_units_Z   32
loop_
 _symmetry_equiv_pos_site_id
 _symmetry_equiv_pos_as_xyz
  1  'x, y, z'
loop_
 _atom_site_type_symbol
 _atom_site_label
 _atom_site_symmetry_multiplicity
 _atom_site_fract_x
 _atom_site_fract_y
 _atom_site_fract_z
 _atom_site_occupancy
  V  V0  1  0.87846237  0.12196302  0.38636485  1
  V  V1  1  0.87390419  0.12260778  0.63631381  1
  V  V2  1  0.37323489  0.87243186  0.63865592  1
  V  V3  1  0.62357862  0.37601196  0.13897827  1
  V  V4  1  0.12452662  0.12491096  0.63899381  1
  V  V5  1  0.37667770  0.12497644  0.38844059  1
  V  V6  1  0.37530613  0.87473799  0.38686950  1
  V  V7  1  0.12740352  0.37784430  0.13950006  1
  V  V8  1  0.37638743  0.62648812  0.63558014  1
  V  V9  1  0.87644846  0.87389500  0.63657117  1
  V  V10  1  0.87501974  0.87190365  0.13812088  1
  V  V11  1  0.62392012  0.12571807  0.89115849  1
  V  V12  1  0.62408137  0.87312480  0.14193067  1
  V  V13  1  0.62482965  0.62481793  0.63736045  1
  V  V14  1  0.62632495  0.37562965  0.88763014  1
  V  V15  1  0.87294678  0.87338011  0.88831580  1
  V  V16  1  0.37625769  0.12185579  0.63999312  1
  V  V17  1  0.37656068  0.12767249  0.13952476  1
  V  V18  1  0.12223659  0.87571826  0.89042257  1
  V  V19  1  0.37556337  0.37661582  0.38893478  1
  V  V20  1  0.12764494  0.62438650  0.39052830  1
  V  V21  1  0.62805994  0.12594898  0.39121179  1
  V  V22  1  0.37499372  0.87551692  0.13891879  1
  V  V23  1  0.87489468  0.87462613  0.38976881  1
  V  V24  1  0.12638617  0.87176897  0.14206715  1
  V  V25  1  0.12381796  0.37442755  0.88510343  1
  V  V26  1  0.37353082  0.87605062  0.89117663  1
  V  V27  1  0.37455121  0.62212104  0.14452512  1
  V  V28  1  0.87577964  0.12318070  0.89340260  1
  V  V29  1  0.37430347  0.62623561  0.88837860  1
  V  V30  1  0.87552471  0.62328199  0.39264529  1
  V  V31  1  0.87627244  0.62250845  0.14161497  1
  Fe  Fe32  1  0.62518280  0.87646809  0.63882011  1
  Fe  Fe33  1  0.12674288  0.37410666  0.63145310  1
  Fe  Fe34  1  0.12550265  0.37366095  0.38958513  1
  Fe  Fe35  1  0.62456172  0.37511826  0.39036746  1
  Fe  Fe36  1  0.62340515  0.37297778  0.63039286  1
  Fe  Fe37  1  0.87548712  0.37506074  0.13345316  1
  Fe  Fe38  1  0.12510787  0.62403396  0.88515652  1
  Fe  Fe39  1  0.62596686  0.87654245  0.38681195  1
  Fe  Fe40  1  0.62481566  0.12521918  0.63311913  1
  Fe  Fe41  1  0.87370416  0.62697632  0.63196777  1
  Fe  Fe42  1  0.12291569  0.62518961  0.13659785  1
  Fe  Fe43  1  0.62480935  0.62558637  0.88473223  1
  Fe  Fe44  1  0.12801911  0.12506932  0.38075955  1
  Fe  Fe45  1  0.37554673  0.37599253  0.13315254  1
  Fe  Fe46  1  0.12457835  0.12617055  0.88784431  1
  Fe  Fe47  1  0.12530219  0.87790022  0.63373121  1
  Fe  Fe48  1  0.12407281  0.87568423  0.38974092  1
  Fe  Fe49  1  0.12603633  0.12481238  0.14051338  1
  Fe  Fe50  1  0.37384218  0.12479731  0.88400556  1
  Fe  Fe51  1  0.62408842  0.12419954  0.13418398  1
  Fe  Fe52  1  0.62439609  0.62619084  0.38132168  1
  Fe  Fe53  1  0.87419682  0.12189360  0.13598325  1
  Fe  Fe54  1  0.87544715  0.37211485  0.38996353  1
  Fe  Fe55  1  0.87450353  0.62505191  0.88035125  1
  Fe  Fe56  1  0.87452717  0.37341767  0.62980572  1
  Fe  Fe57  1  0.12658881  0.62713250  0.63684708  1
  Fe  Fe58  1  0.62468686  0.87626816  0.88391182  1
  Fe  Fe59  1  0.87395961  0.37322211  0.88733192  1
  Fe  Fe60  1  0.62785744  0.62439424  0.14394063  1
  Fe  Fe61  1  0.37487379  0.37604839  0.88724595  1
  Fe  Fe62  1  0.37394468  0.37438141  0.63471292  1
  Fe  Fe63  1  0.37401014  0.62658865  0.38387897  1
  Pb  Pb64  1  0.00024277  0.00819880  0.00576196  1
  Pb  Pb65  1  0.00723676  0.00069730  0.24986565  1
  Pb  Pb66  1  0.00601342  -0.00160575  0.49797504  1
  Pb  Pb67  1  0.00545350  0.00574194  0.75031950  1
  Pb  Pb68  1  -0.00617560  0.25050959  0.00411197  1
  Pb  Pb69  1  -0.00301598  0.25000253  0.24617047  1
  Pb  Pb70  1  0.00366375  0.25898521  0.49692990  1
  Pb  Pb71  1  -0.00233028  0.25681559  0.74624202  1
  Pb  Pb72  1  -0.00435821  0.49929361  -0.00677025  1
  Pb  Pb73  1  -0.00023026  0.48541110  0.25606027  1
  Pb  Pb74  1  0.00100710  0.50005396  0.50303539  1
  Pb  Pb75  1  -0.00273144  0.50209109  0.73894234  1
  Pb  Pb76  1  0.00363223  0.74110622  -0.00101985  1
  Pb  Pb77  1  0.00444666  0.75410942  0.25343151  1
  Pb  Pb78  1  0.00191687  0.73933455  0.50745081  1
  Pb  Pb79  1  0.00278262  0.73942990  0.74830400  1
  Pb  Pb80  1  0.24516532  0.00714329  0.00300353  1
  Pb  Pb81  1  0.24366941  -0.00151175  0.25369707  1
  Pb  Pb82  1  0.24681606  -0.00336866  0.49791713  1
  Pb  Pb83  1  0.25040769  0.01046720  0.75431817  1
  Pb  Pb84  1  0.24899951  0.24708492  -0.00347032  1
  Pb  Pb85  1  0.23946007  0.25126076  0.25286377  1
  Pb  Pb86  1  0.25036971  0.25527735  0.50070479  1
  Pb  Pb87  1  0.25408948  0.24698838  0.75010180  1
  Pb  Pb88  1  0.25043125  0.49526946  -0.00087763  1
  Pb  Pb89  1  0.24783401  0.49748915  0.25215707  1
  Pb  Pb90  1  0.24967603  0.49000473  0.50502500  1
  Pb  Pb91  1  0.24807819  0.49366510  0.74527673  1
  Pb  Pb92  1  0.24614850  0.74439877  0.00237238  1
  Pb  Pb93  1  0.25529565  0.74647823  0.25351174  1
  Pb  Pb94  1  0.23703822  0.74854025  0.50305475  1
  Pb  Pb95  1  0.24271021  0.74740665  0.74976866  1
  Pb  Pb96  1  0.50506391  0.00475458  -0.00024460  1
  Pb  Pb97  1  0.50290664  -0.00645104  0.25150394  1
  Pb  Pb98  1  0.50709570  0.00013837  0.50392733  1
  Pb  Pb99  1  0.50345529  -0.00321384  0.75037643  1
  Pb  Pb100  1  0.49535661  0.25203915  -0.00298334  1
  Pb  Pb101  1  0.50607209  0.25695693  0.25035852  1
  Pb  Pb102  1  0.50215121  0.25207510  0.50289940  1
  Pb  Pb103  1  0.49538128  0.25301414  0.74640639  1
  Pb  Pb104  1  0.49893991  0.49814625  0.00106915  1
  Pb  Pb105  1  0.50914694  0.50060953  0.25522769  1
  Pb  Pb106  1  0.50417142  0.49949540  0.49531024  1
  Pb  Pb107  1  0.49776985  0.49449254  0.74747894  1
  Pb  Pb108  1  0.50624723  0.74474099  0.00104438  1
  Pb  Pb109  1  0.50023437  0.74156972  0.25518173  1
  Pb  Pb110  1  0.50586501  0.75113134  0.49383504  1
  Pb  Pb111  1  0.50978064  0.74974680  0.75224173  1
  Pb  Pb112  1  0.74983193  0.00631683  0.00316604  1
  Pb  Pb113  1  0.74631945  -0.00378865  0.24862405  1
  Pb  Pb114  1  0.73946636  0.00029499  0.50460747  1
  Pb  Pb115  1  0.74521884  -0.00398480  0.74811363  1
  Pb  Pb116  1  0.75483100  0.24735181  0.00464293  1
  Pb  Pb117  1  0.75460361  0.25027518  0.24631433  1
  Pb  Pb118  1  0.74997092  0.25855716  0.50224062  1
  Pb  Pb119  1  0.75099732  0.25737191  0.74497691  1
  Pb  Pb120  1  0.75255932  0.50244605  -0.00366263  1
  Pb  Pb121  1  0.75010042  0.48568885  0.25630276  1
  Pb  Pb122  1  0.74976096  0.49325736  0.49844629  1
  Pb  Pb123  1  0.76227768  0.49625615  0.74595599  1
  Pb  Pb124  1  0.74167691  0.73972619  0.00094186  1
  Pb  Pb125  1  0.74346820  0.74850000  0.25407154  1
  Pb  Pb126  1  0.75167979  0.74852371  0.49896421  1
  Pb  Pb127  1  0.74726944  0.73934462  0.75228526  1
  O  O128  1  0.12759292  -0.00833236  0.16452739  1
  O  O129  1  0.12655829  0.00260871  0.41598107  1
  O  O130  1  0.12483945  0.00290026  0.66632319  1
  O  O131  1  0.12622505  -0.00807072  0.91723158  1
  O  O132  1  0.12835213  0.25669989  0.16220822  1
  O  O133  1  0.12698072  0.24627415  0.41259561  1
  O  O134  1  0.12668266  0.24389771  0.66229404  1
  O  O135  1  0.12574266  0.25595203  0.91254626  1
  O  O136  1  0.12655605  0.49722504  0.16480221  1
  O  O137  1  0.12334282  0.50795619  0.41401497  1
  O  O138  1  0.12768155  0.50089524  0.66036018  1
  O  O139  1  0.12373070  0.49396282  0.90996851  1
  O  O140  1  0.12517787  0.75321932  0.16768179  1
  O  O141  1  0.12312189  0.74659669  0.41336928  1
  O  O142  1  0.12711029  0.75540499  0.66511942  1
  O  O143  1  0.12611780  0.75765555  0.91630936  1
  O  O144  1  0.37570309  -0.00295881  0.16594788  1
  O  O145  1  0.37646013  0.00131294  0.41176241  1
  O  O146  1  0.37351450  -0.00019023  0.66320114  1
  O  O147  1  0.37263465  -0.00773056  0.91308534  1
  O  O148  1  0.37772651  0.24494699  0.15902765  1
  O  O149  1  0.37649205  0.24700430  0.41254631  1
  O  O150  1  0.37331836  0.24191854  0.66056502  1
  O  O151  1  0.37534524  0.25053582  0.91496019  1
  O  O152  1  0.37470715  0.50509713  0.16402914  1
  O  O153  1  0.37397223  0.49420905  0.40769681  1
  O  O154  1  0.37638887  0.50982040  0.65906545  1
  O  O155  1  0.37556183  0.50747772  0.91406807  1
  O  O156  1  0.37395504  0.75164985  0.16733366  1
  O  O157  1  0.37490995  0.75898068  0.40933862  1
  O  O158  1  0.37710514  0.75297080  0.66152098  1
  O  O159  1  0.37296978  0.74775965  0.91562744  1
  O  O160  1  0.62297918  -0.00672014  0.16446206  1
  O  O161  1  0.62226115  0.00506028  0.41537350  1
  O  O162  1  0.62363317  0.00200179  0.66874740  1
  O  O163  1  0.62484313  0.00126802  0.91590895  1
  O  O164  1  0.62254596  0.25520626  0.16145150  1
  O  O165  1  0.62009323  0.24241342  0.41248604  1
  O  O166  1  0.62170899  0.24773275  0.66251703  1
  O  O167  1  0.62482669  0.25111530  0.91501688  1
  O  O168  1  0.62408481  0.49519561  0.16486071  1
  O  O169  1  0.62536697  0.50262025  0.41336577  1
  O  O170  1  0.62108413  0.50858849  0.65816690  1
  O  O171  1  0.62576580  0.49448167  0.91049590  1
  O  O172  1  0.62540179  0.75549773  0.16648524  1
  O  O173  1  0.62674979  0.75129049  0.41267673  1
  O  O174  1  0.62122504  0.74721020  0.66207970  1
  O  O175  1  0.62393696  0.75300626  0.91688088  1
  O  O176  1  0.87510398  -0.00944470  0.16429136  1
  O  O177  1  0.87118924  0.00352405  0.41389688  1
  O  O178  1  0.87666667  0.00357225  0.66465317  1
  O  O179  1  0.87814296  -0.00011711  0.91662306  1
  O  O180  1  0.87488285  0.25082030  0.16426675  1
  O  O181  1  0.87288363  0.23724442  0.41176122  1
  O  O182  1  0.87581255  0.24066383  0.66132845  1
  O  O183  1  0.87436784  0.24266796  0.91597690  1
  O  O184  1  0.87578991  0.50516699  0.16113623  1
  O  O185  1  0.87724789  0.50723173  0.41210673  1
  O  O186  1  0.87248661  0.50061143  0.65623606  1
  O  O187  1  0.87389063  0.49894140  0.91239220  1
  O  O188  1  0.87546204  0.75175577  0.17010446  1
  O  O189  1  0.87586875  0.75502286  0.41235442  1
  O  O190  1  0.87301354  0.75903578  0.65740452  1
  O  O191  1  0.87790322  0.75907648  0.90999565  1
  O  O192  1  0.00049417  0.12246667  0.16460200  1
  O  O193  1  -0.00561193  0.12013058  0.40520087  1
  O  O194  1  -0.00284531  0.12325775  0.66431876  1
  O  O195  1  -0.00402105  0.12265595  0.91568136  1
  O  O196  1  0.00647482  0.37658537  0.16231293  1
  O  O197  1  -0.00012924  0.37523238  0.41489818  1
  O  O198  1  0.00027208  0.37106451  0.65882044  1
  O  O199  1  0.00567238  0.37207595  0.91189140  1
  O  O200  1  -0.00642585  0.62850247  0.16682774  1
  O  O201  1  -0.00006268  0.62869219  0.41636060  1
  O  O202  1  -0.00127394  0.62920070  0.66070267  1
  O  O203  1  -0.00056634  0.62793547  0.91251598  1
  O  O204  1  0.00393757  0.87256748  0.16404475  1
  O  O205  1  -0.00862841  0.88035075  0.41417307  1
  O  O206  1  -0.00669449  0.88039987  0.66094725  1
  O  O207  1  0.00271408  0.87711212  0.91392168  1
  O  O208  1  0.25976586  0.12231467  0.16521177  1
  O  O209  1  0.25980582  0.12389294  0.41119660  1
  O  O210  1  0.25196604  0.12169910  0.66381500  1
  O  O211  1  0.24959656  0.12251214  0.91808113  1
  O  O212  1  0.24806767  0.37706089  0.16390496  1
  O  O213  1  0.25671638  0.37305281  0.41343371  1
  O  O214  1  0.25086069  0.37448428  0.66563950  1
  O  O215  1  0.24355537  0.37718900  0.91213125  1
  O  O216  1  0.25336017  0.62757026  0.16652126  1
  O  O217  1  0.24494436  0.62767384  0.41031353  1
  O  O218  1  0.26030698  0.63100086  0.66135647  1
  O  O219  1  0.25493518  0.62634824  0.91443017  1
  O  O220  1  0.24788842  0.87264889  0.16416977  1
  O  O221  1  0.25731913  0.87889349  0.41238834  1
  O  O222  1  0.25780987  0.87710974  0.66416154  1
  O  O223  1  0.25008681  0.87236618  0.91565664  1
  O  O224  1  0.49475481  0.12130455  0.16580897  1
  O  O225  1  0.49669795  0.12385011  0.41499821  1
  O  O226  1  0.49268561  0.12182479  0.66139170  1
  O  O227  1  0.50091861  0.12240200  0.91406924  1
  O  O228  1  0.50298533  0.37625268  0.16454422  1
  O  O229  1  0.49293996  0.37164739  0.41340361  1
  O  O230  1  0.49891111  0.37647740  0.66390665  1
  O  O231  1  0.50785561  0.37571094  0.91484285  1
  O  O232  1  0.49430719  0.62846753  0.16512401  1
  O  O233  1  0.49777027  0.62694897  0.41291781  1
  O  O234  1  0.49671021  0.62926938  0.66243864  1
  O  O235  1  0.49364018  0.62703483  0.91430519  1
  O  O236  1  0.50196907  0.87355412  0.16446190  1
  O  O237  1  0.49362611  0.87881850  0.41189841  1
  O  O238  1  0.49113592  0.87850297  0.66514679  1
  O  O239  1  0.49124234  0.87259083  0.91457068  1
  O  O240  1  0.74742105  0.12281875  0.16563694  1
  O  O241  1  0.74554081  0.12258776  0.40954550  1
  O  O242  1  0.75697917  0.12191326  0.65880900  1
  O  O243  1  0.75347029  0.12203699  0.91665694  1
  O  O244  1  0.74430215  0.37630491  0.16162914  1
  O  O245  1  0.75047985  0.37245151  0.41425336  1
  O  O246  1  0.74841795  0.37275013  0.66022027  1
  O  O247  1  0.74226742  0.37133219  0.91458610  1
  O  O248  1  0.75929034  0.62790653  0.16834886  1
  O  O249  1  0.75692457  0.62957165  0.41097387  1
  O  O250  1  0.74243459  0.62967233  0.65712587  1
  O  O251  1  0.75089129  0.62712222  0.91537725  1
  O  O252  1  0.74655724  0.87347378  0.16329457  1
  O  O253  1  0.75719834  0.87815775  0.41519664  1
  O  O254  1  0.75752467  0.88129544  0.66275127  1
  O  O255  1  0.75767197  0.88000088  0.90919737  1
  O  O256  1  0.12765895  0.11839690  0.04006631  1
  O  O257  1  0.13353537  0.12121763  0.27970191  1
  O  O258  1  0.12379777  0.12178085  0.54785342  1
  O  O259  1  0.12562877  0.11893431  0.78847491  1
  O  O260  1  0.12790846  0.37906312  0.04878443  1
  O  O261  1  0.12926410  0.37917658  0.28891653  1
  O  O262  1  0.13263646  0.37469306  0.52990884  1
  O  O263  1  0.12420060  0.37365929  0.79411621  1
  O  O264  1  0.12422785  0.63240275  0.03750526  1
  O  O265  1  0.12272980  0.62446414  0.29935044  1
  O  O266  1  0.12544795  0.63393985  0.53584799  1
  O  O267  1  0.12687003  0.63515251  0.78563444  1
  O  O268  1  0.12559012  0.87114726  0.05129626  1
  O  O269  1  0.12187047  0.87863066  0.28997954  1
  O  O270  1  0.13007389  0.87815074  0.53337748  1
  O  O271  1  0.12416683  0.87580156  0.79979125  1
  O  O272  1  0.37635955  0.12239692  0.04832680  1
  O  O273  1  0.37814711  0.12625650  0.29800688  1
  O  O274  1  0.37395063  0.12113437  0.54914332  1
  O  O275  1  0.36704761  0.12470246  0.78463703  1
  O  O276  1  0.37809848  0.38376025  0.03392317  1
  O  O277  1  0.37577051  0.37194784  0.29771584  1
  O  O278  1  0.36685850  0.37454671  0.53458903  1
  O  O279  1  0.37948363  0.37882287  0.78740596  1
  O  O280  1  0.37347033  0.62549432  0.05339497  1
  O  O281  1  0.37314985  0.63234141  0.28446873  1
  O  O282  1  0.37621550  0.62806026  0.54481080  1
  O  O283  1  0.37424658  0.62657395  0.79793468  1
  O  O284  1  0.37517118  0.87460817  0.04840359  1
  O  O285  1  0.37508396  0.87718361  0.29539047  1
  O  O286  1  0.37348869  0.87357361  0.54798020  1
  O  O287  1  0.37298838  0.87334245  0.80068227  1
  O  O288  1  0.62569340  0.11787977  0.03491387  1
  O  O289  1  0.62294443  0.12364184  0.30016215  1
  O  O290  1  0.62164898  0.11858347  0.53314230  1
  O  O291  1  0.62649933  0.12633224  0.80042107  1
  O  O292  1  0.62194137  0.37801006  0.04821784  1
  O  O293  1  0.62075815  0.37732479  0.28919959  1
  O  O294  1  0.62303548  0.37131543  0.52915064  1
  O  O295  1  0.62581872  0.37345548  0.79675019  1
  O  O296  1  0.62863103  0.63113801  0.04377498  1
  O  O297  1  0.62202184  0.62732890  0.27954812  1
  O  O298  1  0.62069908  0.62774072  0.54632773  1
  O  O299  1  0.62471004  0.63374020  0.78533303  1
  O  O300  1  0.62343547  0.87321410  0.05094107  1
  O  O301  1  0.62780785  0.88065490  0.28718740  1
  O  O302  1  0.62428185  0.88448588  0.53841110  1
  O  O303  1  0.62020222  0.87675837  0.78410473  1
  O  O304  1  0.87406138  0.12288028  0.03538824  1
  O  O305  1  0.87308359  0.12237660  0.29534734  1
  O  O306  1  0.87792793  0.12237608  0.54582291  1
  O  O307  1  0.87416298  0.12304647  0.80298132  1
  O  O308  1  0.87696218  0.36883874  0.03344273  1
  O  O309  1  0.87501028  0.37914171  0.28800293  1
  O  O310  1  0.87164825  0.36877843  0.52876048  1
  O  O311  1  0.86920231  0.36979525  0.78726608  1
  O  O312  1  0.87504925  0.62818407  0.05032969  1
  O  O313  1  0.87986333  0.62624673  0.30226239  1
  O  O314  1  0.87707507  0.63314450  0.53140668  1
  O  O315  1  0.86806005  0.62822822  0.78001584  1
  O  O316  1  0.87456122  0.86955577  0.04744787  1
  O  O317  1  0.87475461  0.87552441  0.29891393  1
  O  O318  1  0.87529670  0.87818291  0.54554790  1
  O  O319  1  0.87687974  0.87646630  0.79783897  1
