# generated using pymatgen
data_VFe(PbO3)2
_symmetry_space_group_name_H-M   'P 1'
_cell_length_a   15.37314473
_cell_length_b   15.39102490
_cell_length_c   18.57210452
_cell_angle_alpha   90.03182605
_cell_angle_beta   90.03146280
_cell_angle_gamma   90.00358188
_symmetry_Int_Tables_number   1
_chemical_formula_structural   VFe(PbO3)2
_chemical_formula_sum   'V32 Fe32 Pb64 O192'
_cell_volume   4394.31557450
_cell_formula_units_Z   32
loop_
 _symmetry_equiv_pos_site_id
 _symmetry_equiv_pos_as_xyz
  1  'x, y, z'
loop_
 _atom_site_type_symbol
 _atom_site_label
 _atom_site_symmetry_multiplicity
 _atom_site_fract_x
 _atom_site_fract_y
 _atom_site_fract_z
 _atom_site_occupancy
  V  V0  1  0.13245452  0.12519987  0.13984375  1
  V  V1  1  0.62291592  0.38252666  0.38723891  1
  V  V2  1  0.37324494  0.87572169  0.64041201  1
  V  V3  1  0.37499028  0.61448059  0.13509674  1
  V  V4  1  0.87743813  0.37667539  0.89210156  1
  V  V5  1  0.62682592  0.62542458  0.64067383  1
  V  V6  1  0.37504101  0.87247312  0.13862641  1
  V  V7  1  0.12463483  0.87397561  0.89141750  1
  V  V8  1  0.87590775  0.62136428  0.63927845  1
  V  V9  1  0.12414039  0.62545458  0.63809027  1
  V  V10  1  0.12296620  0.37559658  0.63952421  1
  V  V11  1  0.87284456  0.87599172  0.38910569  1
  V  V12  1  0.62709740  0.37677931  0.64152896  1
  V  V13  1  0.37492706  0.37512702  0.64186067  1
  V  V14  1  0.87111659  0.62910603  0.38391141  1
  V  V15  1  0.37491403  0.87029777  0.88676015  1
  V  V16  1  0.37362064  0.12680032  0.64110925  1
  V  V17  1  0.37252636  0.13048458  0.88502587  1
  V  V18  1  0.12696574  0.62334269  0.89419198  1
  V  V19  1  0.62824219  0.62546097  0.89224176  1
  V  V20  1  0.37651518  0.36721538  0.13905593  1
  V  V21  1  0.88045944  0.12539548  0.13470474  1
  V  V22  1  0.62544394  0.12626028  0.13560969  1
  V  V23  1  0.12486743  0.12505744  0.64178178  1
  V  V24  1  0.37831090  0.12269389  0.13623337  1
  V  V25  1  0.87458133  0.12738266  0.64149079  1
  V  V26  1  0.62784893  0.12671295  0.39296172  1
  V  V27  1  0.87916362  0.62674610  0.90680514  1
  V  V28  1  0.62486666  0.87431180  0.39149858  1
  V  V29  1  0.62471081  0.37530754  0.89093232  1
  V  V30  1  0.37680699  0.62858812  0.39060894  1
  V  V31  1  0.12582118  0.87326057  0.38886217  1
  Fe  Fe32  1  0.87859564  0.87345028  0.63943084  1
  Fe  Fe33  1  0.62392321  0.87398738  0.88025679  1
  Fe  Fe34  1  0.12751129  0.37261957  0.14023427  1
  Fe  Fe35  1  0.62662762  0.12703839  0.87716361  1
  Fe  Fe36  1  0.62458350  0.12637758  0.64682932  1
  Fe  Fe37  1  0.87360836  0.12075104  0.38511176  1
  Fe  Fe38  1  0.87361175  0.62582042  0.12528416  1
  Fe  Fe39  1  0.12615071  0.37660834  0.37891811  1
  Fe  Fe40  1  0.62106007  0.37054854  0.13441335  1
  Fe  Fe41  1  0.37849162  0.37256857  0.38528919  1
  Fe  Fe42  1  0.87189904  0.37384864  0.38032179  1
  Fe  Fe43  1  0.87442094  0.87894187  0.12351563  1
  Fe  Fe44  1  0.87594885  0.87315594  0.89715293  1
  Fe  Fe45  1  0.62176264  0.88093015  0.13035892  1
  Fe  Fe46  1  0.37636691  0.62610113  0.88410036  1
  Fe  Fe47  1  0.62098858  0.62563764  0.13509793  1
  Fe  Fe48  1  0.37519587  0.38004367  0.88233848  1
  Fe  Fe49  1  0.12635860  0.87994784  0.13355429  1
  Fe  Fe50  1  0.62733510  0.87361733  0.64762625  1
  Fe  Fe51  1  0.87523883  0.37638010  0.63541795  1
  Fe  Fe52  1  0.12131000  0.62756135  0.37879838  1
  Fe  Fe53  1  0.87290305  0.37307921  0.13701992  1
  Fe  Fe54  1  0.12627401  0.37677417  0.88668988  1
  Fe  Fe55  1  0.12210445  0.12341355  0.38214369  1
  Fe  Fe56  1  0.12460683  0.87338952  0.63713093  1
  Fe  Fe57  1  0.12784638  0.62697014  0.14058828  1
  Fe  Fe58  1  0.37810218  0.87758206  0.38728957  1
  Fe  Fe59  1  0.12580580  0.12495274  0.88331627  1
  Fe  Fe60  1  0.62655988  0.62891240  0.38235205  1
  Fe  Fe61  1  0.37605992  0.12144726  0.38918471  1
  Fe  Fe62  1  0.87710065  0.12720245  0.88363082  1
  Fe  Fe63  1  0.37484741  0.62390840  0.64028138  1
  Pb  Pb64  1  -0.00422259  0.00021462  -0.00439406  1
  Pb  Pb65  1  0.00002506  0.00911459  0.24854130  1
  Pb  Pb66  1  -0.00178122  -0.00548052  0.49948069  1
  Pb  Pb67  1  -0.00370346  0.00550259  0.75272105  1
  Pb  Pb68  1  0.00552676  0.25487845  -0.00172782  1
  Pb  Pb69  1  -0.00227702  0.25846714  0.25128883  1
  Pb  Pb70  1  -0.00152747  0.25156792  0.48836826  1
  Pb  Pb71  1  0.00109646  0.24450861  0.75327178  1
  Pb  Pb72  1  -0.00568511  0.49606354  0.01060045  1
  Pb  Pb73  1  -0.00146703  0.50057623  0.23841410  1
  Pb  Pb74  1  -0.00211581  0.49596669  0.48795522  1
  Pb  Pb75  1  0.00611130  0.49804782  0.75129249  1
  Pb  Pb76  1  0.01283689  0.74800928  0.01263217  1
  Pb  Pb77  1  -0.00302274  0.75377807  0.23441907  1
  Pb  Pb78  1  -0.00287929  0.75789239  0.50177319  1
  Pb  Pb79  1  -0.00654230  0.75824099  0.75538276  1
  Pb  Pb80  1  0.25043875  -0.00716992  -0.00145439  1
  Pb  Pb81  1  0.25566357  0.00555734  0.25373833  1
  Pb  Pb82  1  0.25039697  0.00109983  0.49678565  1
  Pb  Pb83  1  0.24545530  0.00473453  0.75053317  1
  Pb  Pb84  1  0.24217277  0.25875688  -0.00141339  1
  Pb  Pb85  1  0.24976997  0.25543004  0.25684009  1
  Pb  Pb86  1  0.24811276  0.25076077  0.48972507  1
  Pb  Pb87  1  0.24248504  0.25819753  0.75417697  1
  Pb  Pb88  1  0.24555732  0.49642198  -0.00031833  1
  Pb  Pb89  1  0.23896859  0.49754534  0.25351408  1
  Pb  Pb90  1  0.24890028  0.50092281  0.49238205  1
  Pb  Pb91  1  0.24996415  0.49277407  0.75362883  1
  Pb  Pb92  1  0.24328994  0.74805158  0.00639745  1
  Pb  Pb93  1  0.24618696  0.75262886  0.24960198  1
  Pb  Pb94  1  0.24578153  0.75118888  0.49938613  1
  Pb  Pb95  1  0.25494630  0.74257980  0.74994898  1
  Pb  Pb96  1  0.50583103  -0.00479932  -0.00866378  1
  Pb  Pb97  1  0.49053132  0.00080324  0.25330567  1
  Pb  Pb98  1  0.51119186  -0.00046721  0.50829452  1
  Pb  Pb99  1  0.50893487  -0.00184399  0.75213026  1
  Pb  Pb100  1  0.50596998  0.25444187  -0.00152175  1
  Pb  Pb101  1  0.48954722  0.24605693  0.25473993  1
  Pb  Pb102  1  0.50515803  0.24417480  0.50131700  1
  Pb  Pb103  1  0.50026849  0.25223568  0.75205834  1
  Pb  Pb104  1  0.50529675  0.50252352  -0.00044305  1
  Pb  Pb105  1  0.50732212  0.50184186  0.24999764  1
  Pb  Pb106  1  0.49341426  0.50982274  0.50295312  1
  Pb  Pb107  1  0.49124036  0.49942933  0.75362159  1
  Pb  Pb108  1  0.50919518  0.74788075  0.00235114  1
  Pb  Pb109  1  0.50503537  0.75109985  0.24843518  1
  Pb  Pb110  1  0.49766439  0.74778230  0.50389421  1
  Pb  Pb111  1  0.49881380  0.74621730  0.75163307  1
  Pb  Pb112  1  0.74868482  -0.00083371  -0.01268798  1
  Pb  Pb113  1  0.75336687  0.00354353  0.24340147  1
  Pb  Pb114  1  0.74158997  -0.00331771  0.51076038  1
  Pb  Pb115  1  0.75260101  -0.00638441  0.75335842  1
  Pb  Pb116  1  0.75102808  0.25588761  -0.00076233  1
  Pb  Pb117  1  0.75531335  0.25186335  0.24921495  1
  Pb  Pb118  1  0.75561182  0.25167180  0.50002950  1
  Pb  Pb119  1  0.75402931  0.24166861  0.75392108  1
  Pb  Pb120  1  0.75299330  0.49811747  0.00950467  1
  Pb  Pb121  1  0.75026283  0.50038757  0.23770032  1
  Pb  Pb122  1  0.75771804  0.49850974  0.49719226  1
  Pb  Pb123  1  0.75082892  0.50187428  0.75304570  1
  Pb  Pb124  1  0.74509873  0.76078239  0.00447055  1
  Pb  Pb125  1  0.74816528  0.75221364  0.23254938  1
  Pb  Pb126  1  0.74979527  0.76039228  0.50528783  1
  Pb  Pb127  1  0.75786329  0.76172128  0.75990170  1
  O  O128  1  0.12635927  0.00805279  0.16287264  1
  O  O129  1  0.12158484  -0.01052756  0.41407872  1
  O  O130  1  0.12576893  0.00322107  0.66506509  1
  O  O131  1  0.12838129  -0.00786193  0.90986477  1
  O  O132  1  0.12681044  0.24053271  0.16447595  1
  O  O133  1  0.12483414  0.25121518  0.40914303  1
  O  O134  1  0.12791666  0.25047684  0.66533727  1
  O  O135  1  0.12796938  0.25035313  0.91263353  1
  O  O136  1  0.13250009  0.49993775  0.16139753  1
  O  O137  1  0.12646089  0.50461691  0.41026704  1
  O  O138  1  0.12542809  0.50252295  0.66624528  1
  O  O139  1  0.12315093  0.50616223  0.91681135  1
  O  O140  1  0.13112509  0.75560466  0.16542937  1
  O  O141  1  0.12390737  0.75284532  0.41313819  1
  O  O142  1  0.12469859  0.74050568  0.66311231  1
  O  O143  1  0.12467122  0.74686593  0.91765363  1
  O  O144  1  0.37486148  0.00288871  0.16506673  1
  O  O145  1  0.37712038  -0.00185623  0.42376117  1
  O  O146  1  0.37235493  -0.00067782  0.66330373  1
  O  O147  1  0.37177783  -0.01053342  0.91174636  1
  O  O148  1  0.37595200  0.24761826  0.16397476  1
  O  O149  1  0.38031978  0.24717393  0.41793581  1
  O  O150  1  0.37283133  0.24676927  0.66492012  1
  O  O151  1  0.37317761  0.24532269  0.90182114  1
  O  O152  1  0.37663937  0.49914719  0.15086414  1
  O  O153  1  0.38059078  0.50717060  0.41268621  1
  O  O154  1  0.37618188  0.49672965  0.66511387  1
  O  O155  1  0.37640630  0.50333607  0.91372663  1
  O  O156  1  0.37589124  0.75789483  0.15698309  1
  O  O157  1  0.37881859  0.74867069  0.41686716  1
  O  O158  1  0.37430242  0.75437776  0.66496350  1
  O  O159  1  0.37310111  0.75428775  0.91383038  1
  O  O160  1  0.62208942  0.01022659  0.16134552  1
  O  O161  1  0.62808345  -0.00254623  0.41933504  1
  O  O162  1  0.62506548  0.00033009  0.67018030  1
  O  O163  1  0.62032230  0.00158817  0.90260267  1
  O  O164  1  0.61961249  0.24054615  0.16545330  1
  O  O165  1  0.62583630  0.24640940  0.41273981  1
  O  O166  1  0.62281118  0.25962111  0.66518193  1
  O  O167  1  0.62255138  0.25450137  0.91071939  1
  O  O168  1  0.61635952  0.49802666  0.16155677  1
  O  O169  1  0.62463147  0.49789360  0.40746151  1
  O  O170  1  0.62389491  0.49730108  0.66966072  1
  O  O171  1  0.62470988  0.49656302  0.91477105  1
  O  O172  1  0.61712824  0.75460046  0.15999465  1
  O  O173  1  0.62638700  0.75661252  0.41365531  1
  O  O174  1  0.62538100  0.73986458  0.66257467  1
  O  O175  1  0.62564033  0.74349023  0.91011944  1
  O  O176  1  0.87183396  0.00925646  0.15849167  1
  O  O177  1  0.87315991  -0.00685347  0.41784828  1
  O  O178  1  0.87816290  0.00734660  0.66303622  1
  O  O179  1  0.87836870  0.00130563  0.91011272  1
  O  O180  1  0.87271254  0.23994298  0.16216721  1
  O  O181  1  0.86916771  0.24852774  0.41341191  1
  O  O182  1  0.87714702  0.24851294  0.66405913  1
  O  O183  1  0.87486363  0.25968361  0.91297402  1
  O  O184  1  0.87366924  0.50099776  0.15896901  1
  O  O185  1  0.86926269  0.50703982  0.40679938  1
  O  O186  1  0.87477116  0.50257509  0.67091249  1
  O  O187  1  0.87218877  0.49396297  0.92061324  1
  O  O188  1  0.87357574  0.75267354  0.14986475  1
  O  O189  1  0.87162171  0.74954954  0.41395804  1
  O  O190  1  0.87594845  0.73881836  0.66888680  1
  O  O191  1  0.87289469  0.74103558  0.91877679  1
  O  O192  1  -0.00189598  0.12404818  0.15604798  1
  O  O193  1  -0.00164158  0.12140539  0.41660149  1
  O  O194  1  -0.00055330  0.12789315  0.66541289  1
  O  O195  1  0.00272429  0.12674021  0.91597769  1
  O  O196  1  0.00051248  0.37045793  0.16189959  1
  O  O197  1  -0.00198179  0.37830681  0.40590084  1
  O  O198  1  0.00323202  0.37705616  0.66466452  1
  O  O199  1  -0.00443618  0.37883631  0.91147833  1
  O  O200  1  -0.00073792  0.62704651  0.15687777  1
  O  O201  1  -0.01002940  0.62711369  0.40682310  1
  O  O202  1  0.00364861  0.61980450  0.66408318  1
  O  O203  1  0.00084156  0.62295355  0.92166686  1
  O  O204  1  -0.00077644  0.88106595  0.15682142  1
  O  O205  1  -0.00001097  0.87088761  0.41323439  1
  O  O206  1  0.00193328  0.87216500  0.67151261  1
  O  O207  1  0.00934040  0.86923960  0.91376828  1
  O  O208  1  0.25061524  0.12465555  0.16057118  1
  O  O209  1  0.24786584  0.12030158  0.41469525  1
  O  O210  1  0.25436032  0.12432084  0.66633930  1
  O  O211  1  0.25748339  0.11831343  0.91327586  1
  O  O212  1  0.26090013  0.37072140  0.16377115  1
  O  O213  1  0.25314188  0.37807273  0.41354927  1
  O  O214  1  0.24901701  0.37608531  0.66616684  1
  O  O215  1  0.25194469  0.37805244  0.91615320  1
  O  O216  1  0.26441656  0.62945214  0.16559173  1
  O  O217  1  0.25766933  0.62855794  0.41131252  1
  O  O218  1  0.24340597  0.62279313  0.66183433  1
  O  O219  1  0.24387561  0.62626424  0.91121608  1
  O  O220  1  0.25748203  0.88284544  0.16393502  1
  O  O221  1  0.24443046  0.87188522  0.41194156  1
  O  O222  1  0.25459231  0.87366783  0.66606860  1
  O  O223  1  0.24885368  0.87016293  0.91429482  1
  O  O224  1  0.49983322  0.12490101  0.16245588  1
  O  O225  1  0.51027001  0.12072930  0.41953154  1
  O  O226  1  0.48934524  0.12568216  0.66668307  1
  O  O227  1  0.48882779  0.12112729  0.90826864  1
  O  O228  1  0.49184466  0.37101650  0.16554986  1
  O  O229  1  0.50921587  0.37287054  0.41687768  1
  O  O230  1  0.50235559  0.37585192  0.66727799  1
  O  O231  1  0.50430847  0.37444302  0.91076513  1
  O  O232  1  0.48663153  0.62878299  0.16714153  1
  O  O233  1  0.49921545  0.62851215  0.41797665  1
  O  O234  1  0.50815323  0.62115191  0.66628736  1
  O  O235  1  0.50749931  0.62379056  0.91111838  1
  O  O236  1  0.49298591  0.88351225  0.16237472  1
  O  O237  1  0.50874967  0.87671777  0.41517408  1
  O  O238  1  0.49076332  0.87472464  0.66653844  1
  O  O239  1  0.49355574  0.87188850  0.90569792  1
  O  O240  1  0.74570279  0.12606515  0.15580074  1
  O  O241  1  0.74348206  0.12084138  0.41877938  1
  O  O242  1  0.75712630  0.12862794  0.66423025  1
  O  O243  1  0.74988545  0.12951640  0.90781035  1
  O  O244  1  0.74518719  0.36992398  0.16245154  1
  O  O245  1  0.73995078  0.37393304  0.41334437  1
  O  O246  1  0.74426165  0.37742342  0.66522957  1
  O  O247  1  0.74713939  0.37557301  0.91455989  1
  O  O248  1  0.74781708  0.62622601  0.15443768  1
  O  O249  1  0.75394038  0.62875463  0.41247032  1
  O  O250  1  0.74631534  0.61760352  0.66480435  1
  O  O251  1  0.74486181  0.61957212  0.91931613  1
  O  O252  1  0.74833660  0.88101598  0.15639591  1
  O  O253  1  0.74669244  0.87480443  0.41884679  1
  O  O254  1  0.75565865  0.87252209  0.67087200  1
  O  O255  1  0.74669606  0.87184867  0.91170570  1
  O  O256  1  0.12995855  0.12523293  0.04872344  1
  O  O257  1  0.12051993  0.11621283  0.28291143  1
  O  O258  1  0.12505062  0.12574671  0.55131252  1
  O  O259  1  0.12521452  0.12485330  0.78328523  1
  O  O260  1  0.13368978  0.36792795  0.03884467  1
  O  O261  1  0.13524365  0.37260365  0.27796853  1
  O  O262  1  0.12460574  0.37847624  0.54897416  1
  O  O263  1  0.13166115  0.38081474  0.78650520  1
  O  O264  1  0.13133921  0.63596228  0.03910371  1
  O  O265  1  0.13457881  0.62724498  0.27971922  1
  O  O266  1  0.12285466  0.62406636  0.54740163  1
  O  O267  1  0.12013065  0.62479930  0.80359315  1
  O  O268  1  0.13284708  0.87077614  0.03372344  1
  O  O269  1  0.12476610  0.87448442  0.29821630  1
  O  O270  1  0.12022082  0.86704580  0.53821020  1
  O  O271  1  0.12682753  0.86869470  0.80064933  1
  O  O272  1  0.37763131  0.12337309  0.04538215  1
  O  O273  1  0.38101655  0.11990053  0.28860912  1
  O  O274  1  0.37405880  0.12584981  0.55074552  1
  O  O275  1  0.36975673  0.12150879  0.79423831  1
  O  O276  1  0.37864104  0.36408070  0.04794800  1
  O  O277  1  0.37681630  0.36640995  0.28623648  1
  O  O278  1  0.37701316  0.37443525  0.55125246  1
  O  O279  1  0.37297040  0.37922998  0.78216392  1
  O  O280  1  0.37673676  0.62533482  0.04427058  1
  O  O281  1  0.37989959  0.63013174  0.30028213  1
  O  O282  1  0.38463854  0.62585977  0.54105133  1
  O  O283  1  0.37744772  0.63167569  0.78338923  1
  O  O284  1  0.37461216  0.87813826  0.04725302  1
  O  O285  1  0.37717831  0.88563916  0.28859417  1
  O  O286  1  0.37347733  0.87378855  0.54967459  1
  O  O287  1  0.36981702  0.86908371  0.79599557  1
  O  O288  1  0.62029251  0.12830881  0.04457121  1
  O  O289  1  0.62673067  0.12313743  0.30262763  1
  O  O290  1  0.62178057  0.12214235  0.54628088  1
  O  O291  1  0.62235175  0.13502873  0.77642809  1
  O  O292  1  0.61729629  0.36468360  0.03453453  1
  O  O293  1  0.61986926  0.37671948  0.29635092  1
  O  O294  1  0.62491941  0.38010213  0.55108628  1
  O  O295  1  0.62743333  0.37673125  0.80018033  1
  O  O296  1  0.61016790  0.62605445  0.03490578  1
  O  O297  1  0.61473370  0.62808187  0.28367703  1
  O  O298  1  0.62578770  0.62153370  0.54969904  1
  O  O299  1  0.63158460  0.62113822  0.80129690  1
  O  O300  1  0.61700206  0.87465863  0.03010556  1
  O  O301  1  0.62711476  0.87847896  0.30102810  1
  O  O302  1  0.63206451  0.87724406  0.54639300  1
  O  O303  1  0.62539227  0.86939604  0.77880527  1
  O  O304  1  0.87837863  0.12663231  0.04386427  1
  O  O305  1  0.87228570  0.11754913  0.28559210  1
  O  O306  1  0.87527270  0.12789748  0.55076943  1
  O  O307  1  0.88219013  0.13286239  0.78323376  1
  O  O308  1  0.87143170  0.37377654  0.03612646  1
  O  O309  1  0.86922029  0.36617401  0.28041292  1
  O  O310  1  0.86761761  0.38211461  0.53652437  1
  O  O311  1  0.87312595  0.38023859  0.80121931  1
  O  O312  1  0.87460276  0.61227475  0.02338459  1
  O  O313  1  0.86880581  0.63232923  0.29382978  1
  O  O314  1  0.87326387  0.62065105  0.54840471  1
  O  O315  1  0.87641849  0.61818661  0.81584271  1
  O  O316  1  0.87315174  0.88047629  0.02248017  1
  O  O317  1  0.87078296  0.87773356  0.29852227  1
  O  O318  1  0.87839680  0.86545746  0.53948352  1
  O  O319  1  0.87649406  0.86254042  0.79461540  1
