# generated using pymatgen
data_VFe(PbO3)2
_symmetry_space_group_name_H-M   'P 1'
_cell_length_a   15.39347148
_cell_length_b   15.38023537
_cell_length_c   18.52146163
_cell_angle_alpha   89.97713745
_cell_angle_beta   89.99410247
_cell_angle_gamma   90.01450616
_symmetry_Int_Tables_number   1
_chemical_formula_structural   VFe(PbO3)2
_chemical_formula_sum   'V32 Fe32 Pb64 O192'
_cell_volume   4385.05210938
_cell_formula_units_Z   32
loop_
 _symmetry_equiv_pos_site_id
 _symmetry_equiv_pos_as_xyz
  1  'x, y, z'
loop_
 _atom_site_type_symbol
 _atom_site_label
 _atom_site_symmetry_multiplicity
 _atom_site_fract_x
 _atom_site_fract_y
 _atom_site_fract_z
 _atom_site_occupancy
  V  V0  1  0.87683224  0.37718273  0.88785106  1
  V  V1  1  0.12411958  0.12453570  0.14849736  1
  V  V2  1  0.12730713  0.62782525  0.64200838  1
  V  V3  1  0.37385285  0.37114422  0.13552305  1
  V  V4  1  0.37533624  0.87398736  0.64349397  1
  V  V5  1  0.62734375  0.37142536  0.13774073  1
  V  V6  1  0.87579924  0.87714434  0.14598145  1
  V  V7  1  0.62656929  0.12479852  0.13970539  1
  V  V8  1  0.12971918  0.87400433  0.38650915  1
  V  V9  1  0.12129083  0.87703141  0.89204749  1
  V  V10  1  0.62419464  0.62082599  0.38745387  1
  V  V11  1  0.12286664  0.12358308  0.88396215  1
  V  V12  1  0.12774092  0.87085874  0.63653118  1
  V  V13  1  0.87116077  0.62629355  0.63548536  1
  V  V14  1  0.12536818  0.37317925  0.14355139  1
  V  V15  1  0.37626153  0.12286021  0.88344361  1
  V  V16  1  0.62062744  0.12249438  0.38935294  1
  V  V17  1  0.62108936  0.37141554  0.39212818  1
  V  V18  1  0.62335459  0.12143507  0.63961974  1
  V  V19  1  0.37508812  0.12842210  0.13879441  1
  V  V20  1  0.88137420  0.62455768  0.38375054  1
  V  V21  1  0.87601427  0.61723756  0.14407125  1
  V  V22  1  0.87480890  0.62661730  0.88756311  1
  V  V23  1  0.37425675  0.62596537  0.64512074  1
  V  V24  1  0.37816066  0.12583651  0.39509993  1
  V  V25  1  0.87768523  0.87276618  0.89021992  1
  V  V26  1  0.37783540  0.62533342  0.38390854  1
  V  V27  1  0.12326344  0.87774004  0.14258069  1
  V  V28  1  0.62717750  0.62464020  0.89296772  1
  V  V29  1  0.62442155  0.37979848  0.64258381  1
  V  V30  1  0.87713240  0.12303344  0.88434930  1
  V  V31  1  0.37766362  0.37686542  0.39284447  1
  Fe  Fe32  1  0.12790322  0.37883755  0.39195455  1
  Fe  Fe33  1  0.37320476  0.87688287  0.89235511  1
  Fe  Fe34  1  0.87599823  0.87000977  0.62609505  1
  Fe  Fe35  1  0.61975384  0.87252695  0.37994869  1
  Fe  Fe36  1  0.11926595  0.62460384  0.88650486  1
  Fe  Fe37  1  0.12775935  0.12548623  0.39569925  1
  Fe  Fe38  1  0.62933027  0.37262792  0.88250098  1
  Fe  Fe39  1  0.87368531  0.37799896  0.62577109  1
  Fe  Fe40  1  0.62078978  0.62633915  0.63620335  1
  Fe  Fe41  1  0.62741317  0.87767115  0.13824211  1
  Fe  Fe42  1  0.87075908  0.37994321  0.39814769  1
  Fe  Fe43  1  0.87232262  0.87214640  0.39405816  1
  Fe  Fe44  1  0.62883107  0.87619991  0.88801440  1
  Fe  Fe45  1  0.87134086  0.12601724  0.39728417  1
  Fe  Fe46  1  0.37266325  0.62543990  0.89441575  1
  Fe  Fe47  1  0.12883017  0.12246429  0.62431834  1
  Fe  Fe48  1  0.12109632  0.62420096  0.14719883  1
  Fe  Fe49  1  0.62833522  0.62297005  0.13342182  1
  Fe  Fe50  1  0.37565816  0.37609831  0.64249328  1
  Fe  Fe51  1  0.62347353  0.86928315  0.63734354  1
  Fe  Fe52  1  0.12517012  0.37729646  0.63126454  1
  Fe  Fe53  1  0.37234061  0.87939406  0.13321400  1
  Fe  Fe54  1  0.37398449  0.37370505  0.87856231  1
  Fe  Fe55  1  0.12125572  0.37273093  0.87982346  1
  Fe  Fe56  1  0.13077186  0.62603969  0.37487665  1
  Fe  Fe57  1  0.63054632  0.12411553  0.88078511  1
  Fe  Fe58  1  0.37620123  0.12302344  0.63487470  1
  Fe  Fe59  1  0.87337342  0.12406880  0.62412121  1
  Fe  Fe60  1  0.87550072  0.12616425  0.14323116  1
  Fe  Fe61  1  0.37471844  0.62261402  0.12621882  1
  Fe  Fe62  1  0.37653822  0.87376626  0.37943296  1
  Fe  Fe63  1  0.87689112  0.36956149  0.13887428  1
  Pb  Pb64  1  -0.00762645  0.00654155  0.00327966  1
  Pb  Pb65  1  -0.00950376  0.00563745  0.26592366  1
  Pb  Pb66  1  -0.00305083  0.00710604  0.49605899  1
  Pb  Pb67  1  -0.00463878  0.00343764  0.73378348  1
  Pb  Pb68  1  -0.01011753  0.24823121  0.00227615  1
  Pb  Pb69  1  0.00444703  0.24815590  0.26304254  1
  Pb  Pb70  1  0.00228608  0.25447713  0.49390217  1
  Pb  Pb71  1  0.00120720  0.25217376  0.72959988  1
  Pb  Pb72  1  0.00704684  0.50165132  0.00224000  1
  Pb  Pb73  1  0.00257717  0.48146570  0.26228605  1
  Pb  Pb74  1  0.00930480  0.49395237  0.49907887  1
  Pb  Pb75  1  0.00744412  0.49829950  0.74706156  1
  Pb  Pb76  1  0.00436277  0.74206468  0.00789855  1
  Pb  Pb77  1  -0.00424755  0.75767109  0.25550044  1
  Pb  Pb78  1  -0.00268140  0.75320252  0.49589997  1
  Pb  Pb79  1  0.00524672  0.74397509  0.74980846  1
  Pb  Pb80  1  0.25273577  -0.00161421  0.00155477  1
  Pb  Pb81  1  0.24903967  0.00530900  0.25401328  1
  Pb  Pb82  1  0.25441993  0.00698393  0.50198725  1
  Pb  Pb83  1  0.25421636  -0.00269234  0.74816012  1
  Pb  Pb84  1  0.24537932  0.25159696  -0.01054335  1
  Pb  Pb85  1  0.24107784  0.24940209  0.26096803  1
  Pb  Pb86  1  0.24411943  0.25349421  0.50512122  1
  Pb  Pb87  1  0.24767983  0.25308498  0.73763535  1
  Pb  Pb88  1  0.24816805  0.50121294  -0.00841931  1
  Pb  Pb89  1  0.24542408  0.50118184  0.24705304  1
  Pb  Pb90  1  0.24967322  0.49522255  0.50140299  1
  Pb  Pb91  1  0.24649995  0.49206543  0.75436007  1
  Pb  Pb92  1  0.25414279  0.74212238  0.00222688  1
  Pb  Pb93  1  0.25589875  0.74612263  0.24009781  1
  Pb  Pb94  1  0.25259738  0.74850181  0.49377303  1
  Pb  Pb95  1  0.25988667  0.74664175  0.76366849  1
  Pb  Pb96  1  0.50625370  -0.01112260  -0.00009467  1
  Pb  Pb97  1  0.49793461  -0.01091763  0.24859712  1
  Pb  Pb98  1  0.50067111  -0.00661556  0.49971180  1
  Pb  Pb99  1  0.51302475  -0.00457290  0.75628042  1
  Pb  Pb100  1  0.50459315  0.25071214  -0.01153941  1
  Pb  Pb101  1  0.50078729  0.24974530  0.24851222  1
  Pb  Pb102  1  0.48666846  0.25268124  0.51225282  1
  Pb  Pb103  1  0.50311841  0.25243665  0.74971069  1
  Pb  Pb104  1  0.49635421  0.50009289  -0.00531553  1
  Pb  Pb105  1  0.49905907  0.50400827  0.24043495  1
  Pb  Pb106  1  0.49518635  0.50105181  0.50583291  1
  Pb  Pb107  1  0.48871594  0.50198632  0.75836813  1
  Pb  Pb108  1  0.49321974  0.75444375  0.00169516  1
  Pb  Pb109  1  0.49922743  0.75538690  0.23651091  1
  Pb  Pb110  1  0.50722115  0.75037424  0.49962133  1
  Pb  Pb111  1  0.49276413  0.75116989  0.75983553  1
  Pb  Pb112  1  0.74693156  -0.00094961  -0.00002289  1
  Pb  Pb113  1  0.76135902  0.00029239  0.26165592  1
  Pb  Pb114  1  0.75379708  -0.00688823  0.49929224  1
  Pb  Pb115  1  0.74806776  -0.00444636  0.74326760  1
  Pb  Pb116  1  0.76062719  0.24855852  -0.00122236  1
  Pb  Pb117  1  0.76525612  0.24820684  0.25904374  1
  Pb  Pb118  1  0.75649834  0.25089172  0.50342337  1
  Pb  Pb119  1  0.74761984  0.24874369  0.74432162  1
  Pb  Pb120  1  0.75090539  0.50103200  0.00136400  1
  Pb  Pb121  1  0.75599736  0.49215879  0.25350651  1
  Pb  Pb122  1  0.74524556  0.50631355  0.50281723  1
  Pb  Pb123  1  0.74634844  0.49565631  0.74969480  1
  Pb  Pb124  1  0.73953316  0.75023692  0.00701149  1
  Pb  Pb125  1  0.74324607  0.75837572  0.25106994  1
  Pb  Pb126  1  0.73888394  0.75647720  0.49916549  1
  Pb  Pb127  1  0.74415636  0.75617600  0.74580317  1
  O  O128  1  0.12606058  0.00398976  0.17009576  1
  O  O129  1  0.12901596  -0.01054464  0.41275516  1
  O  O130  1  0.12899358  -0.01194847  0.65562116  1
  O  O131  1  0.11965391  -0.00078846  0.91823135  1
  O  O132  1  0.12613629  0.24829158  0.17273114  1
  O  O133  1  0.12983722  0.25286013  0.41662978  1
  O  O134  1  0.12639119  0.24902256  0.65046509  1
  O  O135  1  0.12082096  0.24371731  0.90986456  1
  O  O136  1  0.12370148  0.49041073  0.16254418  1
  O  O137  1  0.12848824  0.50755185  0.41405294  1
  O  O138  1  0.12648472  0.51088381  0.65980673  1
  O  O139  1  0.11848788  0.49756094  0.91496045  1
  O  O140  1  0.12013380  0.76097894  0.16339272  1
  O  O141  1  0.13074531  0.75177431  0.41045097  1
  O  O142  1  0.12871265  0.75071001  0.66980322  1
  O  O143  1  0.11720144  0.75956501  0.91515036  1
  O  O144  1  0.37267588  0.00969505  0.16341390  1
  O  O145  1  0.38093775  0.00630812  0.41193989  1
  O  O146  1  0.37286059  -0.00913660  0.66277936  1
  O  O147  1  0.36963042  0.00798044  0.91487057  1
  O  O148  1  0.37374769  0.25077526  0.17119558  1
  O  O149  1  0.38078819  0.24973411  0.41902503  1
  O  O150  1  0.37855696  0.24857188  0.66235336  1
  O  O151  1  0.37114157  0.24115414  0.90673019  1
  O  O152  1  0.37314295  0.49062828  0.15878467  1
  O  O153  1  0.37923313  0.50324543  0.41516716  1
  O  O154  1  0.37375094  0.50950253  0.66639921  1
  O  O155  1  0.37604929  0.49786405  0.91219625  1
  O  O156  1  0.37232784  0.75099574  0.15242092  1
  O  O157  1  0.37704056  0.74236384  0.40550292  1
  O  O158  1  0.37137212  0.74990681  0.67169602  1
  O  O159  1  0.37318232  0.75219383  0.91914919  1
  O  O160  1  0.62303533  0.01076332  0.16068661  1
  O  O161  1  0.61787020  0.00606811  0.40624452  1
  O  O162  1  0.62315255  0.00068858  0.65994936  1
  O  O163  1  0.62994485  0.00275036  0.91739234  1
  O  O164  1  0.62307622  0.25254418  0.16699826  1
  O  O165  1  0.62022983  0.25642208  0.41440538  1
  O  O166  1  0.62549881  0.25201911  0.66127147  1
  O  O167  1  0.62861223  0.24702507  0.91323694  1
  O  O168  1  0.62682917  0.48982935  0.16140781  1
  O  O169  1  0.61692987  0.50213458  0.41667528  1
  O  O170  1  0.62566606  0.49902896  0.66546110  1
  O  O171  1  0.63282291  0.50336652  0.91430492  1
  O  O172  1  0.62990750  0.74944118  0.16081028  1
  O  O173  1  0.61703191  0.74016455  0.40715055  1
  O  O174  1  0.62162932  0.74684644  0.67157229  1
  O  O175  1  0.63341798  0.74498326  0.91390636  1
  O  O176  1  0.87736186  -0.00123218  0.17254262  1
  O  O177  1  0.87038089  -0.00247012  0.41619570  1
  O  O178  1  0.87559447  -0.00377675  0.65272665  1
  O  O179  1  0.87872169  -0.00329653  0.91419426  1
  O  O180  1  0.87731137  0.24859020  0.17550099  1
  O  O181  1  0.86679386  0.25333867  0.41336760  1
  O  O182  1  0.87183713  0.25062889  0.65190653  1
  O  O183  1  0.87742342  0.24990334  0.91052525  1
  O  O184  1  0.87416846  0.49984577  0.16153625  1
  O  O185  1  0.86886553  0.51459187  0.41731927  1
  O  O186  1  0.87700636  0.51023855  0.66009332  1
  O  O187  1  0.87556884  0.49757733  0.91046097  1
  O  O188  1  0.87798615  0.75874982  0.16700596  1
  O  O189  1  0.86991238  0.73811659  0.41234183  1
  O  O190  1  0.87961558  0.74289962  0.66301319  1
  O  O191  1  0.87824391  0.75438763  0.91356807  1
  O  O192  1  0.00789050  0.12588761  0.17151250  1
  O  O193  1  0.00032321  0.12361933  0.41186709  1
  O  O194  1  0.00194980  0.12030670  0.65040324  1
  O  O195  1  -0.00146695  0.12262632  0.91557525  1
  O  O196  1  0.00664248  0.36982121  0.16943547  1
  O  O197  1  -0.00106326  0.38144540  0.41352874  1
  O  O198  1  -0.00156381  0.38039161  0.65378560  1
  O  O199  1  -0.00753548  0.37261363  0.91197624  1
  O  O200  1  -0.01144439  0.62786937  0.17180860  1
  O  O201  1  -0.00268781  0.62814382  0.39731722  1
  O  O202  1  0.00489162  0.62922473  0.65960578  1
  O  O203  1  -0.00723411  0.62618007  0.92106834  1
  O  O204  1  0.00191614  0.88240162  0.17290587  1
  O  O205  1  0.00917565  0.86925962  0.41197107  1
  O  O206  1  0.00888017  0.86868913  0.65511181  1
  O  O207  1  -0.00272631  0.87832921  0.92020551  1
  O  O208  1  0.24812386  0.12842312  0.17022207  1
  O  O209  1  0.26187916  0.12584277  0.41420410  1
  O  O210  1  0.25036869  0.11971636  0.66158200  1
  O  O211  1  0.24712788  0.12266025  0.91032375  1
  O  O212  1  0.24648671  0.36987984  0.16430615  1
  O  O213  1  0.25875994  0.37779578  0.41563578  1
  O  O214  1  0.24889133  0.38068407  0.66185420  1
  O  O215  1  0.24765802  0.37197219  0.90933424  1
  O  O216  1  0.25001043  0.62285236  0.15935329  1
  O  O217  1  0.26030472  0.62342188  0.40716492  1
  O  O218  1  0.24975181  0.62918160  0.66799624  1
  O  O219  1  0.24327792  0.62716631  0.91360617  1
  O  O220  1  0.24060436  0.88134836  0.16145037  1
  O  O221  1  0.25012199  0.87308513  0.41134379  1
  O  O222  1  0.24980063  0.86960203  0.66821957  1
  O  O223  1  0.23741059  0.87863246  0.91565170  1
  O  O224  1  0.50194536  0.13214455  0.16313820  1
  O  O225  1  0.50363375  0.12972881  0.42119043  1
  O  O226  1  0.50653486  0.12361421  0.66533661  1
  O  O227  1  0.49232448  0.12331852  0.90422419  1
  O  O228  1  0.50189800  0.37142404  0.16037814  1
  O  O229  1  0.50266862  0.37795495  0.42281556  1
  O  O230  1  0.50770682  0.37802967  0.66655996  1
  O  O231  1  0.50126588  0.37217134  0.90868314  1
  O  O232  1  0.50083901  0.61977513  0.15679620  1
  O  O233  1  0.49558072  0.62205633  0.41348934  1
  O  O234  1  0.49141768  0.62792245  0.66696970  1
  O  O235  1  0.51115996  0.62550218  0.91310902  1
  O  O236  1  0.49958786  0.88009360  0.15691934  1
  O  O237  1  0.49753506  0.87414690  0.41450701  1
  O  O238  1  0.49110811  0.87087263  0.66438902  1
  O  O239  1  0.50212874  0.87674271  0.91378389  1
  O  O240  1  0.74204806  0.12923578  0.16532870  1
  O  O241  1  0.73366522  0.12812262  0.41511336  1
  O  O242  1  0.74289493  0.12405442  0.65871183  1
  O  O243  1  0.75964776  0.12383054  0.90951033  1
  O  O244  1  0.74405225  0.37066353  0.16332621  1
  O  O245  1  0.73547726  0.38363323  0.41587576  1
  O  O246  1  0.74653571  0.37868021  0.66203535  1
  O  O247  1  0.75924679  0.37302033  0.91435184  1
  O  O248  1  0.75953055  0.62648888  0.16878550  1
  O  O249  1  0.73944367  0.62273108  0.40644525  1
  O  O250  1  0.75545207  0.62704382  0.65856015  1
  O  O251  1  0.75530076  0.62469910  0.91840771  1
  O  O252  1  0.75797205  0.87995186  0.16473280  1
  O  O253  1  0.74265298  0.87042164  0.41099996  1
  O  O254  1  0.75177035  0.86988990  0.65874597  1
  O  O255  1  0.76140809  0.87620494  0.91482310  1
  O  O256  1  0.12505116  0.12624004  0.05788365  1
  O  O257  1  0.13544231  0.12799406  0.29388223  1
  O  O258  1  0.13626995  0.11782461  0.52284333  1
  O  O259  1  0.11976311  0.11983648  0.79335858  1
  O  O260  1  0.12404659  0.36690121  0.05283395  1
  O  O261  1  0.12481862  0.37636518  0.28998344  1
  O  O262  1  0.12901434  0.38584483  0.52931615  1
  O  O263  1  0.12035779  0.38065061  0.77973571  1
  O  O264  1  0.10760502  0.62589479  0.04627976  1
  O  O265  1  0.13269853  0.62319270  0.27414377  1
  O  O266  1  0.13166397  0.63420598  0.55122142  1
  O  O267  1  0.11225925  0.62586330  0.78664210  1
  O  O268  1  0.11682112  0.88259131  0.05214238  1
  O  O269  1  0.12904340  0.87495516  0.29545641  1
  O  O270  1  0.13508442  0.86265429  0.54610613  1
  O  O271  1  0.11847415  0.87951561  0.80145841  1
  O  O272  1  0.37208138  0.13135048  0.04808580  1
  O  O273  1  0.38305686  0.12986795  0.30419582  1
  O  O274  1  0.37975512  0.12071418  0.53500900  1
  O  O275  1  0.37222272  0.11805526  0.79255917  1
  O  O276  1  0.37229227  0.36543557  0.04481804  1
  O  O277  1  0.38088030  0.37478813  0.30213786  1
  O  O278  1  0.38254184  0.38058665  0.54103396  1
  O  O279  1  0.37573574  0.38118566  0.77761334  1
  O  O280  1  0.37632105  0.62267128  0.02519590  1
  O  O281  1  0.38072881  0.62012559  0.29280417  1
  O  O282  1  0.37218983  0.62996277  0.55407889  1
  O  O283  1  0.37979146  0.63273961  0.79236686  1
  O  O284  1  0.36907123  0.88492438  0.03183865  1
  O  O285  1  0.37836882  0.87935744  0.27973125  1
  O  O286  1  0.37178499  0.86872732  0.55235404  1
  O  O287  1  0.36894359  0.87184095  0.79152398  1
  O  O288  1  0.62656319  0.12831661  0.04864572  1
  O  O289  1  0.61789084  0.12997535  0.29849950  1
  O  O290  1  0.62156176  0.12341315  0.54882938  1
  O  O291  1  0.62804518  0.11952289  0.78093268  1
  O  O292  1  0.62681580  0.36910284  0.04682169  1
  O  O293  1  0.61859263  0.37413746  0.30117565  1
  O  O294  1  0.62379267  0.38035878  0.55140171  1
  O  O295  1  0.63652408  0.37323451  0.78302318  1
  O  O296  1  0.63973943  0.62177400  0.03423312  1
  O  O297  1  0.61955704  0.61546734  0.29632698  1
  O  O298  1  0.61935411  0.62903877  0.53654823  1
  O  O299  1  0.63064054  0.62302484  0.80184820  1
  O  O300  1  0.63395904  0.88046768  0.03664731  1
  O  O301  1  0.61955434  0.87295297  0.27882891  1
  O  O302  1  0.61889649  0.86359452  0.53675192  1
  O  O303  1  0.63047177  0.88301932  0.78710904  1
  O  O304  1  0.88075398  0.12893875  0.04306011  1
  O  O305  1  0.86589696  0.11908124  0.29336422  1
  O  O306  1  0.86462667  0.12331535  0.52330285  1
  O  O307  1  0.88113060  0.12129065  0.79332977  1
  O  O308  1  0.87832808  0.36268319  0.03950740  1
  O  O309  1  0.86900208  0.38642974  0.29482892  1
  O  O310  1  0.86464569  0.38445875  0.52521132  1
  O  O311  1  0.87478804  0.37636528  0.79693132  1
  O  O312  1  0.87666217  0.62530446  0.05275414  1
  O  O313  1  0.86908421  0.62037891  0.29297347  1
  O  O314  1  0.87354434  0.62819336  0.54447965  1
  O  O315  1  0.87562716  0.62727454  0.79661354  1
  O  O316  1  0.88157731  0.87989996  0.05522258  1
  O  O317  1  0.87797744  0.87828118  0.29209985  1
  O  O318  1  0.87540216  0.86271741  0.52493340  1
  O  O319  1  0.88039442  0.87445081  0.79951056  1
