# generated using pymatgen
data_VFe(PbO3)2
_symmetry_space_group_name_H-M   'P 1'
_cell_length_a   15.39122536
_cell_length_b   15.38621270
_cell_length_c   18.52144225
_cell_angle_alpha   89.97169199
_cell_angle_beta   89.95864853
_cell_angle_gamma   89.99476230
_symmetry_Int_Tables_number   1
_chemical_formula_structural   VFe(PbO3)2
_chemical_formula_sum   'V32 Fe32 Pb64 O192'
_cell_volume   4386.11044288
_cell_formula_units_Z   32
loop_
 _symmetry_equiv_pos_site_id
 _symmetry_equiv_pos_as_xyz
  1  'x, y, z'
loop_
 _atom_site_type_symbol
 _atom_site_label
 _atom_site_symmetry_multiplicity
 _atom_site_fract_x
 _atom_site_fract_y
 _atom_site_fract_z
 _atom_site_occupancy
  V  V0  1  0.61872872  0.62478256  0.40360505  1
  V  V1  1  0.87485799  0.87190592  0.13795189  1
  V  V2  1  0.87604221  0.87657194  0.64328280  1
  V  V3  1  0.87529133  0.62182455  0.39015121  1
  V  V4  1  0.37671680  0.12870830  0.14017385  1
  V  V5  1  0.37002389  0.12569660  0.63913806  1
  V  V6  1  0.37899363  0.87327237  0.88478291  1
  V  V7  1  0.62243788  0.62375255  0.88480076  1
  V  V8  1  0.87169902  0.12239095  0.38428221  1
  V  V9  1  0.62331067  0.37824524  0.14276033  1
  V  V10  1  0.62152591  0.12402398  0.38871070  1
  V  V11  1  0.87531527  0.12782141  0.64193932  1
  V  V12  1  0.37738939  0.62522794  0.14495204  1
  V  V13  1  0.62381876  0.87479849  0.88651554  1
  V  V14  1  0.87451743  0.12537353  0.89268812  1
  V  V15  1  0.37571915  0.87339971  0.14261244  1
  V  V16  1  0.87619098  0.37334658  0.63601309  1
  V  V17  1  0.37685316  0.37392918  0.88470174  1
  V  V18  1  0.87423452  0.62527690  0.14209303  1
  V  V19  1  0.36843983  0.12712903  0.38950543  1
  V  V20  1  0.12232002  0.62458307  0.63480221  1
  V  V21  1  0.62467555  0.87135340  0.14101651  1
  V  V22  1  0.87659807  0.87610615  0.39142037  1
  V  V23  1  0.11992049  0.12466410  0.38655102  1
  V  V24  1  0.37559664  0.37558005  0.39493640  1
  V  V25  1  0.62685674  0.12373880  0.63986851  1
  V  V26  1  0.12602070  0.62634348  0.14417383  1
  V  V27  1  0.37390637  0.62523692  0.88542925  1
  V  V28  1  0.36682421  0.63165701  0.40657950  1
  V  V29  1  0.62709284  0.87367414  0.40350904  1
  V  V30  1  0.87730480  0.37876480  0.14447100  1
  V  V31  1  0.87213089  0.37791381  0.88863812  1
  Fe  Fe32  1  0.62665197  0.37444437  0.39649402  1
  Fe  Fe33  1  0.12407385  0.87751924  0.64323131  1
  Fe  Fe34  1  0.62537139  0.62668367  0.14046778  1
  Fe  Fe35  1  0.87644579  0.62215027  0.63909682  1
  Fe  Fe36  1  0.12230715  0.87508937  0.38668915  1
  Fe  Fe37  1  0.62767620  0.87803721  0.62751745  1
  Fe  Fe38  1  0.37418504  0.37200910  0.63109669  1
  Fe  Fe39  1  0.37419120  0.87990559  0.39937658  1
  Fe  Fe40  1  0.37372316  0.62302745  0.62138813  1
  Fe  Fe41  1  0.37607572  0.37875585  0.13618363  1
  Fe  Fe42  1  0.62741596  0.37105165  0.62873750  1
  Fe  Fe43  1  0.62235203  0.12712329  0.88579344  1
  Fe  Fe44  1  0.12620566  0.62370626  0.88067458  1
  Fe  Fe45  1  0.12839655  0.37640736  0.13425615  1
  Fe  Fe46  1  0.12272945  0.62651698  0.38808072  1
  Fe  Fe47  1  0.87091563  0.12560093  0.13492256  1
  Fe  Fe48  1  0.37705761  0.12333434  0.87863752  1
  Fe  Fe49  1  0.62181262  0.12183074  0.13832548  1
  Fe  Fe50  1  0.12673027  0.87329248  0.87887715  1
  Fe  Fe51  1  0.87525726  0.36917926  0.38074584  1
  Fe  Fe52  1  0.12057775  0.12542788  0.63972553  1
  Fe  Fe53  1  0.62606431  0.37667368  0.88224680  1
  Fe  Fe54  1  0.87189247  0.87580831  0.88067363  1
  Fe  Fe55  1  0.12678878  0.87388941  0.13641509  1
  Fe  Fe56  1  0.37558633  0.87793138  0.62733146  1
  Fe  Fe57  1  0.87391920  0.62576929  0.87739415  1
  Fe  Fe58  1  0.12285554  0.37217941  0.63316351  1
  Fe  Fe59  1  0.12927464  0.12602741  0.88538561  1
  Fe  Fe60  1  0.62908329  0.62477984  0.62359471  1
  Fe  Fe61  1  0.12554210  0.12354461  0.13348994  1
  Fe  Fe62  1  0.12372455  0.37486597  0.38789618  1
  Fe  Fe63  1  0.12516654  0.37669304  0.88977757  1
  Pb  Pb64  1  0.00692640  -0.00453166  -0.00640507  1
  Pb  Pb65  1  0.00457339  -0.00013018  0.24239551  1
  Pb  Pb66  1  0.00988382  0.00270209  0.50595885  1
  Pb  Pb67  1  0.00422961  -0.00296319  0.75494194  1
  Pb  Pb68  1  0.00658180  0.24635928  0.00070550  1
  Pb  Pb69  1  0.00153750  0.25226461  0.24380765  1
  Pb  Pb70  1  0.00720620  0.25026603  0.49906597  1
  Pb  Pb71  1  0.01175678  0.25070777  0.75633773  1
  Pb  Pb72  1  0.00400796  0.50153288  -0.00538108  1
  Pb  Pb73  1  0.00868338  0.49903291  0.25501418  1
  Pb  Pb74  1  0.00219459  0.49429880  0.49600974  1
  Pb  Pb75  1  0.01216095  0.49903227  0.75284515  1
  Pb  Pb76  1  0.00000614  0.75140390  -0.01315042  1
  Pb  Pb77  1  0.00931635  0.75119066  0.25464225  1
  Pb  Pb78  1  -0.00321131  0.74781364  0.50391445  1
  Pb  Pb79  1  -0.00014274  0.73997368  0.75336334  1
  Pb  Pb80  1  0.23964036  0.00269157  -0.00215751  1
  Pb  Pb81  1  0.24964242  -0.00811526  0.25036298  1
  Pb  Pb82  1  0.23992892  -0.00149413  0.50621399  1
  Pb  Pb83  1  0.24290400  -0.00242291  0.74911460  1
  Pb  Pb84  1  0.24480505  0.24768619  -0.00244050  1
  Pb  Pb85  1  0.24270660  0.25804069  0.24685198  1
  Pb  Pb86  1  0.24476276  0.25400788  0.50483152  1
  Pb  Pb87  1  0.24273902  0.25012870  0.74899177  1
  Pb  Pb88  1  0.24987202  0.49185644  0.00132753  1
  Pb  Pb89  1  0.24403718  0.49934893  0.25546473  1
  Pb  Pb90  1  0.24791390  0.49250364  0.50246838  1
  Pb  Pb91  1  0.24917172  0.49626824  0.74005364  1
  Pb  Pb92  1  0.24387375  0.75520383  -0.00359907  1
  Pb  Pb93  1  0.24457207  0.75234784  0.25891726  1
  Pb  Pb94  1  0.23664367  0.76850839  0.50554812  1
  Pb  Pb95  1  0.24769475  0.75162031  0.73904204  1
  Pb  Pb96  1  0.50189532  0.00571769  -0.00089111  1
  Pb  Pb97  1  0.49186046  -0.00782319  0.25585271  1
  Pb  Pb98  1  0.49882294  -0.00083080  0.50437695  1
  Pb  Pb99  1  0.49946368  0.00727055  0.74733057  1
  Pb  Pb100  1  0.50285341  0.24879907  -0.00473260  1
  Pb  Pb101  1  0.50471189  0.25678072  0.25321714  1
  Pb  Pb102  1  0.49984852  0.25484179  0.50453975  1
  Pb  Pb103  1  0.50209563  0.24605379  0.74878549  1
  Pb  Pb104  1  0.49483721  0.49647537  -0.00044271  1
  Pb  Pb105  1  0.50613668  0.49790075  0.25905942  1
  Pb  Pb106  1  0.49298902  0.49688999  0.50796116  1
  Pb  Pb107  1  0.50341783  0.49604012  0.73155628  1
  Pb  Pb108  1  0.50397275  0.74312566  -0.00002793  1
  Pb  Pb109  1  0.49216850  0.75494549  0.26113965  1
  Pb  Pb110  1  0.50013414  0.75919384  0.50917502  1
  Pb  Pb111  1  0.50065169  0.74850214  0.72710289  1
  Pb  Pb112  1  0.75030216  0.01164040  0.00393208  1
  Pb  Pb113  1  0.74778057  0.00195365  0.24737564  1
  Pb  Pb114  1  0.75110044  -0.00052064  0.50267346  1
  Pb  Pb115  1  0.75323413  -0.00313312  0.75250023  1
  Pb  Pb116  1  0.74906508  0.24541862  0.00168953  1
  Pb  Pb117  1  0.74892232  0.25715127  0.25203053  1
  Pb  Pb118  1  0.74982888  0.25454120  0.49723175  1
  Pb  Pb119  1  0.74090147  0.25161445  0.75312159  1
  Pb  Pb120  1  0.74161296  0.50791771  -0.00224665  1
  Pb  Pb121  1  0.74914601  0.49282968  0.25850496  1
  Pb  Pb122  1  0.74971518  0.50072899  0.50208279  1
  Pb  Pb123  1  0.74443423  0.49801589  0.74088601  1
  Pb  Pb124  1  0.74895031  0.74646425  -0.00583669  1
  Pb  Pb125  1  0.74879076  0.74757834  0.25359216  1
  Pb  Pb126  1  0.75639393  0.74007532  0.50926015  1
  Pb  Pb127  1  0.75333289  0.74696111  0.74326209  1
  O  O128  1  0.12711979  -0.00118152  0.16510344  1
  O  O129  1  0.12569422  0.00763204  0.41345910  1
  O  O130  1  0.12285651  0.00306035  0.66881351  1
  O  O131  1  0.12841704  -0.00169732  0.90966214  1
  O  O132  1  0.12634806  0.24965587  0.16218730  1
  O  O133  1  0.12599597  0.24138953  0.41146099  1
  O  O134  1  0.12199929  0.24955102  0.66684974  1
  O  O135  1  0.12560485  0.25150677  0.91601464  1
  O  O136  1  0.12531050  0.50630992  0.16651242  1
  O  O137  1  0.12353895  0.50067114  0.41545831  1
  O  O138  1  0.11986056  0.50207822  0.65740401  1
  O  O139  1  0.12567938  0.50131873  0.91618760  1
  O  O140  1  0.12509244  0.74586267  0.16719603  1
  O  O141  1  0.12220927  0.75088227  0.41838248  1
  O  O142  1  0.12271820  0.74459321  0.65732349  1
  O  O143  1  0.12947595  0.74891118  0.91112361  1
  O  O144  1  0.37802403  -0.00232085  0.16759474  1
  O  O145  1  0.37897206  0.01318569  0.41513958  1
  O  O146  1  0.37942364  0.00825003  0.65986987  1
  O  O147  1  0.38293723  -0.01175312  0.90460908  1
  O  O148  1  0.37852298  0.24598157  0.16025133  1
  O  O149  1  0.37768086  0.24480545  0.41684317  1
  O  O150  1  0.37901747  0.24251212  0.66222616  1
  O  O151  1  0.37956296  0.25849514  0.90337526  1
  O  O152  1  0.37429686  0.50991586  0.17043915  1
  O  O153  1  0.37552427  0.49162808  0.41415178  1
  O  O154  1  0.37354727  0.50022175  0.65698194  1
  O  O155  1  0.37813302  0.50602035  0.91098840  1
  O  O156  1  0.37436889  0.74553237  0.17335845  1
  O  O157  1  0.37704762  0.74640917  0.41894138  1
  O  O158  1  0.37321857  0.74775643  0.64827755  1
  O  O159  1  0.37956009  0.74603700  0.91401463  1
  O  O160  1  0.62285250  -0.00858201  0.16838537  1
  O  O161  1  0.62536639  0.00691975  0.41731136  1
  O  O162  1  0.62842326  0.00600613  0.66220648  1
  O  O163  1  0.61810463  -0.00909639  0.90931922  1
  O  O164  1  0.62224204  0.25859453  0.16406620  1
  O  O165  1  0.62675156  0.24027747  0.41394572  1
  O  O166  1  0.62925009  0.24302540  0.66162159  1
  O  O167  1  0.62279763  0.25354056  0.91514447  1
  O  O168  1  0.62333152  0.49805168  0.17109164  1
  O  O169  1  0.63095357  0.50607560  0.41521334  1
  O  O170  1  0.63128502  0.49727137  0.65231840  1
  O  O171  1  0.62484939  0.50277785  0.91331017  1
  O  O172  1  0.62421550  0.75233920  0.17387744  1
  O  O173  1  0.62850658  0.74839447  0.42195642  1
  O  O174  1  0.62905232  0.75229467  0.65072319  1
  O  O175  1  0.62256069  0.75004140  0.91420037  1
  O  O176  1  0.87092606  -0.01046608  0.16153677  1
  O  O177  1  0.87570753  0.00140198  0.41672406  1
  O  O178  1  0.87180804  0.00629650  0.66800360  1
  O  O179  1  0.87138491  0.00529614  0.91326537  1
  O  O180  1  0.86990350  0.25886648  0.16164077  1
  O  O181  1  0.87505789  0.23976521  0.40902132  1
  O  O182  1  0.87187671  0.24518328  0.66576963  1
  O  O183  1  0.87215035  0.24881067  0.91652277  1
  O  O184  1  0.87353121  0.49983234  0.17034151  1
  O  O185  1  0.87616442  0.50536954  0.40609325  1
  O  O186  1  0.87404873  0.48935018  0.65459412  1
  O  O187  1  0.87276797  0.49547818  0.90887944  1
  O  O188  1  0.87382452  0.75175670  0.16778410  1
  O  O189  1  0.87625951  0.75743077  0.41414300  1
  O  O190  1  0.87552179  0.75894255  0.65912277  1
  O  O191  1  0.87010993  0.75046449  0.91125946  1
  O  O192  1  -0.00322559  0.12464648  0.16160388  1
  O  O193  1  0.00243711  0.12302127  0.40771959  1
  O  O194  1  -0.01007272  0.12467435  0.66629482  1
  O  O195  1  -0.00623286  0.12547769  0.91331508  1
  O  O196  1  -0.00424099  0.37828295  0.16029816  1
  O  O197  1  -0.00243593  0.37115813  0.41246105  1
  O  O198  1  -0.00879923  0.36847450  0.66179630  1
  O  O199  1  -0.01046598  0.37294609  0.91657802  1
  O  O200  1  0.00253754  0.62516204  0.16643854  1
  O  O201  1  -0.00781428  0.63004985  0.41602960  1
  O  O202  1  0.00406599  0.62519775  0.66311004  1
  O  O203  1  -0.00173703  0.62486567  0.91065450  1
  O  O204  1  -0.00717258  0.87189823  0.15870907  1
  O  O205  1  -0.00678377  0.88023809  0.41540459  1
  O  O206  1  -0.00732520  0.88194983  0.66460578  1
  O  O207  1  -0.00104994  0.87598455  0.90678373  1
  O  O208  1  0.26087340  0.12187056  0.16489618  1
  O  O209  1  0.25160065  0.12683345  0.40912077  1
  O  O210  1  0.25432204  0.12663397  0.65679153  1
  O  O211  1  0.25656054  0.12531906  0.91163498  1
  O  O212  1  0.25308065  0.37894651  0.16719706  1
  O  O213  1  0.25558100  0.36847734  0.41351960  1
  O  O214  1  0.24868760  0.37253280  0.66028379  1
  O  O215  1  0.25987142  0.38039242  0.91056549  1
  O  O216  1  0.24856805  0.62736856  0.16856366  1
  O  O217  1  0.25174561  0.62270929  0.41649932  1
  O  O218  1  0.24180331  0.62195478  0.65205138  1
  O  O219  1  0.25946905  0.62561311  0.90877417  1
  O  O220  1  0.25512812  0.87132488  0.16825638  1
  O  O221  1  0.24708739  0.87918744  0.41622257  1
  O  O222  1  0.25300849  0.87793247  0.66150422  1
  O  O223  1  0.26269830  0.86957465  0.90772393  1
  O  O224  1  0.49430483  0.12239241  0.16897259  1
  O  O225  1  0.50398486  0.12638162  0.41322872  1
  O  O226  1  0.50638286  0.12540920  0.65876125  1
  O  O227  1  0.49716947  0.12396276  0.91872037  1
  O  O228  1  0.50282414  0.37973701  0.16938280  1
  O  O229  1  0.49551510  0.37124871  0.41765038  1
  O  O230  1  0.50159060  0.37118743  0.65432619  1
  O  O231  1  0.49460424  0.38187216  0.91114195  1
  O  O232  1  0.49416494  0.62723848  0.16912829  1
  O  O233  1  0.50371355  0.62401368  0.41909011  1
  O  O234  1  0.50191024  0.62321481  0.64612495  1
  O  O235  1  0.49780379  0.62573911  0.91472665  1
  O  O236  1  0.49937001  0.87024387  0.17282468  1
  O  O237  1  0.50428398  0.87561014  0.42073278  1
  O  O238  1  0.50146832  0.87805584  0.65351319  1
  O  O239  1  0.50081264  0.86706109  0.91595731  1
  O  O240  1  0.74637478  0.12404157  0.16828319  1
  O  O241  1  0.74754538  0.12137264  0.41039900  1
  O  O242  1  0.75045641  0.12463868  0.66548791  1
  O  O243  1  0.75078248  0.12485984  0.91487237  1
  O  O244  1  0.74449787  0.37937874  0.16652726  1
  O  O245  1  0.75438240  0.37298008  0.41498936  1
  O  O246  1  0.75782265  0.36787839  0.66160717  1
  O  O247  1  0.75599917  0.37426917  0.91585168  1
  O  O248  1  0.75353227  0.62546061  0.17178821  1
  O  O249  1  0.75988888  0.63056281  0.41536134  1
  O  O250  1  0.75140025  0.62571924  0.66072311  1
  O  O251  1  0.74516263  0.62502657  0.91035325  1
  O  O252  1  0.75112877  0.87051367  0.16650402  1
  O  O253  1  0.75921022  0.87957124  0.41992110  1
  O  O254  1  0.75474632  0.88121264  0.66304615  1
  O  O255  1  0.73888112  0.87349920  0.91013153  1
  O  O256  1  0.13284734  0.12242218  0.03294962  1
  O  O257  1  0.12280263  0.12352972  0.29547584  1
  O  O258  1  0.11821999  0.12218131  0.53823955  1
  O  O259  1  0.12511570  0.13243682  0.78445384  1
  O  O260  1  0.13058468  0.37881255  0.03396770  1
  O  O261  1  0.12703639  0.37714462  0.28673657  1
  O  O262  1  0.12320817  0.36545140  0.53156770  1
  O  O263  1  0.11872080  0.37632897  0.78855145  1
  O  O264  1  0.12740120  0.62672560  0.05353598  1
  O  O265  1  0.12188951  0.62767435  0.28757396  1
  O  O266  1  0.11595869  0.62426931  0.54354496  1
  O  O267  1  0.12069395  0.62073549  0.78066605  1
  O  O268  1  0.13469229  0.87512737  0.03672140  1
  O  O269  1  0.12316976  0.86953852  0.28594882  1
  O  O270  1  0.12586924  0.88524131  0.54051287  1
  O  O271  1  0.13212290  0.87558590  0.77787301  1
  O  O272  1  0.37879002  0.12235472  0.04918695  1
  O  O273  1  0.37317162  0.12832958  0.29883999  1
  O  O274  1  0.37586950  0.12642113  0.54754956  1
  O  O275  1  0.38577362  0.12378393  0.77905938  1
  O  O276  1  0.37690283  0.38588877  0.03712368  1
  O  O277  1  0.37864344  0.37176333  0.30331635  1
  O  O278  1  0.37255570  0.37008298  0.53023296  1
  O  O279  1  0.37617570  0.38001653  0.79368704  1
  O  O280  1  0.37494018  0.62697332  0.05423196  1
  O  O281  1  0.37675944  0.62304753  0.31521450  1
  O  O282  1  0.37659001  0.61122856  0.51900506  1
  O  O283  1  0.37690512  0.62614083  0.79505547  1
  O  O284  1  0.37867708  0.87130674  0.05209036  1
  O  O285  1  0.38182536  0.87621570  0.29765896  1
  O  O286  1  0.37559473  0.88233960  0.52545146  1
  O  O287  1  0.38240995  0.86738689  0.79421599  1
  O  O288  1  0.62265532  0.11866581  0.03831121  1
  O  O289  1  0.62136301  0.12326520  0.29746593  1
  O  O290  1  0.63016551  0.12420685  0.54873738  1
  O  O291  1  0.61813295  0.12869068  0.78594060  1
  O  O292  1  0.62256186  0.38202002  0.05196614  1
  O  O293  1  0.62073025  0.37568872  0.29500222  1
  O  O294  1  0.63097078  0.36617151  0.52686606  1
  O  O295  1  0.63221357  0.37466342  0.78282047  1
  O  O296  1  0.62772043  0.62647735  0.04130484  1
  O  O297  1  0.62597774  0.62938066  0.31158231  1
  O  O298  1  0.63961785  0.62278947  0.52181253  1
  O  O299  1  0.62109967  0.62496960  0.79396784  1
  O  O300  1  0.62259932  0.86966222  0.05018578  1
  O  O301  1  0.62995517  0.87489466  0.31203169  1
  O  O302  1  0.63078322  0.88548929  0.52636345  1
  O  O303  1  0.62119004  0.87147455  0.79592922  1
  O  O304  1  0.86235236  0.12381533  0.03536493  1
  O  O305  1  0.87221381  0.11939035  0.29309772  1
  O  O306  1  0.87531697  0.12604205  0.55091536  1
  O  O307  1  0.87325047  0.12742965  0.80184687  1
  O  O308  1  0.86999723  0.38339813  0.05441537  1
  O  O309  1  0.86784551  0.37204434  0.28045648  1
  O  O310  1  0.87618954  0.36586999  0.54465177  1
  O  O311  1  0.87309460  0.37358827  0.79801357  1
  O  O312  1  0.87294805  0.62428066  0.05148643  1
  O  O313  1  0.87591095  0.62929307  0.29894781  1
  O  O314  1  0.87670695  0.63111669  0.53803275  1
  O  O315  1  0.87668095  0.63160329  0.77686564  1
  O  O316  1  0.86989347  0.87019238  0.04744172  1
  O  O317  1  0.87452229  0.87694250  0.30064175  1
  O  O318  1  0.87553812  0.88358110  0.55186772  1
  O  O319  1  0.86766059  0.87982963  0.78143375  1
