# generated using pymatgen
data_VFe(PbO3)2
_symmetry_space_group_name_H-M   'P 1'
_cell_length_a   15.38674706
_cell_length_b   15.39357190
_cell_length_c   18.51606832
_cell_angle_alpha   89.99706232
_cell_angle_beta   90.02136259
_cell_angle_gamma   89.99731622
_symmetry_Int_Tables_number   1
_chemical_formula_structural   VFe(PbO3)2
_chemical_formula_sum   'V32 Fe32 Pb64 O192'
_cell_volume   4385.66002583
_cell_formula_units_Z   32
loop_
 _symmetry_equiv_pos_site_id
 _symmetry_equiv_pos_as_xyz
  1  'x, y, z'
loop_
 _atom_site_type_symbol
 _atom_site_label
 _atom_site_symmetry_multiplicity
 _atom_site_fract_x
 _atom_site_fract_y
 _atom_site_fract_z
 _atom_site_occupancy
  V  V0  1  0.12601259  0.62840458  0.89244246  1
  V  V1  1  0.37341655  0.37103228  0.39088729  1
  V  V2  1  0.37492675  0.87790056  0.38616148  1
  V  V3  1  0.87734738  0.62642109  0.64015700  1
  V  V4  1  0.87274182  0.12432962  0.38583861  1
  V  V5  1  0.87506894  0.62841411  0.88828527  1
  V  V6  1  0.87622772  0.87691848  0.64177017  1
  V  V7  1  0.88064142  0.87404441  0.90393138  1
  V  V8  1  0.12333298  0.62652843  0.63491477  1
  V  V9  1  0.87426203  0.62516603  0.13948500  1
  V  V10  1  0.38328379  0.37897376  0.13448485  1
  V  V11  1  0.62400762  0.37422680  0.39367123  1
  V  V12  1  0.87340945  0.37535346  0.13714301  1
  V  V13  1  0.13193106  0.37742154  0.13853105  1
  V  V14  1  0.37584309  0.62781013  0.88678962  1
  V  V15  1  0.37523719  0.62446838  0.14406531  1
  V  V16  1  0.12584328  0.12536931  0.38702866  1
  V  V17  1  0.87563217  0.12532366  0.89125285  1
  V  V18  1  0.62136738  0.87501900  0.13905600  1
  V  V19  1  0.37646717  0.37560018  0.64421246  1
  V  V20  1  0.12342140  0.12491504  0.64519954  1
  V  V21  1  0.37664306  0.87269363  0.89440192  1
  V  V22  1  0.62815258  0.87185620  0.88929432  1
  V  V23  1  0.87437907  0.87551417  0.38605444  1
  V  V24  1  0.62697482  0.62459303  0.64062853  1
  V  V25  1  0.12412438  0.87702304  0.63917846  1
  V  V26  1  0.12494508  0.37614189  0.64191912  1
  V  V27  1  0.87283548  0.62033447  0.38674692  1
  V  V28  1  0.62564471  0.62036308  0.14191430  1
  V  V29  1  0.12830543  0.87612808  0.90188306  1
  V  V30  1  0.62591199  0.87572151  0.63761979  1
  V  V31  1  0.87736627  0.12466177  0.64591104  1
  Fe  Fe32  1  0.62685245  0.37373403  0.64985288  1
  Fe  Fe33  1  0.12331790  0.37167093  0.38410550  1
  Fe  Fe34  1  0.87167365  0.36977157  0.38556782  1
  Fe  Fe35  1  0.62692675  0.12243815  0.64677820  1
  Fe  Fe36  1  0.62448287  0.12610275  0.38633890  1
  Fe  Fe37  1  0.12545570  0.87823269  0.38097034  1
  Fe  Fe38  1  0.37431447  0.12447629  0.88492777  1
  Fe  Fe39  1  0.12358633  0.62048440  0.14623551  1
  Fe  Fe40  1  0.62708221  0.62465095  0.38879996  1
  Fe  Fe41  1  0.37192072  0.62533518  0.63038395  1
  Fe  Fe42  1  0.87987933  0.37766072  0.87943402  1
  Fe  Fe43  1  0.12318653  0.62471170  0.37977439  1
  Fe  Fe44  1  0.62606854  0.37887512  0.12976428  1
  Fe  Fe45  1  0.87369791  0.12591347  0.12911615  1
  Fe  Fe46  1  0.62592674  0.12082274  0.88351372  1
  Fe  Fe47  1  0.87129669  0.87187006  0.12729679  1
  Fe  Fe48  1  0.37177836  0.37866823  0.88037782  1
  Fe  Fe49  1  0.12291005  0.12905839  0.12598232  1
  Fe  Fe50  1  0.37776608  0.87350305  0.13272568  1
  Fe  Fe51  1  0.37644877  0.62275083  0.39062385  1
  Fe  Fe52  1  0.62485018  0.13115280  0.12726891  1
  Fe  Fe53  1  0.12687394  0.87369719  0.13219253  1
  Fe  Fe54  1  0.62409805  0.87589576  0.38453107  1
  Fe  Fe55  1  0.12481577  0.37732251  0.88516711  1
  Fe  Fe56  1  0.37192689  0.12248250  0.64360122  1
  Fe  Fe57  1  0.87776377  0.37500207  0.64722142  1
  Fe  Fe58  1  0.62477536  0.37918326  0.87669257  1
  Fe  Fe59  1  0.37423740  0.87471504  0.63344143  1
  Fe  Fe60  1  0.12488519  0.12389327  0.89354776  1
  Fe  Fe61  1  0.37549233  0.12755699  0.12999563  1
  Fe  Fe62  1  0.62421764  0.63121695  0.88051926  1
  Fe  Fe63  1  0.37518521  0.12749919  0.38435715  1
  Pb  Pb64  1  -0.00003441  0.00639503  0.00921409  1
  Pb  Pb65  1  0.00113779  -0.00154572  0.23271566  1
  Pb  Pb66  1  -0.00006733  0.00394547  0.49624526  1
  Pb  Pb67  1  0.00601291  0.00336370  0.76071188  1
  Pb  Pb68  1  0.00157289  0.24860583  -0.00410271  1
  Pb  Pb69  1  -0.00175188  0.25655298  0.24597183  1
  Pb  Pb70  1  -0.00665870  0.25451660  0.49961464  1
  Pb  Pb71  1  0.00947527  0.25206748  0.75889948  1
  Pb  Pb72  1  0.00496957  0.50565391  0.00183773  1
  Pb  Pb73  1  0.00012665  0.48900370  0.25559813  1
  Pb  Pb74  1  -0.00382653  0.49268027  0.49622452  1
  Pb  Pb75  1  0.00260312  0.49399330  0.75382249  1
  Pb  Pb76  1  0.01273755  0.74830008  0.01248508  1
  Pb  Pb77  1  0.00827590  0.75572163  0.24571172  1
  Pb  Pb78  1  0.00301134  0.75109216  0.49206571  1
  Pb  Pb79  1  0.00145349  0.75072620  0.75135295  1
  Pb  Pb80  1  0.25453155  0.00949464  0.00614066  1
  Pb  Pb81  1  0.24925747  -0.00017221  0.23593092  1
  Pb  Pb82  1  0.26171359  -0.00032020  0.50299077  1
  Pb  Pb83  1  0.25129397  0.00837925  0.75726396  1
  Pb  Pb84  1  0.25226229  0.24755538  -0.01034158  1
  Pb  Pb85  1  0.25377443  0.24396826  0.24379235  1
  Pb  Pb86  1  0.25491968  0.24241978  0.50343978  1
  Pb  Pb87  1  0.25115146  0.25244093  0.75684159  1
  Pb  Pb88  1  0.24733219  0.50379389  0.00033085  1
  Pb  Pb89  1  0.25084067  0.50625020  0.25832029  1
  Pb  Pb90  1  0.24679912  0.50494097  0.49437574  1
  Pb  Pb91  1  0.24877609  0.49452694  0.75167807  1
  Pb  Pb92  1  0.24984870  0.75455348  0.01114859  1
  Pb  Pb93  1  0.24158235  0.75404447  0.25032176  1
  Pb  Pb94  1  0.25293387  0.75049067  0.49229143  1
  Pb  Pb95  1  0.25387166  0.75013610  0.74506800  1
  Pb  Pb96  1  0.49896010  0.01273169  0.00186728  1
  Pb  Pb97  1  0.49710138  0.00768622  0.24389180  1
  Pb  Pb98  1  0.49628731  0.00480295  0.49838831  1
  Pb  Pb99  1  0.49214299  0.00760979  0.75190016  1
  Pb  Pb100  1  0.50205948  0.24844415  -0.01475370  1
  Pb  Pb101  1  0.50395969  0.23823877  0.24768145  1
  Pb  Pb102  1  0.50454510  0.23994540  0.50671277  1
  Pb  Pb103  1  0.50017102  0.24049495  0.75335422  1
  Pb  Pb104  1  0.50733189  0.49270180  -0.00765464  1
  Pb  Pb105  1  0.49917158  0.50824416  0.25768173  1
  Pb  Pb106  1  0.49924709  0.50123161  0.50238377  1
  Pb  Pb107  1  0.49785911  0.49444550  0.75259103  1
  Pb  Pb108  1  0.49576416  0.75371234  0.00336106  1
  Pb  Pb109  1  0.50709867  0.74713745  0.25707736  1
  Pb  Pb110  1  0.49390139  0.74915774  0.49703396  1
  Pb  Pb111  1  0.50396172  0.74651386  0.74574991  1
  Pb  Pb112  1  0.75557084  0.00886068  0.00511753  1
  Pb  Pb113  1  0.74553241  0.00254905  0.24100592  1
  Pb  Pb114  1  0.74065865  0.00652036  0.49989392  1
  Pb  Pb115  1  0.74893020  0.00013213  0.75681009  1
  Pb  Pb116  1  0.73959297  0.25348222  -0.00990319  1
  Pb  Pb117  1  0.74236275  0.24493108  0.24382697  1
  Pb  Pb118  1  0.73594181  0.25160879  0.51424368  1
  Pb  Pb119  1  0.74401597  0.25297059  0.75490881  1
  Pb  Pb120  1  0.74419575  0.49258436  -0.00820632  1
  Pb  Pb121  1  0.75398941  0.49547270  0.25100339  1
  Pb  Pb122  1  0.75023927  0.47903974  0.51242175  1
  Pb  Pb123  1  0.75082656  0.49541994  0.75317010  1
  Pb  Pb124  1  0.75414389  0.75129384  0.00227717  1
  Pb  Pb125  1  0.73987600  0.75030443  0.25194722  1
  Pb  Pb126  1  0.74768837  0.75086679  0.49770678  1
  Pb  Pb127  1  0.74884702  0.74769883  0.75250335  1
  O  O128  1  0.12550874  0.00154270  0.15264615  1
  O  O129  1  0.12309785  0.00732663  0.41204933  1
  O  O130  1  0.12164194  -0.00493642  0.66692531  1
  O  O131  1  0.12501543  -0.00877268  0.91715130  1
  O  O132  1  0.11984316  0.26022672  0.15768780  1
  O  O133  1  0.12096464  0.24177184  0.41693368  1
  O  O134  1  0.12450166  0.25187972  0.66773325  1
  O  O135  1  0.12379549  0.25137742  0.91059998  1
  O  O136  1  0.12061605  0.49168264  0.16850721  1
  O  O137  1  0.12089034  0.49873927  0.41150758  1
  O  O138  1  0.12392554  0.49810191  0.65932080  1
  O  O139  1  0.12439041  0.51045142  0.91471684  1
  O  O140  1  0.12631029  0.74674351  0.16361460  1
  O  O141  1  0.12135790  0.75216158  0.41114337  1
  O  O142  1  0.12140340  0.75392064  0.66216760  1
  O  O143  1  0.12601962  0.74598915  0.92141740  1
  O  O144  1  0.37831499  0.00021179  0.15780724  1
  O  O145  1  0.37309745  -0.00154783  0.41135105  1
  O  O146  1  0.37179820  -0.00538531  0.66877542  1
  O  O147  1  0.37360980  -0.01225080  0.91141886  1
  O  O148  1  0.37210808  0.26350906  0.15747244  1
  O  O149  1  0.37583866  0.25537056  0.42013895  1
  O  O150  1  0.37031570  0.25716945  0.66760949  1
  O  O151  1  0.37353338  0.25210206  0.90355903  1
  O  O152  1  0.37340807  0.49375077  0.17019739  1
  O  O153  1  0.37820496  0.48749707  0.41762775  1
  O  O154  1  0.37168807  0.49848105  0.66242617  1
  O  O155  1  0.37107545  0.51354783  0.91045133  1
  O  O156  1  0.37821074  0.73908431  0.16192212  1
  O  O157  1  0.37508414  0.75626121  0.40823234  1
  O  O158  1  0.37271472  0.74977562  0.66339652  1
  O  O159  1  0.36997659  0.74634677  0.91866473  1
  O  O160  1  0.62227142  -0.00694994  0.15360965  1
  O  O161  1  0.62659676  0.00009681  0.41624413  1
  O  O162  1  0.63171743  -0.01033817  0.66439961  1
  O  O163  1  0.62228089  -0.01384938  0.91207408  1
  O  O164  1  0.62744672  0.25622594  0.15852138  1
  O  O165  1  0.62666141  0.25435563  0.42085257  1
  O  O166  1  0.62727450  0.24755278  0.67135801  1
  O  O167  1  0.62773891  0.25064782  0.89986558  1
  O  O168  1  0.62551179  0.50177368  0.16711880  1
  O  O169  1  0.62601835  0.49268956  0.41714752  1
  O  O170  1  0.62828168  0.51009485  0.66099206  1
  O  O171  1  0.62592718  0.50771992  0.90700828  1
  O  O172  1  0.62199518  0.74466719  0.16712919  1
  O  O173  1  0.62748154  0.75209732  0.41933356  1
  O  O174  1  0.63139427  0.75419425  0.66375388  1
  O  O175  1  0.62273146  0.75433459  0.91872239  1
  O  O176  1  0.86956519  -0.00353944  0.15624474  1
  O  O177  1  0.87716059  0.00230853  0.41345418  1
  O  O178  1  0.87933487  -0.00109855  0.67300741  1
  O  O179  1  0.87587761  -0.00088410  0.91839173  1
  O  O180  1  0.87285315  0.25852490  0.15592471  1
  O  O181  1  0.87792171  0.23988266  0.41019002  1
  O  O182  1  0.88091593  0.23990822  0.66690702  1
  O  O183  1  0.87545009  0.24385819  0.90503812  1
  O  O184  1  0.87307036  0.50100639  0.16679626  1
  O  O185  1  0.87436506  0.50496372  0.40871260  1
  O  O186  1  0.87829455  0.50885968  0.66589942  1
  O  O187  1  0.88037991  0.51286128  0.90856409  1
  O  O188  1  0.86817167  0.74243097  0.15819157  1
  O  O189  1  0.87606018  0.75575917  0.40876089  1
  O  O190  1  0.87944793  0.75209010  0.66920140  1
  O  O191  1  0.87995245  0.74343640  0.92246821  1
  O  O192  1  -0.00144165  0.12809081  0.15741771  1
  O  O193  1  -0.00097728  0.12283181  0.41356761  1
  O  O194  1  -0.00083353  0.12039270  0.67466954  1
  O  O195  1  -0.00635204  0.12003588  0.91506044  1
  O  O196  1  -0.00593547  0.37860056  0.16129946  1
  O  O197  1  -0.00336645  0.37198635  0.41803388  1
  O  O198  1  0.00816405  0.37456633  0.66563511  1
  O  O199  1  -0.00013666  0.37908682  0.91522330  1
  O  O200  1  -0.01091152  0.62313360  0.16333334  1
  O  O201  1  -0.00963388  0.62802554  0.41224705  1
  O  O202  1  0.00339738  0.62825650  0.66873766  1
  O  O203  1  0.00430207  0.62970180  0.91559848  1
  O  O204  1  -0.00321164  0.87028087  0.15329189  1
  O  O205  1  -0.00674029  0.87966270  0.41227930  1
  O  O206  1  0.00320405  0.87509242  0.66950635  1
  O  O207  1  0.00565981  0.87035461  0.92170227  1
  O  O208  1  0.24862614  0.13195241  0.15640852  1
  O  O209  1  0.24365200  0.12773334  0.41091695  1
  O  O210  1  0.24260608  0.12355918  0.66990828  1
  O  O211  1  0.25119971  0.11852949  0.91316924  1
  O  O212  1  0.24720484  0.37805409  0.15708371  1
  O  O213  1  0.25498248  0.37174400  0.41157238  1
  O  O214  1  0.24546223  0.37608970  0.66603158  1
  O  O215  1  0.24906245  0.38266120  0.91526820  1
  O  O216  1  0.25758282  0.61681788  0.16585038  1
  O  O217  1  0.24913327  0.62270925  0.41149317  1
  O  O218  1  0.24240875  0.62685783  0.66061656  1
  O  O219  1  0.24754585  0.62882399  0.91408501  1
  O  O220  1  0.25392293  0.87132805  0.16078971  1
  O  O221  1  0.25419932  0.87682607  0.40913725  1
  O  O222  1  0.23923935  0.87404204  0.66273320  1
  O  O223  1  0.24978231  0.86826716  0.91853566  1
  O  O224  1  0.50082493  0.12911856  0.15915761  1
  O  O225  1  0.49905745  0.12750069  0.41729892  1
  O  O226  1  0.49895669  0.12256281  0.66623561  1
  O  O227  1  0.50047073  0.11929758  0.90768061  1
  O  O228  1  0.49616867  0.38008163  0.15369427  1
  O  O229  1  0.50253882  0.37170444  0.41830103  1
  O  O230  1  0.49366740  0.37851291  0.66187702  1
  O  O231  1  0.49826029  0.38208237  0.90521963  1
  O  O232  1  0.49729383  0.61788479  0.16792063  1
  O  O233  1  0.50239272  0.62240700  0.41965902  1
  O  O234  1  0.50769465  0.63159488  0.65627916  1
  O  O235  1  0.49184362  0.63148286  0.90684401  1
  O  O236  1  0.50489609  0.86883332  0.16559369  1
  O  O237  1  0.49315689  0.87764993  0.41146866  1
  O  O238  1  0.50973775  0.87149648  0.65652469  1
  O  O239  1  0.49672558  0.86604622  0.91118135  1
  O  O240  1  0.74830275  0.12524992  0.16051327  1
  O  O241  1  0.75773834  0.12243876  0.41020385  1
  O  O242  1  0.76139432  0.11985275  0.67013650  1
  O  O243  1  0.75499144  0.11832172  0.90937977  1
  O  O244  1  0.75557390  0.38103894  0.16095729  1
  O  O245  1  0.74550269  0.37337606  0.41697108  1
  O  O246  1  0.75430149  0.37636708  0.67169269  1
  O  O247  1  0.75423514  0.38029518  0.90416283  1
  O  O248  1  0.75132884  0.62136764  0.16614984  1
  O  O249  1  0.75841454  0.62974530  0.41480158  1
  O  O250  1  0.75143195  0.63098066  0.66643103  1
  O  O251  1  0.75754620  0.63215812  0.90562186  1
  O  O252  1  0.74029307  0.86873453  0.16034924  1
  O  O253  1  0.75954284  0.87840799  0.41383871  1
  O  O254  1  0.75296481  0.87359727  0.66813558  1
  O  O255  1  0.74430132  0.86903745  0.91340389  1
  O  O256  1  0.12094315  0.12614615  0.02454874  1
  O  O257  1  0.12443943  0.12813153  0.29635068  1
  O  O258  1  0.11969635  0.12433691  0.55430435  1
  O  O259  1  0.11974155  0.11753400  0.79147515  1
  O  O260  1  0.12562388  0.38407764  0.04721047  1
  O  O261  1  0.11569085  0.36941257  0.28484428  1
  O  O262  1  0.12528079  0.37159981  0.55093367  1
  O  O263  1  0.12466203  0.38042379  0.78409360  1
  O  O264  1  0.12091652  0.61815914  0.04490922  1
  O  O265  1  0.12613077  0.62487648  0.27881109  1
  O  O266  1  0.11882503  0.62783218  0.54403107  1
  O  O267  1  0.12503105  0.63105932  0.80143147  1
  O  O268  1  0.12998498  0.86395076  0.03075489  1
  O  O269  1  0.12381232  0.87223855  0.28146543  1
  O  O270  1  0.12099191  0.87938415  0.54840737  1
  O  O271  1  0.12769424  0.86992913  0.81057209  1
  O  O272  1  0.37764352  0.12203592  0.02871646  1
  O  O273  1  0.37736067  0.13553707  0.28451616  1
  O  O274  1  0.36477570  0.12368148  0.54199542  1
  O  O275  1  0.37297593  0.11717665  0.78215962  1
  O  O276  1  0.37730849  0.38615571  0.04338332  1
  O  O277  1  0.37789478  0.36984918  0.30030541  1
  O  O278  1  0.36973177  0.37328264  0.55338797  1
  O  O279  1  0.36813576  0.38654142  0.77964119  1
  O  O280  1  0.37780426  0.61754126  0.05314000  1
  O  O281  1  0.37880858  0.61011059  0.29032855  1
  O  O282  1  0.37326778  0.62401599  0.53052373  1
  O  O283  1  0.37144256  0.63164085  0.79536326  1
  O  O284  1  0.37935080  0.86489183  0.03262998  1
  O  O285  1  0.37607753  0.87946529  0.29526396  1
  O  O286  1  0.36887229  0.88025175  0.53401728  1
  O  O287  1  0.37156847  0.86657133  0.80332727  1
  O  O288  1  0.62497271  0.12573880  0.02617873  1
  O  O289  1  0.62300770  0.13298990  0.28615347  1
  O  O290  1  0.63393703  0.12826017  0.54472739  1
  O  O291  1  0.62903260  0.11366697  0.78178830  1
  O  O292  1  0.62940428  0.38345401  0.02922418  1
  O  O293  1  0.62347509  0.37218178  0.30286503  1
  O  O294  1  0.63760157  0.37164071  0.54740747  1
  O  O295  1  0.62281032  0.38641191  0.77449448  1
  O  O296  1  0.62448020  0.62333414  0.05075948  1
  O  O297  1  0.62166891  0.62861278  0.28881527  1
  O  O298  1  0.63449398  0.62811698  0.54967713  1
  O  O299  1  0.62354517  0.63726509  0.78099770  1
  O  O300  1  0.61829896  0.86590846  0.04819433  1
  O  O301  1  0.62578157  0.86792043  0.28494676  1
  O  O302  1  0.63314771  0.87599207  0.54656448  1
  O  O303  1  0.62659080  0.86883470  0.79789910  1
  O  O304  1  0.87296352  0.12246662  0.02894123  1
  O  O305  1  0.87429225  0.12200240  0.29503425  1
  O  O306  1  0.87982799  0.11964102  0.55499254  1
  O  O307  1  0.87874148  0.11676658  0.80005460  1
  O  O308  1  0.87326760  0.38090691  0.04612845  1
  O  O309  1  0.87606119  0.37525958  0.28622958  1
  O  O310  1  0.87537342  0.37776719  0.54528787  1
  O  O311  1  0.88622782  0.38135202  0.77850520  1
  O  O312  1  0.87250971  0.61934611  0.04839536  1
  O  O313  1  0.87161768  0.62304231  0.29583219  1
  O  O314  1  0.87778717  0.62868077  0.54940961  1
  O  O315  1  0.88172561  0.63468301  0.79704996  1
  O  O316  1  0.86372089  0.87053441  0.02583849  1
  O  O317  1  0.87282709  0.87757276  0.29544417  1
  O  O318  1  0.87682422  0.87829999  0.55119227  1
  O  O319  1  0.87844115  0.87094726  0.81226265  1
