# generated using pymatgen
data_VFe(PbO3)2
_symmetry_space_group_name_H-M   'P 1'
_cell_length_a   15.37566048
_cell_length_b   15.37648247
_cell_length_c   18.51385351
_cell_angle_alpha   90.02604843
_cell_angle_beta   90.01883055
_cell_angle_gamma   89.98917346
_symmetry_Int_Tables_number   1
_chemical_formula_structural   VFe(PbO3)2
_chemical_formula_sum   'V32 Fe32 Pb64 O192'
_cell_volume   4377.11064583
_cell_formula_units_Z   32
loop_
 _symmetry_equiv_pos_site_id
 _symmetry_equiv_pos_as_xyz
  1  'x, y, z'
loop_
 _atom_site_type_symbol
 _atom_site_label
 _atom_site_symmetry_multiplicity
 _atom_site_fract_x
 _atom_site_fract_y
 _atom_site_fract_z
 _atom_site_occupancy
  V  V0  1  0.62482307  0.37528686  0.88539415  1
  V  V1  1  0.62384978  0.62564769  0.14162400  1
  V  V2  1  0.37816305  0.87305779  0.63501606  1
  V  V3  1  0.87483438  0.87696349  0.14051803  1
  V  V4  1  0.12635364  0.87506325  0.14010090  1
  V  V5  1  0.37549494  0.37444687  0.63903524  1
  V  V6  1  0.37645083  0.87676141  0.88642544  1
  V  V7  1  0.12420000  0.37558545  0.64479566  1
  V  V8  1  0.87318762  0.12587870  0.39211966  1
  V  V9  1  0.37314955  0.62450285  0.64022901  1
  V  V10  1  0.37667322  0.37346400  0.88529566  1
  V  V11  1  0.12144481  0.12817487  0.39172357  1
  V  V12  1  0.37449495  0.37423341  0.14032030  1
  V  V13  1  0.12402728  0.37633487  0.13867148  1
  V  V14  1  0.87533506  0.87286657  0.64043986  1
  V  V15  1  0.37170524  0.12316348  0.13956618  1
  V  V16  1  0.87651876  0.37623584  0.39478328  1
  V  V17  1  0.87775668  0.12776919  0.13874437  1
  V  V18  1  0.62394878  0.37643377  0.63859977  1
  V  V19  1  0.62801359  0.62463847  0.38973647  1
  V  V20  1  0.62423960  0.37332746  0.39332183  1
  V  V21  1  0.87046948  0.12205195  0.88419026  1
  V  V22  1  0.37379674  0.62537481  0.14527700  1
  V  V23  1  0.37477683  0.12640662  0.39155625  1
  V  V24  1  0.12987534  0.87251635  0.64359564  1
  V  V25  1  0.87680549  0.12278123  0.63926481  1
  V  V26  1  0.12348767  0.62253202  0.38815841  1
  V  V27  1  0.62639075  0.12958980  0.39336145  1
  V  V28  1  0.62554284  0.37705611  0.13756792  1
  V  V29  1  0.12630179  0.62563072  0.13648394  1
  V  V30  1  0.62706680  0.87508484  0.88820034  1
  V  V31  1  0.87653119  0.62069542  0.64274485  1
  Fe  Fe32  1  0.12625179  0.12484608  0.13509349  1
  Fe  Fe33  1  0.87541517  0.62334426  0.38370056  1
  Fe  Fe34  1  0.62287714  0.12399519  0.89049807  1
  Fe  Fe35  1  0.87369451  0.37316605  0.64757572  1
  Fe  Fe36  1  0.62196023  0.62678231  0.88388118  1
  Fe  Fe37  1  0.62481253  0.87325813  0.62865929  1
  Fe  Fe38  1  0.87657250  0.62484679  0.13836713  1
  Fe  Fe39  1  0.37471480  0.62156386  0.38217004  1
  Fe  Fe40  1  0.12429976  0.37282640  0.38844580  1
  Fe  Fe41  1  0.87075199  0.62705917  0.88001284  1
  Fe  Fe42  1  0.12567383  0.12461247  0.87890232  1
  Fe  Fe43  1  0.37259181  0.37408514  0.38851243  1
  Fe  Fe44  1  0.87276628  0.87804704  0.88179912  1
  Fe  Fe45  1  0.62499949  0.87619834  0.14288076  1
  Fe  Fe46  1  0.87875666  0.87375780  0.38726379  1
  Fe  Fe47  1  0.12388000  0.87454041  0.88004295  1
  Fe  Fe48  1  0.62528750  0.62561807  0.63467970  1
  Fe  Fe49  1  0.12340631  0.62584302  0.64374279  1
  Fe  Fe50  1  0.12669691  0.37507751  0.87830036  1
  Fe  Fe51  1  0.12737609  0.62553373  0.87838989  1
  Fe  Fe52  1  0.62322278  0.12723936  0.13580172  1
  Fe  Fe53  1  0.12507437  0.87646571  0.38609358  1
  Fe  Fe54  1  0.37891627  0.12378670  0.88066157  1
  Fe  Fe55  1  0.12454328  0.12323614  0.64444317  1
  Fe  Fe56  1  0.37984212  0.62667634  0.88327367  1
  Fe  Fe57  1  0.37471963  0.87519369  0.13984608  1
  Fe  Fe58  1  0.87463441  0.37492174  0.13123460  1
  Fe  Fe59  1  0.37190466  0.87488480  0.38441011  1
  Fe  Fe60  1  0.62624993  0.87757295  0.38651602  1
  Fe  Fe61  1  0.62578538  0.12316342  0.63200514  1
  Fe  Fe62  1  0.37419944  0.12236322  0.63982529  1
  Fe  Fe63  1  0.87242091  0.37283873  0.87510553  1
  Pb  Pb64  1  0.00539810  0.00214871  -0.00793819  1
  Pb  Pb65  1  -0.00024465  -0.00741997  0.25312352  1
  Pb  Pb66  1  0.00692311  0.00329130  0.50260011  1
  Pb  Pb67  1  0.00158429  -0.00864703  0.75422958  1
  Pb  Pb68  1  -0.00129403  0.25457466  -0.01133722  1
  Pb  Pb69  1  0.00719516  0.25538406  0.24996054  1
  Pb  Pb70  1  -0.00328724  0.25683168  0.50966482  1
  Pb  Pb71  1  0.00325655  0.25248167  0.75331584  1
  Pb  Pb72  1  -0.00588553  0.50023233  -0.01485378  1
  Pb  Pb73  1  -0.00232337  0.50314568  0.24663535  1
  Pb  Pb74  1  0.00474310  0.50512827  0.50565188  1
  Pb  Pb75  1  0.00595657  0.50129989  0.75599658  1
  Pb  Pb76  1  -0.00277907  0.74593185  -0.01199537  1
  Pb  Pb77  1  -0.00065148  0.75608200  0.25226980  1
  Pb  Pb78  1  0.00278907  0.74646450  0.49861640  1
  Pb  Pb79  1  -0.00505617  0.75489739  0.75575777  1
  Pb  Pb80  1  0.24752953  0.00362283  -0.00606950  1
  Pb  Pb81  1  0.24872331  -0.00684857  0.25361276  1
  Pb  Pb82  1  0.25056258  0.00888064  0.50423079  1
  Pb  Pb83  1  0.24744501  0.00460629  0.75151258  1
  Pb  Pb84  1  0.24264819  0.24083729  -0.00666322  1
  Pb  Pb85  1  0.24785651  0.26024175  0.25395442  1
  Pb  Pb86  1  0.24954952  0.24166155  0.50679773  1
  Pb  Pb87  1  0.24828963  0.24399669  0.75158219  1
  Pb  Pb88  1  0.24809593  0.50259530  -0.00898578  1
  Pb  Pb89  1  0.25406573  0.49948828  0.25385907  1
  Pb  Pb90  1  0.24850152  0.49906227  0.49786766  1
  Pb  Pb91  1  0.24537006  0.50161143  0.75333137  1
  Pb  Pb92  1  0.25240027  0.75170758  -0.00746199  1
  Pb  Pb93  1  0.25331490  0.75413375  0.25397197  1
  Pb  Pb94  1  0.24963477  0.74963009  0.49448689  1
  Pb  Pb95  1  0.24812826  0.74598402  0.75305829  1
  Pb  Pb96  1  0.49985832  -0.00683538  0.00520960  1
  Pb  Pb97  1  0.50514480  -0.00613802  0.25244602  1
  Pb  Pb98  1  0.50547334  -0.00115664  0.49964934  1
  Pb  Pb99  1  0.50701275  0.00919605  0.74913827  1
  Pb  Pb100  1  0.50276906  0.24308629  -0.00161896  1
  Pb  Pb101  1  0.49333951  0.25411070  0.24968102  1
  Pb  Pb102  1  0.49799126  0.23729555  0.50756778  1
  Pb  Pb103  1  0.50231784  0.23722695  0.75093291  1
  Pb  Pb104  1  0.50143345  0.50238979  -0.00343603  1
  Pb  Pb105  1  0.49317968  0.50099173  0.25396988  1
  Pb  Pb106  1  0.50345510  0.50473778  0.50075783  1
  Pb  Pb107  1  0.49922382  0.50730204  0.75093436  1
  Pb  Pb108  1  0.49916652  0.76065757  0.00381360  1
  Pb  Pb109  1  0.49916269  0.75837932  0.25383113  1
  Pb  Pb110  1  0.50162043  0.75462057  0.49314087  1
  Pb  Pb111  1  0.50352769  0.74345238  0.74734296  1
  Pb  Pb112  1  0.73634146  -0.00008091  0.00495895  1
  Pb  Pb113  1  0.74696551  -0.00526001  0.25264816  1
  Pb  Pb114  1  0.74342788  -0.00336628  0.50036545  1
  Pb  Pb115  1  0.74592984  -0.00157466  0.74586358  1
  Pb  Pb116  1  0.75319670  0.25344818  -0.00302400  1
  Pb  Pb117  1  0.74851653  0.25145797  0.24618821  1
  Pb  Pb118  1  0.75699622  0.25654016  0.50923871  1
  Pb  Pb119  1  0.75031355  0.25024264  0.74909728  1
  Pb  Pb120  1  0.76287465  0.50372363  -0.00309222  1
  Pb  Pb121  1  0.75598769  0.50371144  0.24895829  1
  Pb  Pb122  1  0.74993601  0.50297503  0.50556144  1
  Pb  Pb123  1  0.74912509  0.51168724  0.75413273  1
  Pb  Pb124  1  0.75602772  0.74330018  -0.00201701  1
  Pb  Pb125  1  0.76040875  0.75084091  0.25392127  1
  Pb  Pb126  1  0.74933183  0.75328664  0.49649752  1
  Pb  Pb127  1  0.75138116  0.74748140  0.74878562  1
  O  O128  1  0.12387566  -0.00532670  0.16307307  1
  O  O129  1  0.12549005  0.01019757  0.41552047  1
  O  O130  1  0.12443873  -0.00926355  0.66492160  1
  O  O131  1  0.12624837  0.00013635  0.91041764  1
  O  O132  1  0.12481634  0.25539384  0.16284904  1
  O  O133  1  0.12526881  0.24289659  0.41863842  1
  O  O134  1  0.12836503  0.25638176  0.66413575  1
  O  O135  1  0.12660359  0.25008246  0.90774355  1
  O  O136  1  0.12636818  0.49696854  0.16229387  1
  O  O137  1  0.12171086  0.50300211  0.41462300  1
  O  O138  1  0.12644307  0.49522616  0.66627243  1
  O  O139  1  0.12810001  0.49943548  0.91029183  1
  O  O140  1  0.12470535  0.75359255  0.16267115  1
  O  O141  1  0.12357788  0.74276803  0.41069823  1
  O  O142  1  0.12086815  0.75582057  0.66590523  1
  O  O143  1  0.12877010  0.75032796  0.91012942  1
  O  O144  1  0.37195826  0.00765095  0.16253686  1
  O  O145  1  0.37419017  0.00932941  0.41327981  1
  O  O146  1  0.36951502  -0.01243829  0.65669570  1
  O  O147  1  0.37857546  -0.00654219  0.91054882  1
  O  O148  1  0.37333829  0.25030144  0.16650653  1
  O  O149  1  0.37451804  0.24462896  0.41785132  1
  O  O150  1  0.37554895  0.25965753  0.66053699  1
  O  O151  1  0.37858054  0.25681551  0.91020896  1
  O  O152  1  0.37339966  0.49793121  0.16842518  1
  O  O153  1  0.37662135  0.49944574  0.41730511  1
  O  O154  1  0.37471013  0.50294445  0.66192720  1
  O  O155  1  0.37998538  0.49276933  0.91247755  1
  O  O156  1  0.37355618  0.74596078  0.16801885  1
  O  O157  1  0.37433461  0.74584658  0.41214079  1
  O  O158  1  0.37254827  0.74990354  0.66330743  1
  O  O159  1  0.37940336  0.75769639  0.91327841  1
  O  O160  1  0.62606915  0.00530377  0.16984611  1
  O  O161  1  0.62597628  0.00806949  0.41259558  1
  O  O162  1  0.62546246  -0.00310958  0.66120281  1
  O  O163  1  0.62231085  -0.00631715  0.91593656  1
  O  O164  1  0.62471448  0.25379477  0.16611114  1
  O  O165  1  0.62801675  0.25396854  0.42031934  1
  O  O166  1  0.61997386  0.25672134  0.66004133  1
  O  O167  1  0.62186397  0.25712789  0.91377087  1
  O  O168  1  0.62374639  0.50102931  0.16801398  1
  O  O169  1  0.62931950  0.49416730  0.41595091  1
  O  O170  1  0.62247593  0.49492966  0.66382633  1
  O  O171  1  0.62101323  0.49140947  0.91096296  1
  O  O172  1  0.62327332  0.74197590  0.16506661  1
  O  O173  1  0.62827630  0.74269221  0.40600780  1
  O  O174  1  0.62553018  0.75065482  0.65987643  1
  O  O175  1  0.62178169  0.75861563  0.91107538  1
  O  O176  1  0.87775935  -0.00157373  0.16421672  1
  O  O177  1  0.87816495  0.01106138  0.41554740  1
  O  O178  1  0.87521025  0.00073512  0.66238256  1
  O  O179  1  0.87183414  0.00670930  0.91170426  1
  O  O180  1  0.87705288  0.24599906  0.16130922  1
  O  O181  1  0.87668815  0.24620225  0.42259226  1
  O  O182  1  0.87410290  0.24021040  0.66620819  1
  O  O183  1  0.87110149  0.24358524  0.90861489  1
  O  O184  1  0.87592626  0.49861616  0.16460001  1
  O  O185  1  0.87496996  0.49641509  0.41637367  1
  O  O186  1  0.87395190  0.50443344  0.66167027  1
  O  O187  1  0.86965497  0.49851333  0.90390633  1
  O  O188  1  0.87624465  0.75646292  0.16322485  1
  O  O189  1  0.87530641  0.74684510  0.41544159  1
  O  O190  1  0.87529402  0.75294099  0.66105403  1
  O  O191  1  0.87053990  0.75288496  0.91229498  1
  O  O192  1  -0.00453253  0.12348345  0.16443253  1
  O  O193  1  0.00113692  0.12796220  0.41532914  1
  O  O194  1  -0.00642561  0.12320673  0.66466861  1
  O  O195  1  -0.00795423  0.12548163  0.90543169  1
  O  O196  1  0.00550130  0.37509308  0.16056980  1
  O  O197  1  -0.00236519  0.37076813  0.42149894  1
  O  O198  1  0.00605656  0.37454187  0.66436960  1
  O  O199  1  -0.00184872  0.37306268  0.90327710  1
  O  O200  1  0.00669736  0.62488055  0.16403066  1
  O  O201  1  0.00408028  0.62243723  0.41416803  1
  O  O202  1  -0.00731160  0.62636407  0.66721976  1
  O  O203  1  -0.00079387  0.62535071  0.90373320  1
  O  O204  1  0.00033553  0.87527708  0.16437228  1
  O  O205  1  0.00280412  0.87857585  0.41992398  1
  O  O206  1  -0.00367535  0.87595720  0.66402380  1
  O  O207  1  -0.00191052  0.87716790  0.91244414  1
  O  O208  1  0.25427524  0.12825731  0.16718924  1
  O  O209  1  0.24958620  0.12696367  0.41375231  1
  O  O210  1  0.25111377  0.12389180  0.66755812  1
  O  O211  1  0.25440869  0.12423580  0.90939369  1
  O  O212  1  0.24703015  0.37479298  0.16454047  1
  O  O213  1  0.24789916  0.37378538  0.41915026  1
  O  O214  1  0.25493235  0.37865039  0.66318961  1
  O  O215  1  0.25909837  0.37569820  0.90725841  1
  O  O216  1  0.24674542  0.62370725  0.16820617  1
  O  O217  1  0.24267776  0.62143776  0.41035576  1
  O  O218  1  0.25544418  0.62679505  0.66341404  1
  O  O219  1  0.25533053  0.62510845  0.91221702  1
  O  O220  1  0.24415180  0.87501135  0.16306657  1
  O  O221  1  0.24808631  0.87672468  0.41789281  1
  O  O222  1  0.24900327  0.86929358  0.66214502  1
  O  O223  1  0.25767126  0.87524564  0.90715801  1
  O  O224  1  0.49076808  0.12910561  0.16368429  1
  O  O225  1  0.49780004  0.12910293  0.41345368  1
  O  O226  1  0.50017100  0.12389260  0.66220438  1
  O  O227  1  0.49862521  0.12535614  0.91880175  1
  O  O228  1  0.49949188  0.37559662  0.16597855  1
  O  O229  1  0.50881364  0.37363723  0.41408743  1
  O  O230  1  0.49672308  0.38001064  0.66181158  1
  O  O231  1  0.49990563  0.37384701  0.91404393  1
  O  O232  1  0.50306256  0.62152429  0.16812540  1
  O  O233  1  0.50904234  0.61923629  0.41048466  1
  O  O234  1  0.49358759  0.62593884  0.66126185  1
  O  O235  1  0.50106977  0.62509224  0.91998658  1
  O  O236  1  0.49904017  0.87527596  0.17018903  1
  O  O237  1  0.49902735  0.87583380  0.41056069  1
  O  O238  1  0.49246204  0.87028531  0.65500986  1
  O  O239  1  0.50065353  0.87620005  0.91455858  1
  O  O240  1  0.75996282  0.12455536  0.16600106  1
  O  O241  1  0.75558677  0.12879167  0.41477203  1
  O  O242  1  0.75453841  0.12348825  0.66100197  1
  O  O243  1  0.75264668  0.12519098  0.91271984  1
  O  O244  1  0.74712163  0.37439945  0.16417201  1
  O  O245  1  0.74981545  0.37173130  0.42154414  1
  O  O246  1  0.74010116  0.37362545  0.66231038  1
  O  O247  1  0.74236753  0.37180885  0.90520137  1
  O  O248  1  0.74267499  0.62377018  0.16542936  1
  O  O249  1  0.74591267  0.61926217  0.41538175  1
  O  O250  1  0.75521518  0.62608208  0.66193045  1
  O  O251  1  0.74426563  0.62576269  0.91506760  1
  O  O252  1  0.75694570  0.87656179  0.16367218  1
  O  O253  1  0.75264370  0.87817910  0.41425299  1
  O  O254  1  0.75672348  0.87619655  0.65885665  1
  O  O255  1  0.74313099  0.87792025  0.91066433  1
  O  O256  1  0.13040589  0.12535355  0.03602575  1
  O  O257  1  0.12160829  0.12914857  0.30042870  1
  O  O258  1  0.12901606  0.12113828  0.54350296  1
  O  O259  1  0.12838605  0.12448490  0.77733674  1
  O  O260  1  0.12648722  0.37624480  0.04806648  1
  O  O261  1  0.12274587  0.36595429  0.28866229  1
  O  O262  1  0.12575671  0.37734244  0.55305982  1
  O  O263  1  0.12841220  0.37837426  0.77808672  1
  O  O264  1  0.12903556  0.62459714  0.04584552  1
  O  O265  1  0.12200760  0.62104622  0.29712683  1
  O  O266  1  0.11786947  0.62159736  0.54379541  1
  O  O267  1  0.13072085  0.62055792  0.77615263  1
  O  O268  1  0.12433633  0.87510875  0.04941424  1
  O  O269  1  0.12357032  0.87871175  0.28564084  1
  O  O270  1  0.12609143  0.87362373  0.55224173  1
  O  O271  1  0.12032841  0.87563647  0.77988687  1
  O  O272  1  0.37010677  0.12651788  0.04834725  1
  O  O273  1  0.37450367  0.12820234  0.30074178  1
  O  O274  1  0.37101284  0.12852333  0.53840411  1
  O  O275  1  0.38326467  0.12355344  0.77969603  1
  O  O276  1  0.37426600  0.37415564  0.04995524  1
  O  O277  1  0.37305603  0.37159911  0.28779090  1
  O  O278  1  0.37568687  0.37685053  0.54808541  1
  O  O279  1  0.38013291  0.37538858  0.79423979  1
  O  O280  1  0.37499124  0.62329202  0.05428194  1
  O  O281  1  0.37319297  0.61585698  0.28204692  1
  O  O282  1  0.37469192  0.62559876  0.54919388  1
  O  O283  1  0.38351959  0.62857687  0.78340101  1
  O  O284  1  0.38161128  0.87419461  0.04018578  1
  O  O285  1  0.36479775  0.87607911  0.28317741  1
  O  O286  1  0.37392113  0.86833019  0.54378054  1
  O  O287  1  0.38023384  0.87516772  0.79554764  1
  O  O288  1  0.62769581  0.12456392  0.03597816  1
  O  O289  1  0.62774170  0.13447194  0.30218589  1
  O  O290  1  0.62002160  0.12369964  0.53160020  1
  O  O291  1  0.61603932  0.12240028  0.78918416  1
  O  O292  1  0.62566452  0.37795144  0.04672152  1
  O  O293  1  0.62951192  0.37211751  0.30263226  1
  O  O294  1  0.62326767  0.37777044  0.54727188  1
  O  O295  1  0.62052694  0.37440673  0.79434788  1
  O  O296  1  0.62221608  0.62255187  0.05091231  1
  O  O297  1  0.63033717  0.61808923  0.29899611  1
  O  O298  1  0.62624520  0.61677286  0.53474255  1
  O  O299  1  0.62200711  0.62269307  0.78281771  1
  O  O300  1  0.62075488  0.88201772  0.04272042  1
  O  O301  1  0.62556076  0.88053474  0.28465393  1
  O  O302  1  0.62501919  0.87788895  0.52767493  1
  O  O303  1  0.62419214  0.87861355  0.79681335  1
  O  O304  1  0.87558278  0.12539679  0.04812675  1
  O  O305  1  0.87557560  0.12902063  0.30152200  1
  O  O306  1  0.87754058  0.12438619  0.54790198  1
  O  O307  1  0.86721552  0.12186494  0.79305465  1
  O  O308  1  0.87153068  0.37160252  0.03196590  1
  O  O309  1  0.87605446  0.37128233  0.30363554  1
  O  O310  1  0.87443820  0.36411102  0.54658610  1
  O  O311  1  0.87075585  0.36598495  0.77344953  1
  O  O312  1  0.86760159  0.62434196  0.03832433  1
  O  O313  1  0.87127409  0.62531913  0.28309397  1
  O  O314  1  0.87755118  0.62441753  0.55103210  1
  O  O315  1  0.86276122  0.63008008  0.77909500  1
  O  O316  1  0.87607629  0.87880703  0.05010631  1
  O  O317  1  0.88199255  0.87412324  0.28625140  1
  O  O318  1  0.87812463  0.87498199  0.54946071  1
  O  O319  1  0.87628383  0.87617204  0.78159062  1
