# generated using pymatgen
data_VFe(PbO3)2
_symmetry_space_group_name_H-M   'P 1'
_cell_length_a   15.38099538
_cell_length_b   15.37397075
_cell_length_c   18.46317621
_cell_angle_alpha   90.01954862
_cell_angle_beta   89.96825008
_cell_angle_gamma   90.00401555
_symmetry_Int_Tables_number   1
_chemical_formula_structural   VFe(PbO3)2
_chemical_formula_sum   'V32 Fe32 Pb64 O192'
_cell_volume   4365.93045702
_cell_formula_units_Z   32
loop_
 _symmetry_equiv_pos_site_id
 _symmetry_equiv_pos_as_xyz
  1  'x, y, z'
loop_
 _atom_site_type_symbol
 _atom_site_label
 _atom_site_symmetry_multiplicity
 _atom_site_fract_x
 _atom_site_fract_y
 _atom_site_fract_z
 _atom_site_occupancy
  V  V0  1  0.12511850  0.87761056  0.39521592  1
  V  V1  1  0.62759668  0.37552199  0.88633523  1
  V  V2  1  0.87424412  0.37706871  0.63625058  1
  V  V3  1  0.12212550  0.12245543  0.63630905  1
  V  V4  1  0.37493637  0.62588909  0.88967412  1
  V  V5  1  0.62648760  0.37428991  0.39322719  1
  V  V6  1  0.87198300  0.12337799  0.88875061  1
  V  V7  1  0.37414836  0.12506104  0.39761529  1
  V  V8  1  0.37498459  0.37589459  0.39006767  1
  V  V9  1  0.37431426  0.12485816  0.13461689  1
  V  V10  1  0.12604284  0.12373549  0.13969485  1
  V  V11  1  0.62068624  0.62980377  0.38905259  1
  V  V12  1  0.87525247  0.12485025  0.14061807  1
  V  V13  1  0.62554277  0.62441213  0.64084913  1
  V  V14  1  0.88070796  0.37498129  0.38715988  1
  V  V15  1  0.87317127  0.62676417  0.88918820  1
  V  V16  1  0.37491051  0.87625716  0.13879478  1
  V  V17  1  0.12179385  0.12465727  0.88594826  1
  V  V18  1  0.12638325  0.37412947  0.63872571  1
  V  V19  1  0.37519355  0.62476359  0.14169504  1
  V  V20  1  0.37706859  0.37312864  0.13767546  1
  V  V21  1  0.37290206  0.62459472  0.63625343  1
  V  V22  1  0.87385276  0.37545936  0.14230733  1
  V  V23  1  0.87426440  0.62510615  0.14315031  1
  V  V24  1  0.62742078  0.87481983  0.88716749  1
  V  V25  1  0.86996042  0.87618812  0.39209176  1
  V  V26  1  0.37571336  0.87564250  0.39134387  1
  V  V27  1  0.12301099  0.87372682  0.88750996  1
  V  V28  1  0.87578612  0.87564502  0.14347255  1
  V  V29  1  0.62362924  0.87482510  0.63394072  1
  V  V30  1  0.62528984  0.62420874  0.13975886  1
  V  V31  1  0.12864439  0.12660942  0.39307117  1
  Fe  Fe32  1  0.87285595  0.62348284  0.39499793  1
  Fe  Fe33  1  0.37403360  0.12336951  0.88158214  1
  Fe  Fe34  1  0.12436707  0.62770109  0.13972410  1
  Fe  Fe35  1  0.37397592  0.87328393  0.88081720  1
  Fe  Fe36  1  0.12305539  0.87548573  0.14053704  1
  Fe  Fe37  1  0.12250841  0.37696606  0.88447475  1
  Fe  Fe38  1  0.37617867  0.87154617  0.64202541  1
  Fe  Fe39  1  0.62237711  0.87599887  0.38210866  1
  Fe  Fe40  1  0.62680444  0.37545370  0.13874867  1
  Fe  Fe41  1  0.62745052  0.12340236  0.88041996  1
  Fe  Fe42  1  0.87398468  0.87377058  0.62989366  1
  Fe  Fe43  1  0.37468857  0.37565693  0.88028429  1
  Fe  Fe44  1  0.12869354  0.37202524  0.38080533  1
  Fe  Fe45  1  0.87542722  0.87520208  0.88438502  1
  Fe  Fe46  1  0.87739828  0.12551456  0.39672823  1
  Fe  Fe47  1  0.87408719  0.62356003  0.62454152  1
  Fe  Fe48  1  0.62237375  0.12435064  0.39631585  1
  Fe  Fe49  1  0.62672888  0.62595318  0.88473531  1
  Fe  Fe50  1  0.12593103  0.87262093  0.62919563  1
  Fe  Fe51  1  0.62524797  0.37741024  0.63178611  1
  Fe  Fe52  1  0.37790293  0.62505471  0.38323163  1
  Fe  Fe53  1  0.62434461  0.12610595  0.13620087  1
  Fe  Fe54  1  0.62643955  0.87438259  0.14690983  1
  Fe  Fe55  1  0.62621094  0.12663340  0.63079418  1
  Fe  Fe56  1  0.37530285  0.37827366  0.64112094  1
  Fe  Fe57  1  0.12281747  0.62567078  0.88543230  1
  Fe  Fe58  1  0.87454536  0.37492019  0.88462936  1
  Fe  Fe59  1  0.12313927  0.37346590  0.14407701  1
  Fe  Fe60  1  0.87913561  0.12749577  0.62688372  1
  Fe  Fe61  1  0.12381566  0.62282244  0.62971749  1
  Fe  Fe62  1  0.12813429  0.62434477  0.38946175  1
  Fe  Fe63  1  0.37223635  0.12587188  0.63544231  1
  Pb  Pb64  1  0.00187258  -0.00425795  0.00002455  1
  Pb  Pb65  1  -0.00861044  0.00507256  0.25663602  1
  Pb  Pb66  1  -0.00148555  -0.00916598  0.50521706  1
  Pb  Pb67  1  -0.00990748  -0.00918145  0.74266670  1
  Pb  Pb68  1  0.00334269  0.25742756  0.00023697  1
  Pb  Pb69  1  -0.00618425  0.24454565  0.25420115  1
  Pb  Pb70  1  0.00037251  0.24630704  0.50091638  1
  Pb  Pb71  1  -0.00294032  0.26167952  0.75112568  1
  Pb  Pb72  1  0.00619658  0.49894100  0.00033420  1
  Pb  Pb73  1  0.00903714  0.50391751  0.25517733  1
  Pb  Pb74  1  0.00681495  0.51020636  0.49681071  1
  Pb  Pb75  1  0.00242204  0.50158818  0.74811876  1
  Pb  Pb76  1  0.00710080  0.74812327  0.00351088  1
  Pb  Pb77  1  0.00379571  0.74116925  0.25754853  1
  Pb  Pb78  1  0.00132925  0.74933862  0.50023035  1
  Pb  Pb79  1  -0.00176756  0.74669892  0.73614245  1
  Pb  Pb80  1  0.25015166  -0.00445981  -0.00503712  1
  Pb  Pb81  1  0.25117349  -0.00086918  0.24960885  1
  Pb  Pb82  1  0.25586900  -0.00655260  0.50940891  1
  Pb  Pb83  1  0.26068347  -0.00451744  0.74771498  1
  Pb  Pb84  1  0.24845157  0.25710712  -0.00658097  1
  Pb  Pb85  1  0.24908266  0.25488638  0.24985176  1
  Pb  Pb86  1  0.26331111  0.25282071  0.50821530  1
  Pb  Pb87  1  0.25767707  0.25294088  0.75055218  1
  Pb  Pb88  1  0.24132071  0.49768457  -0.00065372  1
  Pb  Pb89  1  0.24140741  0.50182790  0.25202943  1
  Pb  Pb90  1  0.24625300  0.50558790  0.49615774  1
  Pb  Pb91  1  0.23652262  0.49996937  0.75424742  1
  Pb  Pb92  1  0.24022192  0.74763725  0.00331992  1
  Pb  Pb93  1  0.24691432  0.74232482  0.25371246  1
  Pb  Pb94  1  0.24862112  0.75369202  0.50181044  1
  Pb  Pb95  1  0.24533484  0.75085381  0.74460247  1
  Pb  Pb96  1  0.50227992  0.00265582  -0.00563734  1
  Pb  Pb97  1  0.51058451  0.00354042  0.25442993  1
  Pb  Pb98  1  0.49921608  0.00681579  0.50503527  1
  Pb  Pb99  1  0.49638888  0.01304449  0.74586332  1
  Pb  Pb100  1  0.50161782  0.24494845  -0.00899702  1
  Pb  Pb101  1  0.50832885  0.24240967  0.25171937  1
  Pb  Pb102  1  0.49650412  0.25440965  0.50912706  1
  Pb  Pb103  1  0.49753014  0.24921098  0.74175492  1
  Pb  Pb104  1  0.50199341  0.49714674  -0.00316103  1
  Pb  Pb105  1  0.49468250  0.50282152  0.25070431  1
  Pb  Pb106  1  0.49864100  0.49029900  0.50432011  1
  Pb  Pb107  1  0.49888822  0.49630400  0.74968676  1
  Pb  Pb108  1  0.50179631  0.75494463  -0.00145705  1
  Pb  Pb109  1  0.49668309  0.74886437  0.25081271  1
  Pb  Pb110  1  0.49242149  0.75701568  0.50341986  1
  Pb  Pb111  1  0.50642715  0.74519872  0.75227672  1
  Pb  Pb112  1  0.73754884  -0.00184627  0.00674194  1
  Pb  Pb113  1  0.74114252  0.00427368  0.25696827  1
  Pb  Pb114  1  0.74466607  0.00765813  0.49997694  1
  Pb  Pb115  1  0.75060349  0.00495133  0.74056139  1
  Pb  Pb116  1  0.73859058  0.24852337  0.00283661  1
  Pb  Pb117  1  0.74764577  0.23945501  0.25527166  1
  Pb  Pb118  1  0.74664234  0.24335731  0.50215365  1
  Pb  Pb119  1  0.74566113  0.24507987  0.74159858  1
  Pb  Pb120  1  0.74829109  0.49605397  -0.00042757  1
  Pb  Pb121  1  0.75541608  0.50378898  0.25556104  1
  Pb  Pb122  1  0.74422761  0.49750196  0.50061978  1
  Pb  Pb123  1  0.75412669  0.50040084  0.74847766  1
  Pb  Pb124  1  0.74660665  0.75659229  0.00188232  1
  Pb  Pb125  1  0.75535949  0.74559960  0.25601721  1
  Pb  Pb126  1  0.75945970  0.75131803  0.50267170  1
  Pb  Pb127  1  0.75630121  0.75045801  0.74629982  1
  O  O128  1  0.12568162  0.00341093  0.16963982  1
  O  O129  1  0.12870521  0.00045500  0.41936314  1
  O  O130  1  0.12211019  0.00675070  0.65264564  1
  O  O131  1  0.12254285  -0.00259571  0.91194548  1
  O  O132  1  0.12598871  0.24338076  0.16823918  1
  O  O133  1  0.12838359  0.24484106  0.41224742  1
  O  O134  1  0.12168037  0.25690211  0.66304261  1
  O  O135  1  0.12173911  0.24320566  0.90877685  1
  O  O136  1  0.12463051  0.50100485  0.16590186  1
  O  O137  1  0.12790000  0.49433744  0.41198992  1
  O  O138  1  0.12373109  0.49474783  0.66189893  1
  O  O139  1  0.12345005  0.50271453  0.91725324  1
  O  O140  1  0.12331886  0.75241297  0.17292560  1
  O  O141  1  0.12816095  0.75851775  0.40989923  1
  O  O142  1  0.12690212  0.74686403  0.65756403  1
  O  O143  1  0.12310755  0.75431806  0.91255793  1
  O  O144  1  0.37222978  -0.00205614  0.16082867  1
  O  O145  1  0.37210620  -0.00325076  0.41881623  1
  O  O146  1  0.37270099  -0.00010872  0.65961320  1
  O  O147  1  0.37214673  -0.00289752  0.91446144  1
  O  O148  1  0.37434866  0.25190776  0.16097276  1
  O  O149  1  0.37554880  0.25282498  0.41815531  1
  O  O150  1  0.37099183  0.25094452  0.66325920  1
  O  O151  1  0.37368119  0.24952987  0.91129302  1
  O  O152  1  0.37703976  0.49614663  0.16251613  1
  O  O153  1  0.37893407  0.49347295  0.40830923  1
  O  O154  1  0.38001715  0.50975430  0.66227643  1
  O  O155  1  0.37732683  0.50586761  0.91484957  1
  O  O156  1  0.37644449  0.75413836  0.16414064  1
  O  O157  1  0.37507126  0.75659291  0.41123023  1
  O  O158  1  0.37886651  0.73958288  0.66610561  1
  O  O159  1  0.37711834  0.74628534  0.91446974  1
  O  O160  1  0.62559703  0.00267972  0.16853790  1
  O  O161  1  0.62331633  -0.00379254  0.41720061  1
  O  O162  1  0.62550484  -0.00828740  0.65264969  1
  O  O163  1  0.62822180  -0.00642145  0.91232010  1
  O  O164  1  0.62534422  0.25043628  0.16999471  1
  O  O165  1  0.62107607  0.25769959  0.41498801  1
  O  O166  1  0.62789961  0.25269385  0.65755387  1
  O  O167  1  0.62820079  0.25488385  0.90774300  1
  O  O168  1  0.62562574  0.50358934  0.16750696  1
  O  O169  1  0.62103482  0.49761937  0.41400198  1
  O  O170  1  0.62601369  0.50613926  0.66289191  1
  O  O171  1  0.62751139  0.49596877  0.91312656  1
  O  O172  1  0.62547214  0.74408747  0.16772515  1
  O  O173  1  0.62094716  0.74645968  0.40753926  1
  O  O174  1  0.62603963  0.74791559  0.66417109  1
  O  O175  1  0.62652838  0.75543221  0.91532203  1
  O  O176  1  0.87692798  -0.00167564  0.16695517  1
  O  O177  1  0.87969041  -0.00680679  0.41453597  1
  O  O178  1  0.87750994  0.00150388  0.65455182  1
  O  O179  1  0.87917795  0.00567437  0.91626996  1
  O  O180  1  0.87618350  0.25058393  0.16722733  1
  O  O181  1  0.87328005  0.25998226  0.41546025  1
  O  O182  1  0.87805625  0.25774300  0.65878371  1
  O  O183  1  0.87906810  0.24019745  0.91370930  1
  O  O184  1  0.87220389  0.49662677  0.16561250  1
  O  O185  1  0.86925742  0.48971487  0.41328984  1
  O  O186  1  0.87406463  0.49612715  0.65914900  1
  O  O187  1  0.87260654  0.50677030  0.91473618  1
  O  O188  1  0.87370867  0.75240384  0.16780876  1
  O  O189  1  0.87663178  0.75656156  0.41259541  1
  O  O190  1  0.87092625  0.74730159  0.65719637  1
  O  O191  1  0.87326370  0.74611894  0.91413048  1
  O  O192  1  -0.00015872  0.12433589  0.16824162  1
  O  O193  1  0.01101752  0.12438017  0.41617421  1
  O  O194  1  0.00577947  0.13219690  0.66257798  1
  O  O195  1  0.00430833  0.12142352  0.91592222  1
  O  O196  1  -0.00946223  0.37421974  0.16724243  1
  O  O197  1  -0.00321231  0.37323557  0.40433318  1
  O  O198  1  -0.00095882  0.37780969  0.66155255  1
  O  O199  1  -0.00260207  0.37463247  0.91851406  1
  O  O200  1  -0.00609299  0.62512202  0.16785989  1
  O  O201  1  0.00018736  0.62408009  0.41071784  1
  O  O202  1  -0.00228310  0.62188345  0.65333435  1
  O  O203  1  -0.00801928  0.62642462  0.91256319  1
  O  O204  1  -0.00813976  0.87512442  0.17053213  1
  O  O205  1  0.00465582  0.87675584  0.41265107  1
  O  O206  1  0.00128983  0.87340058  0.65849078  1
  O  O207  1  0.00445709  0.87526577  0.91449389  1
  O  O208  1  0.25246188  0.12446442  0.16632270  1
  O  O209  1  0.24668361  0.12356559  0.42118881  1
  O  O210  1  0.23736690  0.13116374  0.66241694  1
  O  O211  1  0.23886089  0.12169473  0.91065994  1
  O  O212  1  0.25949764  0.37417697  0.16460698  1
  O  O213  1  0.25777987  0.37229391  0.41104727  1
  O  O214  1  0.24302564  0.37752128  0.65981621  1
  O  O215  1  0.24912417  0.37665019  0.91292896  1
  O  O216  1  0.25476215  0.62730142  0.16385033  1
  O  O217  1  0.25539934  0.62491873  0.41267823  1
  O  O218  1  0.25695624  0.62302589  0.65503971  1
  O  O219  1  0.25688709  0.62635959  0.91415315  1
  O  O220  1  0.25688106  0.87472246  0.16688872  1
  O  O221  1  0.25254439  0.87729854  0.41641766  1
  O  O222  1  0.24816229  0.87275744  0.66310347  1
  O  O223  1  0.24162581  0.87372556  0.91169771  1
  O  O224  1  0.49331455  0.12535794  0.16269308  1
  O  O225  1  0.49344857  0.12457550  0.41946040  1
  O  O226  1  0.50079126  0.12434913  0.65662180  1
  O  O227  1  0.50217049  0.12238826  0.90967347  1
  O  O228  1  0.49359788  0.37420082  0.16427550  1
  O  O229  1  0.49769311  0.37377630  0.41556637  1
  O  O230  1  0.50216239  0.37847335  0.66479696  1
  O  O231  1  0.50739060  0.37629109  0.90856039  1
  O  O232  1  0.50051913  0.62494022  0.16703502  1
  O  O233  1  0.50479581  0.62313631  0.41645962  1
  O  O234  1  0.50339741  0.62628812  0.66486456  1
  O  O235  1  0.49735802  0.62622360  0.91613356  1
  O  O236  1  0.49121186  0.87635118  0.16436108  1
  O  O237  1  0.49298682  0.87656129  0.41236565  1
  O  O238  1  0.50902668  0.86891921  0.66259030  1
  O  O239  1  0.50654848  0.87443137  0.90967873  1
  O  O240  1  0.75494495  0.12555734  0.16626209  1
  O  O241  1  0.75084386  0.12667394  0.41442310  1
  O  O242  1  0.75383617  0.12560670  0.65632885  1
  O  O243  1  0.75601969  0.12317121  0.90965612  1
  O  O244  1  0.75754474  0.37274437  0.16955256  1
  O  O245  1  0.74502092  0.37522057  0.41125384  1
  O  O246  1  0.75584156  0.37793780  0.65806440  1
  O  O247  1  0.74717764  0.37473967  0.91388939  1
  O  O248  1  0.75048645  0.62478846  0.16978468  1
  O  O249  1  0.73700056  0.62274721  0.41518715  1
  O  O250  1  0.74537117  0.62412345  0.65966545  1
  O  O251  1  0.75364627  0.62655206  0.91688029  1
  O  O252  1  0.75990255  0.87622113  0.17037070  1
  O  O253  1  0.75301532  0.87331135  0.40761863  1
  O  O254  1  0.74178825  0.87145864  0.65823657  1
  O  O255  1  0.74689353  0.87480007  0.91497735  1
  O  O256  1  0.12552006  0.12313302  0.04845092  1
  O  O257  1  0.13121964  0.12167763  0.30183369  1
  O  O258  1  0.12152383  0.13135370  0.54501299  1
  O  O259  1  0.11883259  0.12149323  0.79556207  1
  O  O260  1  0.12288858  0.37164241  0.04304900  1
  O  O261  1  0.13244138  0.37485940  0.27986401  1
  O  O262  1  0.12328910  0.37362963  0.54716687  1
  O  O263  1  0.11956524  0.38340871  0.78404558  1
  O  O264  1  0.12394886  0.63578859  0.03819039  1
  O  O265  1  0.12618156  0.62439115  0.28654440  1
  O  O266  1  0.12691464  0.61756384  0.52789948  1
  O  O267  1  0.12764887  0.61790216  0.78555199  1
  O  O268  1  0.12152610  0.87116020  0.04072312  1
  O  O269  1  0.12938053  0.88384569  0.30382987  1
  O  O270  1  0.12783232  0.87368462  0.52803587  1
  O  O271  1  0.12243821  0.87397341  0.79653094  1
  O  O272  1  0.37280042  0.12469473  0.04341033  1
  O  O273  1  0.37178741  0.12486626  0.30612661  1
  O  O274  1  0.36897719  0.12909406  0.53340962  1
  O  O275  1  0.37226463  0.12046466  0.78067530  1
  O  O276  1  0.37662915  0.37390735  0.04633917  1
  O  O277  1  0.37758756  0.36996102  0.29885566  1
  O  O278  1  0.37859242  0.37377809  0.53911017  1
  O  O279  1  0.37399023  0.37629991  0.77999973  1
  O  O280  1  0.37923418  0.62572455  0.05049865  1
  O  O281  1  0.38306722  0.62713107  0.28279544  1
  O  O282  1  0.38000665  0.62807861  0.54444600  1
  O  O283  1  0.37554916  0.62499476  0.79861943  1
  O  O284  1  0.37374275  0.87448992  0.04742390  1
  O  O285  1  0.37239660  0.87956929  0.30017509  1
  O  O286  1  0.37474971  0.86538725  0.54020578  1
  O  O287  1  0.36880114  0.87517715  0.78085451  1
  O  O288  1  0.63055707  0.12558528  0.03517104  1
  O  O289  1  0.61913327  0.12510864  0.29336984  1
  O  O290  1  0.62824466  0.12333532  0.52792264  1
  O  O291  1  0.63179518  0.11931276  0.78045344  1
  O  O292  1  0.63186146  0.37184605  0.03914559  1
  O  O293  1  0.62265970  0.37497081  0.30171245  1
  O  O294  1  0.62087763  0.38375384  0.53124866  1
  O  O295  1  0.63139538  0.37947947  0.79516457  1
  O  O296  1  0.62540752  0.62479973  0.04814401  1
  O  O297  1  0.62070071  0.62392243  0.29745627  1
  O  O298  1  0.62229505  0.62696488  0.54963690  1
  O  O299  1  0.62631741  0.62920037  0.78574578  1
  O  O300  1  0.63283234  0.87689161  0.04577165  1
  O  O301  1  0.62230035  0.88303404  0.28108057  1
  O  O302  1  0.62101877  0.86722370  0.54233175  1
  O  O303  1  0.63012992  0.87320036  0.79634920  1
  O  O304  1  0.87603681  0.12467771  0.04962737  1
  O  O305  1  0.88414319  0.12722148  0.29491095  1
  O  O306  1  0.88200048  0.13208790  0.52525154  1
  O  O307  1  0.87631370  0.12257939  0.79725338  1
  O  O308  1  0.87273276  0.37327018  0.05086497  1
  O  O309  1  0.87390043  0.37396356  0.29579779  1
  O  O310  1  0.87768137  0.37703889  0.54502653  1
  O  O311  1  0.87799680  0.37647384  0.78517385  1
  O  O312  1  0.87253410  0.62546652  0.05221435  1
  O  O313  1  0.86403120  0.62427952  0.29337772  1
  O  O314  1  0.86830011  0.62648739  0.52248381  1
  O  O315  1  0.86946290  0.62559290  0.79746878  1
  O  O316  1  0.87559651  0.87544308  0.05197770  1
  O  O317  1  0.87724534  0.87694203  0.30056584  1
  O  O318  1  0.87641635  0.86973574  0.52874671  1
  O  O319  1  0.87670863  0.87692850  0.78503213  1
