# generated using pymatgen
data_VFe(PbO3)2
_symmetry_space_group_name_H-M   'P 1'
_cell_length_a   15.38796100
_cell_length_b   15.38763686
_cell_length_c   18.51781357
_cell_angle_alpha   90.01333027
_cell_angle_beta   90.02884314
_cell_angle_gamma   89.98982969
_symmetry_Int_Tables_number   1
_chemical_formula_structural   VFe(PbO3)2
_chemical_formula_sum   'V32 Fe32 Pb64 O192'
_cell_volume   4384.72781307
_cell_formula_units_Z   32
loop_
 _symmetry_equiv_pos_site_id
 _symmetry_equiv_pos_as_xyz
  1  'x, y, z'
loop_
 _atom_site_type_symbol
 _atom_site_label
 _atom_site_symmetry_multiplicity
 _atom_site_fract_x
 _atom_site_fract_y
 _atom_site_fract_z
 _atom_site_occupancy
  V  V0  1  0.12595581  0.62766628  0.15136888  1
  V  V1  1  0.62604101  0.12690289  0.89605537  1
  V  V2  1  0.62713591  0.12695066  0.63791724  1
  V  V3  1  0.87615398  0.87635419  0.63577597  1
  V  V4  1  0.12420898  0.37577960  0.14346880  1
  V  V5  1  0.37586277  0.37576355  0.89239751  1
  V  V6  1  0.62558912  0.37413765  0.14185540  1
  V  V7  1  0.12321907  0.12725578  0.89119123  1
  V  V8  1  0.87610946  0.62967674  0.63586807  1
  V  V9  1  0.87513199  0.62549347  0.38301507  1
  V  V10  1  0.62382467  0.12346679  0.38591442  1
  V  V11  1  0.37621274  0.62219210  0.14421053  1
  V  V12  1  0.37471110  0.12542177  0.63636767  1
  V  V13  1  0.37604793  0.87437720  0.14042277  1
  V  V14  1  0.62449963  0.87606659  0.38793772  1
  V  V15  1  0.12537551  0.37473623  0.38661527  1
  V  V16  1  0.87509843  0.87234256  0.14780476  1
  V  V17  1  0.12491240  0.37339683  0.89107593  1
  V  V18  1  0.87844351  0.62535652  0.89398103  1
  V  V19  1  0.37282179  0.12461141  0.89559895  1
  V  V20  1  0.12481202  0.62480797  0.63519228  1
  V  V21  1  0.62725774  0.87407915  0.13947668  1
  V  V22  1  0.12472166  0.87550861  0.89319115  1
  V  V23  1  0.87479130  0.87536141  0.89192866  1
  V  V24  1  0.12929415  0.12603974  0.14196574  1
  V  V25  1  0.87492137  0.37956974  0.63611238  1
  V  V26  1  0.62598391  0.37379137  0.89304206  1
  V  V27  1  0.87482372  0.62343018  0.14418366  1
  V  V28  1  0.12924583  0.12430394  0.38826240  1
  V  V29  1  0.87460954  0.12518670  0.14400098  1
  V  V30  1  0.37910767  0.12417491  0.38871985  1
  V  V31  1  0.87750301  0.12419391  0.89173252  1
  Fe  Fe32  1  0.62594955  0.12297138  0.13413212  1
  Fe  Fe33  1  0.62600981  0.62597248  0.37960835  1
  Fe  Fe34  1  0.12186243  0.62193151  0.88839007  1
  Fe  Fe35  1  0.62772010  0.62457753  0.62937989  1
  Fe  Fe36  1  0.37557183  0.62441543  0.62522827  1
  Fe  Fe37  1  0.87343065  0.37437504  0.89044968  1
  Fe  Fe38  1  0.12376291  0.62354171  0.37625286  1
  Fe  Fe39  1  0.37357130  0.87471533  0.62975643  1
  Fe  Fe40  1  0.62694274  0.87474724  0.63675819  1
  Fe  Fe41  1  0.12260824  0.87404766  0.63164058  1
  Fe  Fe42  1  0.12484816  0.87642193  0.37732540  1
  Fe  Fe43  1  0.37426574  0.62489448  0.38661246  1
  Fe  Fe44  1  0.62593137  0.62333419  0.88678309  1
  Fe  Fe45  1  0.12476325  0.37636128  0.63133661  1
  Fe  Fe46  1  0.12556415  0.87708559  0.14862860  1
  Fe  Fe47  1  0.62762317  0.87614960  0.88354113  1
  Fe  Fe48  1  0.37556737  0.37572345  0.63032693  1
  Fe  Fe49  1  0.87536156  0.37450512  0.37749971  1
  Fe  Fe50  1  0.37452360  0.37039320  0.38357633  1
  Fe  Fe51  1  0.37329705  0.37433683  0.14210315  1
  Fe  Fe52  1  0.87641273  0.37595335  0.14720026  1
  Fe  Fe53  1  0.87320858  0.87517529  0.37992147  1
  Fe  Fe54  1  0.37750669  0.12353390  0.13276707  1
  Fe  Fe55  1  0.12183727  0.12552565  0.63076161  1
  Fe  Fe56  1  0.87244862  0.12651109  0.62733218  1
  Fe  Fe57  1  0.87560423  0.12436795  0.38960874  1
  Fe  Fe58  1  0.62478152  0.62535710  0.14698704  1
  Fe  Fe59  1  0.62538814  0.37207951  0.38512364  1
  Fe  Fe60  1  0.37145535  0.62545943  0.88505788  1
  Fe  Fe61  1  0.37623394  0.87523724  0.88489868  1
  Fe  Fe62  1  0.37575470  0.87852938  0.39135035  1
  Fe  Fe63  1  0.62527500  0.37507692  0.63004081  1
  Pb  Pb64  1  0.00746728  -0.00431325  0.00839167  1
  Pb  Pb65  1  -0.00417110  -0.00010107  0.25621969  1
  Pb  Pb66  1  0.00174339  0.00163801  0.49380161  1
  Pb  Pb67  1  0.00098408  0.00472488  0.74155400  1
  Pb  Pb68  1  -0.00660485  0.25648620  0.00526821  1
  Pb  Pb69  1  -0.00724028  0.24613511  0.25650091  1
  Pb  Pb70  1  0.00268370  0.24610703  0.49783310  1
  Pb  Pb71  1  -0.00345655  0.25230559  0.74324911  1
  Pb  Pb72  1  -0.00649612  0.49423718  0.00661088  1
  Pb  Pb73  1  0.00130976  0.50085458  0.25386515  1
  Pb  Pb74  1  0.00287504  0.49538801  0.49354687  1
  Pb  Pb75  1  0.00224174  0.50165515  0.75127627  1
  Pb  Pb76  1  0.00629131  0.75735645  0.00838692  1
  Pb  Pb77  1  0.00713302  0.75405566  0.25485070  1
  Pb  Pb78  1  0.00764408  0.75768675  0.48731375  1
  Pb  Pb79  1  0.00551075  0.74276637  0.75141858  1
  Pb  Pb80  1  0.24983382  0.00136561  0.00313928  1
  Pb  Pb81  1  0.25468398  -0.01280794  0.25642458  1
  Pb  Pb82  1  0.24557374  -0.01144148  0.50074066  1
  Pb  Pb83  1  0.25225853  -0.00612031  0.74419190  1
  Pb  Pb84  1  0.25788816  0.25268084  0.00746884  1
  Pb  Pb85  1  0.25838068  0.25198118  0.25106936  1
  Pb  Pb86  1  0.24292475  0.25258440  0.50174924  1
  Pb  Pb87  1  0.24537989  0.25415272  0.74245514  1
  Pb  Pb88  1  0.25288856  0.49790924  0.00141165  1
  Pb  Pb89  1  0.25760806  0.50973001  0.25944336  1
  Pb  Pb90  1  0.26011139  0.50050813  0.49392087  1
  Pb  Pb91  1  0.25646094  0.50731027  0.74405594  1
  Pb  Pb92  1  0.25032691  0.74802732  -0.00047362  1
  Pb  Pb93  1  0.26128399  0.75003493  0.25964485  1
  Pb  Pb94  1  0.25244846  0.74951008  0.48825068  1
  Pb  Pb95  1  0.26471480  0.75214098  0.74655103  1
  Pb  Pb96  1  0.50141094  0.00406133  -0.00227502  1
  Pb  Pb97  1  0.49776288  -0.00219022  0.24728375  1
  Pb  Pb98  1  0.50232322  -0.01252168  0.50604549  1
  Pb  Pb99  1  0.49932238  -0.01216296  0.74854132  1
  Pb  Pb100  1  0.49195894  0.25089649  0.00786940  1
  Pb  Pb101  1  0.49829687  0.25335956  0.24740438  1
  Pb  Pb102  1  0.49977486  0.26364245  0.49963064  1
  Pb  Pb103  1  0.50106676  0.25226584  0.74551601  1
  Pb  Pb104  1  0.50265735  0.50681836  0.00151832  1
  Pb  Pb105  1  0.50254952  0.49080373  0.25851716  1
  Pb  Pb106  1  0.49903433  0.49994159  0.48908434  1
  Pb  Pb107  1  0.49994297  0.50798063  0.73835787  1
  Pb  Pb108  1  0.50277116  0.74872220  -0.00872369  1
  Pb  Pb109  1  0.49469334  0.74470454  0.25658762  1
  Pb  Pb110  1  0.49577256  0.73884573  0.49698453  1
  Pb  Pb111  1  0.49823537  0.74566710  0.73925172  1
  Pb  Pb112  1  0.74881615  0.00408446  0.00267478  1
  Pb  Pb113  1  0.76038569  0.00462768  0.25692581  1
  Pb  Pb114  1  0.75317925  0.00007608  0.49777749  1
  Pb  Pb115  1  0.74641391  -0.00375656  0.74878208  1
  Pb  Pb116  1  0.74886989  0.24833390  0.00638866  1
  Pb  Pb117  1  0.75073562  0.25430355  0.25332348  1
  Pb  Pb118  1  0.75471592  0.25319673  0.49217646  1
  Pb  Pb119  1  0.75931528  0.25776330  0.74839420  1
  Pb  Pb120  1  0.74570020  0.50269336  0.00782774  1
  Pb  Pb121  1  0.73773041  0.49454235  0.25762364  1
  Pb  Pb122  1  0.73930454  0.49942675  0.49136385  1
  Pb  Pb123  1  0.74475305  0.50406095  0.74764863  1
  Pb  Pb124  1  0.74330601  0.74549746  0.00147946  1
  Pb  Pb125  1  0.74824094  0.74813135  0.25353485  1
  Pb  Pb126  1  0.73855987  0.74942133  0.49909747  1
  Pb  Pb127  1  0.73699777  0.74805019  0.75243807  1
  O  O128  1  0.12207346  0.01142545  0.16670396  1
  O  O129  1  0.12604270  0.00738683  0.40699900  1
  O  O130  1  0.12089574  0.00037915  0.66316833  1
  O  O131  1  0.12146503  -0.00059129  0.91897744  1
  O  O132  1  0.12093069  0.24501934  0.16818154  1
  O  O133  1  0.12552465  0.25019800  0.41207594  1
  O  O134  1  0.12309923  0.25049827  0.66467237  1
  O  O135  1  0.12491959  0.25371261  0.91727254  1
  O  O136  1  0.12395903  0.49178994  0.16592324  1
  O  O137  1  0.12321834  0.49273868  0.40644952  1
  O  O138  1  0.11796248  0.50631121  0.66219762  1
  O  O139  1  0.12368293  0.49039609  0.91711237  1
  O  O140  1  0.12393797  0.74845378  0.16848506  1
  O  O141  1  0.12201204  0.74896555  0.39929064  1
  O  O142  1  0.11608262  0.74200383  0.66020647  1
  O  O143  1  0.12046245  0.75715118  0.91571431  1
  O  O144  1  0.37590952  -0.00583935  0.16106478  1
  O  O145  1  0.37390449  0.01049397  0.41699585  1
  O  O146  1  0.37753401  0.00854253  0.66292489  1
  O  O147  1  0.37158241  0.00248722  0.91758932  1
  O  O148  1  0.37516364  0.24756101  0.16499387  1
  O  O149  1  0.37298607  0.23975203  0.41289901  1
  O  O150  1  0.37838532  0.24214466  0.66404472  1
  O  O151  1  0.37423023  0.25171423  0.92150202  1
  O  O152  1  0.37227237  0.50488975  0.16292503  1
  O  O153  1  0.37349421  0.49616843  0.40569132  1
  O  O154  1  0.37231739  0.50160613  0.65973555  1
  O  O155  1  0.37226497  0.49545538  0.91802767  1
  O  O156  1  0.37437808  0.75186952  0.16677172  1
  O  O157  1  0.37492334  0.75255759  0.40964961  1
  O  O158  1  0.37239195  0.74853977  0.65676525  1
  O  O159  1  0.37009034  0.75152200  0.91739721  1
  O  O160  1  0.62370084  -0.00957678  0.16233015  1
  O  O161  1  0.62247289  0.00296064  0.41433767  1
  O  O162  1  0.62797097  0.00773961  0.66533177  1
  O  O163  1  0.62883780  0.00447432  0.91610361  1
  O  O164  1  0.62653076  0.25462213  0.16069381  1
  O  O165  1  0.62276766  0.23906146  0.40862109  1
  O  O166  1  0.62585471  0.24438288  0.66398042  1
  O  O167  1  0.62493573  0.25485713  0.92197533  1
  O  O168  1  0.62524744  0.49501302  0.16773244  1
  O  O169  1  0.62775787  0.50084850  0.40448780  1
  O  O170  1  0.63055489  0.49956663  0.66079221  1
  O  O171  1  0.62634458  0.49307670  0.91827029  1
  O  O172  1  0.62237981  0.75801065  0.16762370  1
  O  O173  1  0.62697122  0.75775907  0.40565531  1
  O  O174  1  0.63131039  0.74883389  0.66292288  1
  O  O175  1  0.63043423  0.74946580  0.91380217  1
  O  O176  1  0.87298887  0.00249018  0.16623025  1
  O  O177  1  0.87278268  -0.00156965  0.41377132  1
  O  O178  1  0.87411899  -0.00593440  0.65615462  1
  O  O179  1  0.87783648  0.00101190  0.91979468  1
  O  O180  1  0.87458642  0.24341909  0.16534461  1
  O  O181  1  0.87571275  0.25048632  0.40947173  1
  O  O182  1  0.87375207  0.25702252  0.65874779  1
  O  O183  1  0.87613281  0.24599688  0.92063999  1
  O  O184  1  0.87781759  0.50710648  0.16525358  1
  O  O185  1  0.87499020  0.50498045  0.40717123  1
  O  O186  1  0.87599878  0.50025107  0.66039868  1
  O  O187  1  0.87809266  0.50479332  0.91743132  1
  O  O188  1  0.87646499  0.74766604  0.16992538  1
  O  O189  1  0.87587850  0.74512073  0.40604361  1
  O  O190  1  0.87811483  0.74653960  0.66073606  1
  O  O191  1  0.87814979  0.74818545  0.91906815  1
  O  O192  1  -0.00437426  0.12437136  0.16727643  1
  O  O193  1  0.00869229  0.12713297  0.40791668  1
  O  O194  1  -0.00562318  0.12634583  0.66281449  1
  O  O195  1  0.00187666  0.12612912  0.91972933  1
  O  O196  1  0.00767331  0.37075526  0.17006603  1
  O  O197  1  0.00462344  0.37306617  0.40836090  1
  O  O198  1  -0.00684853  0.37628629  0.66197537  1
  O  O199  1  0.00516517  0.37284536  0.91670860  1
  O  O200  1  -0.00393207  0.62627645  0.16978850  1
  O  O201  1  -0.00494475  0.62223027  0.40717439  1
  O  O202  1  -0.00571173  0.62264014  0.66650044  1
  O  O203  1  -0.00430163  0.62575770  0.92246417  1
  O  O204  1  -0.00496421  0.87763599  0.16925302  1
  O  O205  1  -0.00056775  0.87817110  0.40474879  1
  O  O206  1  -0.00850642  0.87279687  0.66391713  1
  O  O207  1  0.00080033  0.87652444  0.92325655  1
  O  O208  1  0.24509339  0.12708155  0.15931159  1
  O  O209  1  0.24876468  0.12697945  0.41232804  1
  O  O210  1  0.25705537  0.12570730  0.65797189  1
  O  O211  1  0.24514648  0.12528552  0.92027191  1
  O  O212  1  0.24085656  0.36961143  0.16633753  1
  O  O213  1  0.24364102  0.36971647  0.40813336  1
  O  O214  1  0.25020512  0.37362217  0.66280566  1
  O  O215  1  0.24649946  0.37279527  0.91652405  1
  O  O216  1  0.25386687  0.62630681  0.16883461  1
  O  O217  1  0.24545736  0.62265003  0.40811728  1
  O  O218  1  0.24019813  0.62388530  0.65236959  1
  O  O219  1  0.24501659  0.62377725  0.92045466  1
  O  O220  1  0.25789149  0.87557313  0.16427181  1
  O  O221  1  0.24784433  0.88064798  0.40963060  1
  O  O222  1  0.24774482  0.87743252  0.66032720  1
  O  O223  1  0.24044913  0.87824371  0.91492001  1
  O  O224  1  0.50201666  0.12224362  0.16152759  1
  O  O225  1  0.49849666  0.12287389  0.40971738  1
  O  O226  1  0.50309614  0.12455698  0.66480530  1
  O  O227  1  0.50007109  0.12703108  0.91771736  1
  O  O228  1  0.50483412  0.37609646  0.16360585  1
  O  O229  1  0.49974428  0.36951450  0.40895197  1
  O  O230  1  0.50085480  0.37252750  0.66351207  1
  O  O231  1  0.50319048  0.37413412  0.91735596  1
  O  O232  1  0.49260249  0.62725366  0.16453340  1
  O  O233  1  0.50235555  0.62760738  0.40616003  1
  O  O234  1  0.50144949  0.62562163  0.65386201  1
  O  O235  1  0.49917744  0.62199987  0.91415072  1
  O  O236  1  0.49811038  0.87322017  0.16302049  1
  O  O237  1  0.50748768  0.87972099  0.41399005  1
  O  O238  1  0.49994227  0.87800539  0.66086692  1
  O  O239  1  0.50198710  0.87729785  0.91156271  1
  O  O240  1  0.75411470  0.12377661  0.16471694  1
  O  O241  1  0.74013374  0.12195225  0.40938274  1
  O  O242  1  0.74613193  0.12621404  0.66060724  1
  O  O243  1  0.75370916  0.12691677  0.92119766  1
  O  O244  1  0.74567891  0.37524205  0.16408381  1
  O  O245  1  0.75164204  0.37195449  0.40759060  1
  O  O246  1  0.75624816  0.37485678  0.66112705  1
  O  O247  1  0.74390496  0.37373788  0.91818037  1
  O  O248  1  0.75784180  0.62823843  0.16671389  1
  O  O249  1  0.75698917  0.62751337  0.40747129  1
  O  O250  1  0.76143852  0.62392356  0.66116927  1
  O  O251  1  0.75980575  0.62354599  0.91914784  1
  O  O252  1  0.74504387  0.87289261  0.16428788  1
  O  O253  1  0.74287939  0.87922989  0.41001608  1
  O  O254  1  0.76079680  0.87354195  0.66496990  1
  O  O255  1  0.75638133  0.87617902  0.91739899  1
  O  O256  1  0.12251263  0.12602891  0.05062081  1
  O  O257  1  0.13127917  0.12782213  0.29712777  1
  O  O258  1  0.12112312  0.13053273  0.53117005  1
  O  O259  1  0.12373297  0.12526077  0.80064562  1
  O  O260  1  0.12220959  0.37322719  0.05208770  1
  O  O261  1  0.12498271  0.37085630  0.29558588  1
  O  O262  1  0.12234559  0.37303763  0.53205381  1
  O  O263  1  0.12559552  0.37316428  0.80022842  1
  O  O264  1  0.12388972  0.62160982  0.05981955  1
  O  O265  1  0.12386471  0.61446528  0.27474766  1
  O  O266  1  0.11574324  0.62278769  0.54454582  1
  O  O267  1  0.11238717  0.62226618  0.78941404  1
  O  O268  1  0.11867149  0.87880808  0.04755809  1
  O  O269  1  0.12770151  0.88367719  0.27491504  1
  O  O270  1  0.11896742  0.87679264  0.53213371  1
  O  O271  1  0.11985450  0.87771659  0.80273534  1
  O  O272  1  0.37366152  0.12771089  0.03253658  1
  O  O273  1  0.37663926  0.12203577  0.29720743  1
  O  O274  1  0.37870046  0.12598423  0.54610029  1
  O  O275  1  0.37137227  0.12828243  0.80493973  1
  O  O276  1  0.37018034  0.37079871  0.04142849  1
  O  O277  1  0.37696068  0.36755209  0.28105823  1
  O  O278  1  0.37636512  0.37091015  0.53006103  1
  O  O279  1  0.37506983  0.37312241  0.80182017  1
  O  O280  1  0.37199545  0.62669102  0.05305253  1
  O  O281  1  0.37002670  0.62885199  0.28347757  1
  O  O282  1  0.37384835  0.62347421  0.52403023  1
  O  O283  1  0.36583266  0.62580357  0.78496057  1
  O  O284  1  0.37551393  0.87193327  0.04957947  1
  O  O285  1  0.37454988  0.88187313  0.28930076  1
  O  O286  1  0.37415575  0.88322963  0.52883544  1
  O  O287  1  0.36729820  0.87655403  0.78485735  1
  O  O288  1  0.63235939  0.12340791  0.03407241  1
  O  O289  1  0.62271799  0.11992822  0.29472382  1
  O  O290  1  0.62419400  0.12674201  0.54738456  1
  O  O291  1  0.63026870  0.13161640  0.80550673  1
  O  O292  1  0.62620890  0.37901972  0.05037137  1
  O  O293  1  0.62437252  0.37524588  0.28307205  1
  O  O294  1  0.62546560  0.37080787  0.52996907  1
  O  O295  1  0.62642667  0.37152947  0.80238183  1
  O  O296  1  0.63117423  0.62011121  0.04596112  1
  O  O297  1  0.62876972  0.62744103  0.27680768  1
  O  O298  1  0.63498805  0.63005712  0.52863285  1
  O  O299  1  0.63615918  0.62177205  0.78726259  1
  O  O300  1  0.62760040  0.87200815  0.04826682  1
  O  O301  1  0.62193913  0.88110485  0.29690845  1
  O  O302  1  0.63068422  0.87816402  0.53685792  1
  O  O303  1  0.63552371  0.88105881  0.78305457  1
  O  O304  1  0.87588452  0.12410787  0.05267442  1
  O  O305  1  0.87316519  0.11974596  0.28773917  1
  O  O306  1  0.87376005  0.12598776  0.52764075  1
  O  O307  1  0.87495097  0.12484809  0.80078728  1
  O  O308  1  0.88453692  0.37620549  0.04590912  1
  O  O309  1  0.87559670  0.36992194  0.27574356  1
  O  O310  1  0.87574678  0.38030666  0.54525992  1
  O  O311  1  0.87140661  0.36950489  0.79156060  1
  O  O312  1  0.87702126  0.62598865  0.05293261  1
  O  O313  1  0.87472961  0.62454949  0.29176037  1
  O  O314  1  0.87924461  0.62901067  0.54561249  1
  O  O315  1  0.87964130  0.62673343  0.80304889  1
  O  O316  1  0.87413250  0.87205657  0.05629031  1
  O  O317  1  0.86743971  0.88174658  0.27949137  1
  O  O318  1  0.87495769  0.87222449  0.54479110  1
  O  O319  1  0.87858059  0.87497786  0.80146316  1
