# generated using pymatgen
data_VFe(PbO3)2
_symmetry_space_group_name_H-M   'P 1'
_cell_length_a   15.37202288
_cell_length_b   15.37703218
_cell_length_c   18.59169105
_cell_angle_alpha   90.02976831
_cell_angle_beta   90.00116911
_cell_angle_gamma   90.01496751
_symmetry_Int_Tables_number   1
_chemical_formula_structural   VFe(PbO3)2
_chemical_formula_sum   'V32 Fe32 Pb64 O192'
_cell_volume   4394.63050417
_cell_formula_units_Z   32
loop_
 _symmetry_equiv_pos_site_id
 _symmetry_equiv_pos_as_xyz
  1  'x, y, z'
loop_
 _atom_site_type_symbol
 _atom_site_label
 _atom_site_symmetry_multiplicity
 _atom_site_fract_x
 _atom_site_fract_y
 _atom_site_fract_z
 _atom_site_occupancy
  V  V0  1  0.62364875  0.37769742  0.63882717  1
  V  V1  1  0.37312300  0.37441109  0.13565049  1
  V  V2  1  0.87521208  0.62597828  0.63651778  1
  V  V3  1  0.12480104  0.62253769  0.14020216  1
  V  V4  1  0.62574824  0.87280464  0.88831986  1
  V  V5  1  0.37835549  0.62450109  0.63977249  1
  V  V6  1  0.87612098  0.62570704  0.39062482  1
  V  V7  1  0.37243050  0.37467173  0.65240122  1
  V  V8  1  0.87350387  0.87322621  0.39027828  1
  V  V9  1  0.12431283  0.87473410  0.39095830  1
  V  V10  1  0.12370314  0.87245316  0.88494703  1
  V  V11  1  0.62425061  0.37264963  0.14229185  1
  V  V12  1  0.87546270  0.87793648  0.63766594  1
  V  V13  1  0.87661959  0.37495885  0.14306301  1
  V  V14  1  0.87488314  0.12376878  0.14004742  1
  V  V15  1  0.37540213  0.12505713  0.13580522  1
  V  V16  1  0.87596098  0.62564726  0.89197035  1
  V  V17  1  0.37669257  0.37514774  0.39059361  1
  V  V18  1  0.12470489  0.37771097  0.88403277  1
  V  V19  1  0.12479794  0.37389871  0.39271685  1
  V  V20  1  0.37543423  0.12612447  0.64433530  1
  V  V21  1  0.62646121  0.37719716  0.88558522  1
  V  V22  1  0.87368781  0.37583759  0.88759835  1
  V  V23  1  0.12764608  0.62566783  0.64010158  1
  V  V24  1  0.87464345  0.87737991  0.89136691  1
  V  V25  1  0.12689366  0.12304072  0.39290137  1
  V  V26  1  0.87236802  0.62423044  0.14102040  1
  V  V27  1  0.12492787  0.12398108  0.64017181  1
  V  V28  1  0.62425675  0.12385080  0.63992127  1
  V  V29  1  0.62279693  0.12479751  0.38865341  1
  V  V30  1  0.61995505  0.62571252  0.38953106  1
  V  V31  1  0.12315335  0.88697953  0.13598203  1
  Fe  Fe32  1  0.62594847  0.87448506  0.63366734  1
  Fe  Fe33  1  0.62618890  0.62217105  0.13063746  1
  Fe  Fe34  1  0.37192340  0.87549655  0.13243709  1
  Fe  Fe35  1  0.87680709  0.12291899  0.39743139  1
  Fe  Fe36  1  0.12599693  0.37530308  0.63680868  1
  Fe  Fe37  1  0.37475886  0.87441845  0.64258401  1
  Fe  Fe38  1  0.12344350  0.87496428  0.63756174  1
  Fe  Fe39  1  0.12490004  0.37387143  0.13512141  1
  Fe  Fe40  1  0.62592714  0.87628354  0.38762541  1
  Fe  Fe41  1  0.37661859  0.37516090  0.87657525  1
  Fe  Fe42  1  0.37297390  0.12556464  0.38852802  1
  Fe  Fe43  1  0.62964330  0.62576957  0.89222509  1
  Fe  Fe44  1  0.87436934  0.12769656  0.88324150  1
  Fe  Fe45  1  0.12418856  0.62412129  0.38654260  1
  Fe  Fe46  1  0.62483429  0.62496989  0.63418222  1
  Fe  Fe47  1  0.62395429  0.37378572  0.38457229  1
  Fe  Fe48  1  0.37553399  0.12573767  0.87937285  1
  Fe  Fe49  1  0.37384983  0.62374570  0.88749059  1
  Fe  Fe50  1  0.37071774  0.62525276  0.38333206  1
  Fe  Fe51  1  0.62669264  0.87643053  0.13383326  1
  Fe  Fe52  1  0.37453618  0.87632294  0.38324017  1
  Fe  Fe53  1  0.87412220  0.12542324  0.62769248  1
  Fe  Fe54  1  0.12502359  0.13119095  0.13155839  1
  Fe  Fe55  1  0.37439855  0.87471811  0.88121584  1
  Fe  Fe56  1  0.12077743  0.12392554  0.88565098  1
  Fe  Fe57  1  0.87488785  0.37726680  0.63199348  1
  Fe  Fe58  1  0.12072239  0.62706168  0.88473702  1
  Fe  Fe59  1  0.87276863  0.37573157  0.38955006  1
  Fe  Fe60  1  0.37478967  0.62286749  0.13318018  1
  Fe  Fe61  1  0.62559485  0.12661047  0.13352201  1
  Fe  Fe62  1  0.87989729  0.87313850  0.13650086  1
  Fe  Fe63  1  0.63024389  0.12403662  0.88596613  1
  Pb  Pb64  1  0.00056555  0.00738351  -0.00181975  1
  Pb  Pb65  1  -0.00889722  0.01325420  0.25573628  1
  Pb  Pb66  1  0.00518012  -0.00315571  0.50539966  1
  Pb  Pb67  1  -0.00061173  0.01309121  0.75240669  1
  Pb  Pb68  1  0.00747386  0.25115948  0.00054864  1
  Pb  Pb69  1  -0.00617314  0.24949282  0.25337844  1
  Pb  Pb70  1  -0.00768789  0.25359481  0.50371153  1
  Pb  Pb71  1  -0.00482705  0.24827615  0.74294877  1
  Pb  Pb72  1  0.00559229  0.49336230  0.00188471  1
  Pb  Pb73  1  0.00373539  0.50115070  0.25303899  1
  Pb  Pb74  1  -0.00019566  0.49139193  0.50347562  1
  Pb  Pb75  1  0.00356087  0.50147291  0.74725631  1
  Pb  Pb76  1  -0.00457784  0.75622278  0.00298777  1
  Pb  Pb77  1  0.00828751  0.74439911  0.25054370  1
  Pb  Pb78  1  0.00415128  0.75503166  0.50242947  1
  Pb  Pb79  1  0.00268148  0.74596692  0.75053829  1
  Pb  Pb80  1  0.25535907  -0.00085754  -0.00792116  1
  Pb  Pb81  1  0.26494146  0.00256963  0.25481620  1
  Pb  Pb82  1  0.25684373  -0.00958326  0.50519656  1
  Pb  Pb83  1  0.25430128  -0.00196593  0.75108313  1
  Pb  Pb84  1  0.24470063  0.24710771  -0.00904535  1
  Pb  Pb85  1  0.25141112  0.24544397  0.24669496  1
  Pb  Pb86  1  0.24442529  0.25622533  0.50540370  1
  Pb  Pb87  1  0.24709187  0.24150515  0.75399627  1
  Pb  Pb88  1  0.25518503  0.50405172  -0.00487908  1
  Pb  Pb89  1  0.24971685  0.50931221  0.25240135  1
  Pb  Pb90  1  0.24714967  0.49862520  0.50127577  1
  Pb  Pb91  1  0.25365002  0.50759878  0.75566154  1
  Pb  Pb92  1  0.26065930  0.74788955  -0.00156876  1
  Pb  Pb93  1  0.25934792  0.74756649  0.24854224  1
  Pb  Pb94  1  0.25679296  0.75277965  0.49791769  1
  Pb  Pb95  1  0.25669047  0.75149336  0.75209699  1
  Pb  Pb96  1  0.49936716  -0.00377565  -0.00586457  1
  Pb  Pb97  1  0.50067104  -0.00965487  0.24588441  1
  Pb  Pb98  1  0.49549877  -0.00838332  0.49929388  1
  Pb  Pb99  1  0.49674419  -0.00173819  0.75048024  1
  Pb  Pb100  1  0.50091896  0.24403394  -0.00959913  1
  Pb  Pb101  1  0.50250907  0.24932440  0.24895133  1
  Pb  Pb102  1  0.50037179  0.24847139  0.50042343  1
  Pb  Pb103  1  0.50033879  0.24621182  0.75397947  1
  Pb  Pb104  1  0.49834132  0.51043817  -0.00218516  1
  Pb  Pb105  1  0.50063657  0.50326485  0.24527255  1
  Pb  Pb106  1  0.50407154  0.50663340  0.50081217  1
  Pb  Pb107  1  0.49220321  0.50693488  0.75782387  1
  Pb  Pb108  1  0.49510534  0.74898025  -0.00262011  1
  Pb  Pb109  1  0.49764432  0.75163989  0.23848666  1
  Pb  Pb110  1  0.49569249  0.76212900  0.49970388  1
  Pb  Pb111  1  0.50220096  0.75224382  0.74907401  1
  Pb  Pb112  1  0.74285944  -0.00066550  0.00432982  1
  Pb  Pb113  1  0.74329954  -0.00421107  0.24864058  1
  Pb  Pb114  1  0.75003276  0.00349250  0.49984671  1
  Pb  Pb115  1  0.75072141  0.01126749  0.75199125  1
  Pb  Pb116  1  0.74745542  0.24367078  -0.00055308  1
  Pb  Pb117  1  0.75554114  0.25397976  0.25630058  1
  Pb  Pb118  1  0.75561385  0.25290375  0.49829820  1
  Pb  Pb119  1  0.75117386  0.24438333  0.74545685  1
  Pb  Pb120  1  0.74752213  0.50332535  0.00324272  1
  Pb  Pb121  1  0.75046521  0.48907846  0.25472088  1
  Pb  Pb122  1  0.74956882  0.50043737  0.49881351  1
  Pb  Pb123  1  0.74281551  0.50596320  0.74950268  1
  Pb  Pb124  1  0.74773410  0.75983453  0.00812332  1
  Pb  Pb125  1  0.74002297  0.75721549  0.24763772  1
  Pb  Pb126  1  0.73754268  0.74916444  0.50446906  1
  Pb  Pb127  1  0.74262440  0.74601361  0.74954962  1
  O  O128  1  0.12008229  0.00079872  0.14910517  1
  O  O129  1  0.12407899  0.00100500  0.41617473  1
  O  O130  1  0.12409965  0.00549036  0.66331950  1
  O  O131  1  0.11811693  -0.00955365  0.91131014  1
  O  O132  1  0.12436375  0.25133907  0.16879704  1
  O  O133  1  0.12779913  0.25150024  0.41657599  1
  O  O134  1  0.12490402  0.24387637  0.66387618  1
  O  O135  1  0.11722249  0.25946132  0.90874310  1
  O  O136  1  0.12214832  0.50124944  0.16638313  1
  O  O137  1  0.12609400  0.49269762  0.41497508  1
  O  O138  1  0.12409531  0.50815993  0.66333570  1
  O  O139  1  0.11810227  0.49415686  0.91117889  1
  O  O140  1  0.12288327  0.73880298  0.16247983  1
  O  O141  1  0.12247010  0.75673274  0.41031815  1
  O  O142  1  0.12204636  0.74322268  0.66411003  1
  O  O143  1  0.11820670  0.75700498  0.91206389  1
  O  O144  1  0.37038625  0.00679274  0.15822052  1
  O  O145  1  0.37169811  0.00124995  0.41881141  1
  O  O146  1  0.37553284  0.00486759  0.66492377  1
  O  O147  1  0.37466737  -0.00075537  0.91115799  1
  O  O148  1  0.37627651  0.25047182  0.16268048  1
  O  O149  1  0.37350198  0.25655224  0.41839877  1
  O  O150  1  0.37640773  0.24903345  0.67093487  1
  O  O151  1  0.37658106  0.25318554  0.90815347  1
  O  O152  1  0.37614852  0.49073274  0.15905663  1
  O  O153  1  0.37393628  0.49223075  0.41593795  1
  O  O154  1  0.37401896  0.50645353  0.66745187  1
  O  O155  1  0.37420397  0.49485162  0.91368440  1
  O  O156  1  0.36851161  0.74939767  0.15918919  1
  O  O157  1  0.37112070  0.75052136  0.41235955  1
  O  O158  1  0.37317079  0.74088868  0.66376217  1
  O  O159  1  0.37467778  0.75157006  0.91279153  1
  O  O160  1  0.62773657  0.00385074  0.16443220  1
  O  O161  1  0.62460722  0.00676598  0.41415230  1
  O  O162  1  0.62557208  0.00538786  0.66084247  1
  O  O163  1  0.63305036  -0.00876964  0.91097710  1
  O  O164  1  0.62525097  0.25087437  0.16830850  1
  O  O165  1  0.62333784  0.24440408  0.41565914  1
  O  O166  1  0.62536465  0.24949775  0.66315027  1
  O  O167  1  0.63279424  0.25922275  0.91104397  1
  O  O168  1  0.62616931  0.49449809  0.16518366  1
  O  O169  1  0.62674771  0.50670532  0.41434922  1
  O  O170  1  0.62511703  0.49599609  0.66146211  1
  O  O171  1  0.63221004  0.49263650  0.91441296  1
  O  O172  1  0.62766653  0.74788405  0.16070907  1
  O  O173  1  0.62885651  0.74300050  0.41189652  1
  O  O174  1  0.62740961  0.74904412  0.66558003  1
  O  O175  1  0.63073111  0.75670021  0.91377744  1
  O  O176  1  0.88075417  0.00509687  0.16173372  1
  O  O177  1  0.87793928  -0.00972731  0.41709231  1
  O  O178  1  0.87529076  -0.00488324  0.65466407  1
  O  O179  1  0.87534804  -0.00748601  0.91089431  1
  O  O180  1  0.87569153  0.24803884  0.16743366  1
  O  O181  1  0.87687212  0.25018782  0.41661392  1
  O  O182  1  0.87379612  0.25001280  0.65550331  1
  O  O183  1  0.87442661  0.25955651  0.90838398  1
  O  O184  1  0.87540179  0.50247816  0.16740512  1
  O  O185  1  0.87692967  0.50798063  0.41280543  1
  O  O186  1  0.87531314  0.50834876  0.66142665  1
  O  O187  1  0.87508893  0.50004772  0.91595442  1
  O  O188  1  0.88097300  0.74066841  0.16510488  1
  O  O189  1  0.87842673  0.75321488  0.41598187  1
  O  O190  1  0.87652065  0.74453956  0.66399404  1
  O  O191  1  0.87680770  0.74644129  0.91410525  1
  O  O192  1  -0.00495931  0.12839760  0.16744122  1
  O  O193  1  0.01173903  0.12557013  0.41968101  1
  O  O194  1  0.00319070  0.12398487  0.65778298  1
  O  O195  1  -0.00408825  0.12496734  0.91639727  1
  O  O196  1  -0.00428496  0.37528508  0.16685479  1
  O  O197  1  0.00638166  0.37451571  0.41231454  1
  O  O198  1  0.00038880  0.37783606  0.66333870  1
  O  O199  1  -0.00590007  0.37879771  0.91124555  1
  O  O200  1  -0.00076944  0.61943962  0.16796325  1
  O  O201  1  -0.00485450  0.62760276  0.41550414  1
  O  O202  1  -0.00137521  0.62548741  0.66119969  1
  O  O203  1  -0.00692443  0.62345002  0.91800829  1
  O  O204  1  0.00967198  0.86950307  0.16705458  1
  O  O205  1  0.00085896  0.87578114  0.41693033  1
  O  O206  1  -0.00813738  0.87131847  0.66616747  1
  O  O207  1  -0.00405601  0.87202457  0.91440807  1
  O  O208  1  0.25527041  0.12946034  0.16012420  1
  O  O209  1  0.24204626  0.12664049  0.42041749  1
  O  O210  1  0.24704535  0.12632565  0.66525725  1
  O  O211  1  0.24715159  0.12682663  0.90903479  1
  O  O212  1  0.25749850  0.37179012  0.15969972  1
  O  O213  1  0.25129086  0.37397681  0.41737924  1
  O  O214  1  0.25044533  0.37531099  0.66977977  1
  O  O215  1  0.24134671  0.37455141  0.89947007  1
  O  O216  1  0.24362773  0.61804748  0.15920132  1
  O  O217  1  0.24739227  0.62217139  0.41836273  1
  O  O218  1  0.24827889  0.62466655  0.66085885  1
  O  O219  1  0.24431989  0.62380366  0.91417007  1
  O  O220  1  0.23569119  0.87381922  0.16338820  1
  O  O221  1  0.24184464  0.87787321  0.41318404  1
  O  O222  1  0.24736448  0.87359999  0.66676066  1
  O  O223  1  0.24048313  0.87480660  0.90395576  1
  O  O224  1  0.49272610  0.12637187  0.15951516  1
  O  O225  1  0.50334435  0.12668765  0.41571342  1
  O  O226  1  0.50455504  0.12728697  0.66568980  1
  O  O227  1  0.50378615  0.12489065  0.90957496  1
  O  O228  1  0.49584190  0.37146758  0.16499605  1
  O  O229  1  0.49531314  0.37523260  0.41491928  1
  O  O230  1  0.50867269  0.37388059  0.66913466  1
  O  O231  1  0.51050004  0.37509871  0.90413978  1
  O  O232  1  0.50043900  0.62173322  0.16047421  1
  O  O233  1  0.50284814  0.62268194  0.40842568  1
  O  O234  1  0.49505488  0.62377560  0.66049360  1
  O  O235  1  0.50304074  0.62369771  0.91238273  1
  O  O236  1  0.49797814  0.87724531  0.15875757  1
  O  O237  1  0.50079970  0.87496439  0.41234613  1
  O  O238  1  0.50200068  0.87383816  0.66706001  1
  O  O239  1  0.50788805  0.87528258  0.90595455  1
  O  O240  1  0.75914401  0.12692053  0.16286792  1
  O  O241  1  0.74291602  0.12404599  0.41407514  1
  O  O242  1  0.74553130  0.12473476  0.65905912  1
  O  O243  1  0.75388225  0.12566951  0.91794320  1
  O  O244  1  0.75181782  0.37323708  0.16858161  1
  O  O245  1  0.74677613  0.37718820  0.41667444  1
  O  O246  1  0.74253967  0.37559201  0.66011713  1
  O  O247  1  0.75473467  0.37818580  0.91502239  1
  O  O248  1  0.75713419  0.62219980  0.16175146  1
  O  O249  1  0.75571255  0.62716570  0.41407669  1
  O  O250  1  0.75629212  0.62531660  0.65987128  1
  O  O251  1  0.76034147  0.62367716  0.91937928  1
  O  O252  1  0.75633565  0.87490618  0.16576168  1
  O  O253  1  0.75704323  0.87345281  0.41244629  1
  O  O254  1  0.75928104  0.87161952  0.66183415  1
  O  O255  1  0.75554999  0.87058056  0.91430847  1
  O  O256  1  0.12026978  0.13632971  0.03173023  1
  O  O257  1  0.12629761  0.12307380  0.30204425  1
  O  O258  1  0.12883984  0.12483647  0.54956737  1
  O  O259  1  0.11524949  0.12441453  0.78553999  1
  O  O260  1  0.11884998  0.37481236  0.03577257  1
  O  O261  1  0.12914256  0.37282359  0.30237882  1
  O  O262  1  0.12913690  0.37582222  0.53692903  1
  O  O263  1  0.11662122  0.37854612  0.79338287  1
  O  O264  1  0.11860338  0.62010912  0.04949509  1
  O  O265  1  0.12386332  0.61816740  0.28723444  1
  O  O266  1  0.12612984  0.62547249  0.54928880  1
  O  O267  1  0.11738865  0.62468961  0.78562622  1
  O  O268  1  0.12199032  0.87225970  0.04554364  1
  O  O269  1  0.12131809  0.88093849  0.30111905  1
  O  O270  1  0.11775515  0.87619913  0.53799212  1
  O  O271  1  0.11719887  0.87184058  0.79411016  1
  O  O272  1  0.37494237  0.12804040  0.04502371  1
  O  O273  1  0.36666403  0.12156315  0.28957637  1
  O  O274  1  0.37639682  0.13000971  0.55336568  1
  O  O275  1  0.37504637  0.12401175  0.77914677  1
  O  O276  1  0.37621588  0.37169083  0.04544861  1
  O  O277  1  0.37456500  0.37406378  0.30028621  1
  O  O278  1  0.37922773  0.37735226  0.56133853  1
  O  O279  1  0.38304231  0.38417443  0.77609088  1
  O  O280  1  0.37200049  0.62203292  0.03222701  1
  O  O281  1  0.36456514  0.62099599  0.28348018  1
  O  O282  1  0.37634442  0.62228595  0.54886481  1
  O  O283  1  0.37202274  0.61821174  0.78641399  1
  O  O284  1  0.36897097  0.87734547  0.03243159  1
  O  O285  1  0.36699284  0.88321386  0.28288862  1
  O  O286  1  0.37463821  0.87330058  0.54084185  1
  O  O287  1  0.37403539  0.87316098  0.78047451  1
  O  O288  1  0.63122112  0.12798891  0.03380442  1
  O  O289  1  0.62159341  0.12594106  0.29798893  1
  O  O290  1  0.62128609  0.12658986  0.54941477  1
  O  O291  1  0.63766711  0.12481923  0.78559712  1
  O  O292  1  0.62495251  0.37176504  0.05164613  1
  O  O293  1  0.62627443  0.37317179  0.28568278  1
  O  O294  1  0.61867334  0.37667940  0.54784113  1
  O  O295  1  0.63298058  0.37924658  0.79490138  1
  O  O296  1  0.62922727  0.61714114  0.03058640  1
  O  O297  1  0.62541632  0.62356824  0.29914443  1
  O  O298  1  0.62511784  0.62448928  0.53466679  1
  O  O299  1  0.63839790  0.62397997  0.79160949  1
  O  O300  1  0.63403937  0.87774423  0.03355363  1
  O  O301  1  0.63145522  0.87784355  0.28770590  1
  O  O302  1  0.62572174  0.86924553  0.53350055  1
  O  O303  1  0.63150697  0.87135684  0.79727814  1
  O  O304  1  0.87741179  0.12665710  0.04924371  1
  O  O305  1  0.88613718  0.11923562  0.29698101  1
  O  O306  1  0.87219549  0.12171054  0.52704062  1
  O  O307  1  0.87221697  0.11968585  0.78284970  1
  O  O308  1  0.87410620  0.37432514  0.05235403  1
  O  O309  1  0.86660007  0.37291400  0.28891044  1
  O  O310  1  0.88036252  0.38125952  0.53142513  1
  O  O311  1  0.87172095  0.37987245  0.79706903  1
  O  O312  1  0.87669775  0.62333504  0.05044933  1
  O  O313  1  0.87551593  0.62788940  0.30039014  1
  O  O314  1  0.87694185  0.62733983  0.54588210  1
  O  O315  1  0.87485406  0.62379071  0.80120276  1
  O  O316  1  0.87804835  0.86671025  0.03725887  1
  O  O317  1  0.87831696  0.87333490  0.29977875  1
  O  O318  1  0.87849720  0.87085119  0.54671687  1
  O  O319  1  0.87413897  0.87406205  0.80103482  1
