# generated using pymatgen
data_VFe(PbO3)2
_symmetry_space_group_name_H-M   'P 1'
_cell_length_a   15.39524270
_cell_length_b   15.38639097
_cell_length_c   18.54779037
_cell_angle_alpha   90.02724324
_cell_angle_beta   89.99649256
_cell_angle_gamma   90.00565581
_symmetry_Int_Tables_number   1
_chemical_formula_structural   VFe(PbO3)2
_chemical_formula_sum   'V32 Fe32 Pb64 O192'
_cell_volume   4393.54855560
_cell_formula_units_Z   32
loop_
 _symmetry_equiv_pos_site_id
 _symmetry_equiv_pos_as_xyz
  1  'x, y, z'
loop_
 _atom_site_type_symbol
 _atom_site_label
 _atom_site_symmetry_multiplicity
 _atom_site_fract_x
 _atom_site_fract_y
 _atom_site_fract_z
 _atom_site_occupancy
  V  V0  1  0.12336938  0.12858751  0.63778932  1
  V  V1  1  0.12898504  0.62053900  0.14531015  1
  V  V2  1  0.12899297  0.12762621  0.38888918  1
  V  V3  1  0.12700767  0.37584818  0.38643423  1
  V  V4  1  0.12351715  0.87451067  0.88993527  1
  V  V5  1  0.87637876  0.37518991  0.63909979  1
  V  V6  1  0.62386831  0.12314267  0.89009536  1
  V  V7  1  0.87357138  0.37413103  0.89791861  1
  V  V8  1  0.38034495  0.12886127  0.39440524  1
  V  V9  1  0.37529496  0.87594112  0.14158832  1
  V  V10  1  0.12055987  0.62937073  0.89428991  1
  V  V11  1  0.62515042  0.62270841  0.38709461  1
  V  V12  1  0.12705407  0.87512514  0.14875414  1
  V  V13  1  0.37447403  0.12342348  0.14031558  1
  V  V14  1  0.87366251  0.12549939  0.63970811  1
  V  V15  1  0.87238959  0.37237186  0.38513363  1
  V  V16  1  0.63025313  0.12607392  0.39107525  1
  V  V17  1  0.62502202  0.87882903  0.14028539  1
  V  V18  1  0.37357239  0.62363679  0.38738887  1
  V  V19  1  0.62664148  0.87586543  0.63628423  1
  V  V20  1  0.37608650  0.87531304  0.88620272  1
  V  V21  1  0.12187636  0.12452888  0.88871290  1
  V  V22  1  0.87779937  0.12849645  0.38372845  1
  V  V23  1  0.62461529  0.37192276  0.13472210  1
  V  V24  1  0.12106371  0.62804419  0.63334172  1
  V  V25  1  0.87588661  0.12348809  0.88994208  1
  V  V26  1  0.12362152  0.37906141  0.89613864  1
  V  V27  1  0.12387957  0.37720662  0.63866546  1
  V  V28  1  0.87871227  0.62390962  0.89667650  1
  V  V29  1  0.87709084  0.87354245  0.89239535  1
  V  V30  1  0.86122965  0.12377602  0.13965836  1
  V  V31  1  0.12726983  0.12202680  0.14262427  1
  Fe  Fe32  1  0.12672540  0.37066378  0.13343440  1
  Fe  Fe33  1  0.87227761  0.87740353  0.37794344  1
  Fe  Fe34  1  0.62794106  0.37726710  0.88469454  1
  Fe  Fe35  1  0.37484780  0.37414522  0.13042150  1
  Fe  Fe36  1  0.62876123  0.87414912  0.88405914  1
  Fe  Fe37  1  0.62244212  0.62862681  0.13347301  1
  Fe  Fe38  1  0.12677599  0.87585425  0.38862558  1
  Fe  Fe39  1  0.37521407  0.12581477  0.63471944  1
  Fe  Fe40  1  0.87337451  0.62580344  0.14384002  1
  Fe  Fe41  1  0.62443707  0.37546740  0.39227703  1
  Fe  Fe42  1  0.62720659  0.12571417  0.63249752  1
  Fe  Fe43  1  0.12600678  0.62293536  0.37845559  1
  Fe  Fe44  1  0.61567006  0.12341706  0.13448696  1
  Fe  Fe45  1  0.37108802  0.62783527  0.88608748  1
  Fe  Fe46  1  0.37321622  0.37612508  0.63242118  1
  Fe  Fe47  1  0.87605154  0.62395250  0.63169789  1
  Fe  Fe48  1  0.62642347  0.62833066  0.88517394  1
  Fe  Fe49  1  0.37015711  0.12179472  0.88163522  1
  Fe  Fe50  1  0.87450466  0.62200904  0.37783531  1
  Fe  Fe51  1  0.37629864  0.37502393  0.39233722  1
  Fe  Fe52  1  0.62347300  0.87402898  0.38634286  1
  Fe  Fe53  1  0.62899299  0.62427886  0.63594791  1
  Fe  Fe54  1  0.87522412  0.87531368  0.63122059  1
  Fe  Fe55  1  0.37606760  0.62896692  0.13433726  1
  Fe  Fe56  1  0.37922621  0.87477281  0.39515527  1
  Fe  Fe57  1  0.12235582  0.87702544  0.62599240  1
  Fe  Fe58  1  0.37188933  0.87435542  0.62830042  1
  Fe  Fe59  1  0.37568174  0.37356936  0.88948215  1
  Fe  Fe60  1  0.87661159  0.37128440  0.13319204  1
  Fe  Fe61  1  0.62710754  0.37271172  0.63270616  1
  Fe  Fe62  1  0.87718876  0.87833594  0.14957768  1
  Fe  Fe63  1  0.37513788  0.62405379  0.63811936  1
  Pb  Pb64  1  -0.00776227  -0.00584058  0.00615352  1
  Pb  Pb65  1  0.00495304  -0.00564887  0.25885061  1
  Pb  Pb66  1  -0.00187906  -0.01106417  0.49637717  1
  Pb  Pb67  1  0.00064457  -0.00071884  0.74568602  1
  Pb  Pb68  1  0.00196539  0.25387407  0.00457063  1
  Pb  Pb69  1  0.00251757  0.25188105  0.24682220  1
  Pb  Pb70  1  0.00113376  0.25058307  0.49659019  1
  Pb  Pb71  1  0.00034601  0.24968913  0.75243785  1
  Pb  Pb72  1  -0.00099650  0.49310261  0.01076807  1
  Pb  Pb73  1  -0.00198013  0.50349694  0.24697960  1
  Pb  Pb74  1  -0.00399106  0.50769062  0.49258961  1
  Pb  Pb75  1  0.00094415  0.50032666  0.75069911  1
  Pb  Pb76  1  -0.01450366  0.75102270  0.01591597  1
  Pb  Pb77  1  -0.00006917  0.74341561  0.25717867  1
  Pb  Pb78  1  -0.00394066  0.75259704  0.48518290  1
  Pb  Pb79  1  -0.00436922  0.75537649  0.74121082  1
  Pb  Pb80  1  0.24536100  -0.00063162  -0.00246364  1
  Pb  Pb81  1  0.25431459  -0.00922527  0.26112841  1
  Pb  Pb82  1  0.25510395  -0.00255241  0.50261721  1
  Pb  Pb83  1  0.25322862  -0.00070730  0.74253381  1
  Pb  Pb84  1  0.25050410  0.25466739  -0.00017873  1
  Pb  Pb85  1  0.26006764  0.25504322  0.25022754  1
  Pb  Pb86  1  0.25877560  0.25067067  0.50563828  1
  Pb  Pb87  1  0.26455872  0.25167211  0.75360332  1
  Pb  Pb88  1  0.26157487  0.49960634  0.00329197  1
  Pb  Pb89  1  0.25939141  0.49347481  0.24643952  1
  Pb  Pb90  1  0.26559417  0.50572296  0.50620108  1
  Pb  Pb91  1  0.26732694  0.49979567  0.75827191  1
  Pb  Pb92  1  0.25211413  0.74598189  0.00417826  1
  Pb  Pb93  1  0.24527780  0.75308606  0.25794024  1
  Pb  Pb94  1  0.24758766  0.75659350  0.49488615  1
  Pb  Pb95  1  0.25553619  0.74906720  0.74416016  1
  Pb  Pb96  1  0.50594824  0.00311586  -0.00099904  1
  Pb  Pb97  1  0.49770960  -0.00753382  0.25785200  1
  Pb  Pb98  1  0.49527733  0.00105704  0.50291073  1
  Pb  Pb99  1  0.49563905  0.00343965  0.74175842  1
  Pb  Pb100  1  0.49307834  0.25408046  -0.00617118  1
  Pb  Pb101  1  0.49963544  0.26538189  0.25517525  1
  Pb  Pb102  1  0.50754933  0.25422302  0.50639040  1
  Pb  Pb103  1  0.49882133  0.25609243  0.74208048  1
  Pb  Pb104  1  0.50049610  0.50474753  -0.01048772  1
  Pb  Pb105  1  0.49798401  0.49936709  0.24296474  1
  Pb  Pb106  1  0.49997261  0.49940805  0.50238962  1
  Pb  Pb107  1  0.50390931  0.49588772  0.74249588  1
  Pb  Pb108  1  0.50512815  0.74005565  -0.00399830  1
  Pb  Pb109  1  0.49855296  0.75794063  0.25103927  1
  Pb  Pb110  1  0.50165917  0.74165004  0.50038188  1
  Pb  Pb111  1  0.50190659  0.74319908  0.74465662  1
  Pb  Pb112  1  0.74859121  0.00007606  0.00254608  1
  Pb  Pb113  1  0.74392611  -0.01034542  0.25664828  1
  Pb  Pb114  1  0.75469694  -0.00677482  0.49758967  1
  Pb  Pb115  1  0.74186538  -0.00969785  0.75143517  1
  Pb  Pb116  1  0.75064475  0.25029230  0.00070726  1
  Pb  Pb117  1  0.73544195  0.25880850  0.25370469  1
  Pb  Pb118  1  0.74150603  0.25027304  0.50437648  1
  Pb  Pb119  1  0.74230433  0.25542116  0.75174827  1
  Pb  Pb120  1  0.74638345  0.50956601  0.00368804  1
  Pb  Pb121  1  0.75166252  0.50112376  0.24366935  1
  Pb  Pb122  1  0.74475160  0.51473298  0.50554292  1
  Pb  Pb123  1  0.73741163  0.50529825  0.75166160  1
  Pb  Pb124  1  0.75099920  0.74610579  0.00610336  1
  Pb  Pb125  1  0.75516935  0.74841269  0.24862584  1
  Pb  Pb126  1  0.75856902  0.74805012  0.49236003  1
  Pb  Pb127  1  0.74658785  0.74639801  0.74703005  1
  O  O128  1  0.13390080  0.00192848  0.17216120  1
  O  O129  1  0.12496735  0.01265628  0.40997098  1
  O  O130  1  0.11865785  0.01011980  0.65904409  1
  O  O131  1  0.12142882  -0.00188935  0.91652867  1
  O  O132  1  0.13358745  0.23990233  0.16318144  1
  O  O133  1  0.12419757  0.25017503  0.41742991  1
  O  O134  1  0.11751554  0.25007602  0.66538512  1
  O  O135  1  0.11997030  0.25170470  0.91387124  1
  O  O136  1  0.12663053  0.50329322  0.15848044  1
  O  O137  1  0.12067235  0.49087583  0.40489153  1
  O  O138  1  0.11549876  0.49284491  0.66005250  1
  O  O139  1  0.11988622  0.49926134  0.91820912  1
  O  O140  1  0.12743244  0.75764907  0.16747505  1
  O  O141  1  0.12598638  0.74734807  0.40915629  1
  O  O142  1  0.11783758  0.74382500  0.65026870  1
  O  O143  1  0.12067078  0.74663538  0.91685227  1
  O  O144  1  0.37434208  -0.00084569  0.16913575  1
  O  O145  1  0.37402879  0.01061806  0.41515765  1
  O  O146  1  0.37205309  -0.00146177  0.66219940  1
  O  O147  1  0.36772684  -0.00696833  0.91233729  1
  O  O148  1  0.37323828  0.24205030  0.15996524  1
  O  O149  1  0.37042482  0.24554629  0.41776039  1
  O  O150  1  0.36898203  0.25163021  0.66177379  1
  O  O151  1  0.37161642  0.24467839  0.91319318  1
  O  O152  1  0.37425634  0.50083874  0.16061931  1
  O  O153  1  0.37631322  0.50541548  0.41391837  1
  O  O154  1  0.36942315  0.49897342  0.66668302  1
  O  O155  1  0.36904648  0.50143707  0.91196912  1
  O  O156  1  0.37422757  0.75667820  0.16686559  1
  O  O157  1  0.37843344  0.74037824  0.41232318  1
  O  O158  1  0.37116879  0.75084389  0.66221740  1
  O  O159  1  0.36676544  0.75947870  0.91364873  1
  O  O160  1  0.62009349  -0.00281165  0.16685220  1
  O  O161  1  0.62201283  0.01073678  0.41262224  1
  O  O162  1  0.62955211  -0.00310040  0.66176856  1
  O  O163  1  0.62785128  0.00086037  0.91706956  1
  O  O164  1  0.62201877  0.25183742  0.16386289  1
  O  O165  1  0.62459797  0.24381425  0.41662989  1
  O  O166  1  0.63017243  0.24887789  0.66689867  1
  O  O167  1  0.62955732  0.23941283  0.91057805  1
  O  O168  1  0.62520891  0.48937335  0.15590732  1
  O  O169  1  0.62453218  0.50503535  0.41223741  1
  O  O170  1  0.63076043  0.49666412  0.66146617  1
  O  O171  1  0.62980265  0.50279896  0.91386812  1
  O  O172  1  0.62429578  0.76127587  0.16120458  1
  O  O173  1  0.62505251  0.74159007  0.41091483  1
  O  O174  1  0.62895642  0.75764148  0.65999848  1
  O  O175  1  0.62792556  0.75320027  0.91639299  1
  O  O176  1  0.87941628  0.01380098  0.16985659  1
  O  O177  1  0.87409591  0.01021819  0.40749768  1
  O  O178  1  0.87972517  0.00917263  0.66208677  1
  O  O179  1  0.87912200  -0.00066853  0.91862907  1
  O  O180  1  0.88052370  0.23718654  0.16367215  1
  O  O181  1  0.87717576  0.25054898  0.41582317  1
  O  O182  1  0.88067328  0.24925858  0.66769426  1
  O  O183  1  0.87539338  0.24675144  0.91752578  1
  O  O184  1  0.87636363  0.49608615  0.16151056  1
  O  O185  1  0.87813948  0.48834349  0.40394334  1
  O  O186  1  0.88138412  0.49013885  0.66211779  1
  O  O187  1  0.87834348  0.50418552  0.91987567  1
  O  O188  1  0.87629227  0.75268463  0.16889636  1
  O  O189  1  0.87189604  0.74962393  0.40016211  1
  O  O190  1  0.87951089  0.74971670  0.65979620  1
  O  O191  1  0.88211941  0.74682288  0.91902935  1
  O  O192  1  0.01443548  0.12092659  0.16445529  1
  O  O193  1  0.00311164  0.13165269  0.40845343  1
  O  O194  1  -0.00088335  0.12886646  0.66925393  1
  O  O195  1  -0.00064734  0.12440496  0.91835010  1
  O  O196  1  0.00263977  0.36847220  0.16442871  1
  O  O197  1  0.00030728  0.36856456  0.41157262  1
  O  O198  1  -0.00061423  0.37021839  0.67095749  1
  O  O199  1  0.00045519  0.37509614  0.92179542  1
  O  O200  1  0.00929107  0.62966618  0.16496835  1
  O  O201  1  -0.00045553  0.62053150  0.40702894  1
  O  O202  1  0.00518404  0.61931825  0.66530003  1
  O  O203  1  0.00239399  0.62311839  0.92560842  1
  O  O204  1  0.01014447  0.88360273  0.16941557  1
  O  O205  1  -0.00226837  0.88050967  0.40479363  1
  O  O206  1  0.00079783  0.87872150  0.66443893  1
  O  O207  1  0.00061290  0.87409348  0.92199657  1
  O  O208  1  0.25639845  0.12033168  0.17008896  1
  O  O209  1  0.24618527  0.12933799  0.41437949  1
  O  O210  1  0.23797597  0.12757566  0.65873562  1
  O  O211  1  0.24138926  0.12256621  0.91491222  1
  O  O212  1  0.25084323  0.37293442  0.16387374  1
  O  O213  1  0.24089200  0.37170052  0.40978285  1
  O  O214  1  0.23696700  0.37270200  0.65992847  1
  O  O215  1  0.24014436  0.37367906  0.91391266  1
  O  O216  1  0.24591555  0.63080836  0.16727125  1
  O  O217  1  0.25603988  0.62240888  0.40632512  1
  O  O218  1  0.23323918  0.62033816  0.66170834  1
  O  O219  1  0.23711174  0.62585746  0.91676250  1
  O  O220  1  0.25003270  0.87760410  0.17061965  1
  O  O221  1  0.25237447  0.87710958  0.41363117  1
  O  O222  1  0.24390774  0.87664546  0.65736913  1
  O  O223  1  0.24451029  0.87462886  0.91703185  1
  O  O224  1  0.48988849  0.12161349  0.16488519  1
  O  O225  1  0.49771992  0.12917630  0.41299516  1
  O  O226  1  0.50192911  0.12443898  0.66151864  1
  O  O227  1  0.50504335  0.11863909  0.90599731  1
  O  O228  1  0.50356025  0.37125127  0.15896393  1
  O  O229  1  0.50018341  0.37326129  0.41755705  1
  O  O230  1  0.49963828  0.37411129  0.65574076  1
  O  O231  1  0.50318209  0.37250131  0.91225837  1
  O  O232  1  0.50080022  0.62687178  0.16514995  1
  O  O233  1  0.50103365  0.62275322  0.41318866  1
  O  O234  1  0.50219582  0.62552362  0.66227572  1
  O  O235  1  0.49747956  0.62988196  0.90780854  1
  O  O236  1  0.50033138  0.87793753  0.16657760  1
  O  O237  1  0.50374009  0.87608819  0.42204864  1
  O  O238  1  0.50725841  0.87621411  0.65580735  1
  O  O239  1  0.49131423  0.87630450  0.90452994  1
  O  O240  1  0.74809462  0.12446612  0.15434992  1
  O  O241  1  0.74874979  0.12908160  0.40811918  1
  O  O242  1  0.75963588  0.12792639  0.66140783  1
  O  O243  1  0.75201366  0.11976643  0.91773638  1
  O  O244  1  0.74537582  0.36753581  0.15957099  1
  O  O245  1  0.75849529  0.36879057  0.40801694  1
  O  O246  1  0.76210131  0.36936193  0.65998706  1
  O  O247  1  0.75313591  0.37342342  0.92047235  1
  O  O248  1  0.74402668  0.62473227  0.16712883  1
  O  O249  1  0.74599870  0.62055466  0.40705670  1
  O  O250  1  0.75520644  0.62381754  0.66520653  1
  O  O251  1  0.76143061  0.62804071  0.91485626  1
  O  O252  1  0.74349538  0.88324807  0.16052903  1
  O  O253  1  0.74808842  0.88033654  0.41198420  1
  O  O254  1  0.74881392  0.87792579  0.66195993  1
  O  O255  1  0.75866645  0.87499806  0.91566621  1
  O  O256  1  0.13018095  0.11768846  0.05148887  1
  O  O257  1  0.13142295  0.13130378  0.29813853  1
  O  O258  1  0.11782560  0.13099324  0.54710165  1
  O  O259  1  0.12113306  0.12307971  0.79793618  1
  O  O260  1  0.12163570  0.37033740  0.03378348  1
  O  O261  1  0.12441424  0.36874280  0.29524006  1
  O  O262  1  0.11839262  0.37377219  0.54797397  1
  O  O263  1  0.11828425  0.38071438  0.80540873  1
  O  O264  1  0.12968174  0.63073936  0.05446614  1
  O  O265  1  0.12451560  0.62781433  0.27881847  1
  O  O266  1  0.11893227  0.61944765  0.54239388  1
  O  O267  1  0.11600348  0.62654418  0.80404949  1
  O  O268  1  0.12860157  0.87816604  0.05787021  1
  O  O269  1  0.13247123  0.88072543  0.28697057  1
  O  O270  1  0.11870156  0.87983010  0.52569770  1
  O  O271  1  0.12311087  0.87365302  0.79927884  1
  O  O272  1  0.37163549  0.11841876  0.04933969  1
  O  O273  1  0.37615167  0.13025604  0.30335658  1
  O  O274  1  0.36878541  0.12422759  0.53439842  1
  O  O275  1  0.36536521  0.12257452  0.78219842  1
  O  O276  1  0.37006852  0.36941286  0.02994529  1
  O  O277  1  0.37579242  0.37159969  0.29083602  1
  O  O278  1  0.36401241  0.38139928  0.53092166  1
  O  O279  1  0.36501629  0.37360138  0.78834502  1
  O  O280  1  0.36703731  0.63202576  0.03404094  1
  O  O281  1  0.37848347  0.62208361  0.29643415  1
  O  O282  1  0.37112946  0.61644096  0.53773899  1
  O  O283  1  0.36028414  0.63082013  0.78553335  1
  O  O284  1  0.37394120  0.87755162  0.05091717  1
  O  O285  1  0.38468408  0.87897856  0.29337895  1
  O  O286  1  0.37166003  0.88036917  0.52773038  1
  O  O287  1  0.36707551  0.87404297  0.79523703  1
  O  O288  1  0.61783404  0.11605552  0.03563251  1
  O  O289  1  0.62455638  0.12981994  0.29963520  1
  O  O290  1  0.62929433  0.13346510  0.53328927  1
  O  O291  1  0.63316731  0.11828015  0.79952749  1
  O  O292  1  0.62582676  0.36676170  0.04399940  1
  O  O293  1  0.62526092  0.36500738  0.29094564  1
  O  O294  1  0.63100729  0.36455943  0.53108214  1
  O  O295  1  0.63447189  0.37351962  0.78488675  1
  O  O296  1  0.62814467  0.63135209  0.03290515  1
  O  O297  1  0.62184188  0.62180302  0.29637207  1
  O  O298  1  0.63392207  0.62239590  0.53528080  1
  O  O299  1  0.63561194  0.62894713  0.78425953  1
  O  O300  1  0.61981415  0.88234640  0.04893115  1
  O  O301  1  0.62201724  0.88174410  0.28622969  1
  O  O302  1  0.63207074  0.87755042  0.54542951  1
  O  O303  1  0.63339396  0.87833291  0.78508337  1
  O  O304  1  0.87435749  0.12017826  0.04821601  1
  O  O305  1  0.87478854  0.13268593  0.29315448  1
  O  O306  1  0.87877634  0.12771868  0.54900436  1
  O  O307  1  0.87420790  0.12252747  0.79956376  1
  O  O308  1  0.88051295  0.36851932  0.03349300  1
  O  O309  1  0.87526733  0.36518365  0.29388423  1
  O  O310  1  0.88150484  0.37178779  0.54849936  1
  O  O311  1  0.87683993  0.37627895  0.80706797  1
  O  O312  1  0.87272618  0.63405430  0.04220835  1
  O  O313  1  0.87720592  0.61917511  0.27674005  1
  O  O314  1  0.87181063  0.61594614  0.53149010  1
  O  O315  1  0.88561722  0.62323978  0.80631457  1
  O  O316  1  0.88514099  0.87796492  0.04807690  1
  O  O317  1  0.86965480  0.88592779  0.27578466  1
  O  O318  1  0.87499086  0.88403846  0.53152232  1
  O  O319  1  0.88069301  0.87260595  0.80144608  1
