# generated using pymatgen
data_VFe(PbO3)2
_symmetry_space_group_name_H-M   'P 1'
_cell_length_a   15.38621809
_cell_length_b   15.37627322
_cell_length_c   18.51211935
_cell_angle_alpha   89.98425109
_cell_angle_beta   90.05711930
_cell_angle_gamma   90.00481639
_symmetry_Int_Tables_number   1
_chemical_formula_structural   VFe(PbO3)2
_chemical_formula_sum   'V32 Fe32 Pb64 O192'
_cell_volume   4379.64469424
_cell_formula_units_Z   32
loop_
 _symmetry_equiv_pos_site_id
 _symmetry_equiv_pos_as_xyz
  1  'x, y, z'
loop_
 _atom_site_type_symbol
 _atom_site_label
 _atom_site_symmetry_multiplicity
 _atom_site_fract_x
 _atom_site_fract_y
 _atom_site_fract_z
 _atom_site_occupancy
  V  V0  1  0.62721840  0.37512772  0.38977560  1
  V  V1  1  0.87700497  0.37520010  0.63581318  1
  V  V2  1  0.87201249  0.87758281  0.38941513  1
  V  V3  1  0.12963992  0.62704025  0.13956162  1
  V  V4  1  0.87366829  0.62634048  0.39129727  1
  V  V5  1  0.62768290  0.87707804  0.63902281  1
  V  V6  1  0.62733615  0.12694676  0.89098736  1
  V  V7  1  0.37562352  0.12163898  0.13714950  1
  V  V8  1  0.13162440  0.37643495  0.63451520  1
  V  V9  1  0.62590893  0.62518817  0.13555842  1
  V  V10  1  0.12576581  0.37754719  0.88728904  1
  V  V11  1  0.62255224  0.12267869  0.39321281  1
  V  V12  1  0.62810326  0.62178190  0.89023167  1
  V  V13  1  0.12131863  0.62528008  0.88566046  1
  V  V14  1  0.37569335  0.62386012  0.39334417  1
  V  V15  1  0.62700093  0.37213715  0.13894911  1
  V  V16  1  0.62692995  0.37577719  0.64115145  1
  V  V17  1  0.37675873  0.87350675  0.39546587  1
  V  V18  1  0.62648419  0.62734486  0.63990677  1
  V  V19  1  0.37674097  0.37271079  0.88999128  1
  V  V20  1  0.87495493  0.12475419  0.13847421  1
  V  V21  1  0.37098806  0.87156881  0.13603181  1
  V  V22  1  0.87476322  0.37384731  0.89066148  1
  V  V23  1  0.87281878  0.87428580  0.63511876  1
  V  V24  1  0.37441041  0.12331420  0.39542141  1
  V  V25  1  0.38154855  0.37189362  0.39575074  1
  V  V26  1  0.87889417  0.62688821  0.14116397  1
  V  V27  1  0.62266094  0.62582229  0.39032065  1
  V  V28  1  0.13566043  0.37598761  0.38986385  1
  V  V29  1  0.87819602  0.37527672  0.38888092  1
  V  V30  1  0.87686140  0.87511201  0.88793185  1
  V  V31  1  0.62569542  0.87290443  0.88855179  1
  Fe  Fe32  1  0.87368077  0.12625166  0.39192560  1
  Fe  Fe33  1  0.62566247  0.87669387  0.13476867  1
  Fe  Fe34  1  0.37816849  0.37698479  0.62951689  1
  Fe  Fe35  1  0.12241942  0.12861898  0.63487611  1
  Fe  Fe36  1  0.37767760  0.12761573  0.63898711  1
  Fe  Fe37  1  0.87166068  0.62312724  0.63673918  1
  Fe  Fe38  1  0.12248019  0.62076409  0.62839014  1
  Fe  Fe39  1  0.62658246  0.12485080  0.63293067  1
  Fe  Fe40  1  0.12443037  0.87507859  0.39849068  1
  Fe  Fe41  1  0.12625288  0.12373779  0.13433235  1
  Fe  Fe42  1  0.12610336  0.12666751  0.39330634  1
  Fe  Fe43  1  0.37582771  0.62121991  0.63691310  1
  Fe  Fe44  1  0.62552012  0.37625891  0.88385662  1
  Fe  Fe45  1  0.62433522  0.12540417  0.13325606  1
  Fe  Fe46  1  0.37398500  0.37449965  0.13456567  1
  Fe  Fe47  1  0.12321039  0.87380869  0.87395002  1
  Fe  Fe48  1  0.12427310  0.87507960  0.13673915  1
  Fe  Fe49  1  0.37442545  0.12466771  0.87963952  1
  Fe  Fe50  1  0.87681949  0.62558958  0.88536884  1
  Fe  Fe51  1  0.37868746  0.87298988  0.64329705  1
  Fe  Fe52  1  0.37531850  0.87556313  0.87582680  1
  Fe  Fe53  1  0.12294894  0.87363010  0.63495282  1
  Fe  Fe54  1  0.12695433  0.62400287  0.39802354  1
  Fe  Fe55  1  0.37232485  0.62386811  0.89070964  1
  Fe  Fe56  1  0.87699295  0.37636003  0.13836234  1
  Fe  Fe57  1  0.37622661  0.62661631  0.12931410  1
  Fe  Fe58  1  0.12447284  0.37377151  0.13538423  1
  Fe  Fe59  1  0.12181771  0.12645245  0.87994193  1
  Fe  Fe60  1  0.62324997  0.87280519  0.38815527  1
  Fe  Fe61  1  0.87432627  0.12315008  0.88391581  1
  Fe  Fe62  1  0.87783359  0.87526832  0.13673925  1
  Fe  Fe63  1  0.87050585  0.12522579  0.63280796  1
  Pb  Pb64  1  0.01096058  0.00209145  -0.00404159  1
  Pb  Pb65  1  0.00692837  0.00282237  0.25235295  1
  Pb  Pb66  1  0.00638129  0.00354189  0.50103504  1
  Pb  Pb67  1  0.01146305  0.00509028  0.74584851  1
  Pb  Pb68  1  0.00681107  0.24688157  -0.00015634  1
  Pb  Pb69  1  0.00361752  0.24348354  0.24947354  1
  Pb  Pb70  1  0.00160423  0.24164364  0.50172667  1
  Pb  Pb71  1  -0.00285409  0.23902324  0.74880001  1
  Pb  Pb72  1  0.00158810  0.49051915  0.00225165  1
  Pb  Pb73  1  0.00610805  0.50223814  0.25128386  1
  Pb  Pb74  1  -0.00003712  0.50488889  0.50201906  1
  Pb  Pb75  1  -0.00530289  0.50534912  0.74722775  1
  Pb  Pb76  1  -0.00038799  0.76305581  0.00235697  1
  Pb  Pb77  1  0.00702286  0.75612063  0.25676786  1
  Pb  Pb78  1  0.00703734  0.74767922  0.50291417  1
  Pb  Pb79  1  0.00301759  0.74747784  0.74224659  1
  Pb  Pb80  1  0.24542211  0.00066549  -0.01629481  1
  Pb  Pb81  1  0.23808963  0.00042831  0.25477898  1
  Pb  Pb82  1  0.24180038  -0.00287968  0.51160241  1
  Pb  Pb83  1  0.24817731  -0.00310135  0.73970696  1
  Pb  Pb84  1  0.24299223  0.24679782  -0.00328296  1
  Pb  Pb85  1  0.24525670  0.24738337  0.24681114  1
  Pb  Pb86  1  0.25581745  0.23784162  0.51044058  1
  Pb  Pb87  1  0.25184855  0.23939272  0.74699407  1
  Pb  Pb88  1  0.25175864  0.49314660  0.00186427  1
  Pb  Pb89  1  0.25216209  0.50093381  0.24657861  1
  Pb  Pb90  1  0.26049840  0.50413696  0.50646289  1
  Pb  Pb91  1  0.25906523  0.50967654  0.74909101  1
  Pb  Pb92  1  0.24810153  0.75706080  -0.01065389  1
  Pb  Pb93  1  0.23398767  0.74941077  0.26349730  1
  Pb  Pb94  1  0.24799366  0.75707889  0.51025216  1
  Pb  Pb95  1  0.24873157  0.75227790  0.73997028  1
  Pb  Pb96  1  0.50503663  -0.00151243  -0.00486676  1
  Pb  Pb97  1  0.50418317  -0.00466944  0.24771693  1
  Pb  Pb98  1  0.48806675  -0.00116741  0.51066244  1
  Pb  Pb99  1  0.49050319  0.00335782  0.74963415  1
  Pb  Pb100  1  0.49932855  0.24668112  -0.00148498  1
  Pb  Pb101  1  0.49815504  0.24903792  0.24774742  1
  Pb  Pb102  1  0.50181664  0.24242956  0.50675015  1
  Pb  Pb103  1  0.49647036  0.24710272  0.74660851  1
  Pb  Pb104  1  0.48977339  0.49862954  0.00258796  1
  Pb  Pb105  1  0.49782009  0.50235608  0.24482684  1
  Pb  Pb106  1  0.49543187  0.50055896  0.50468842  1
  Pb  Pb107  1  0.50001024  0.49915346  0.75192528  1
  Pb  Pb108  1  0.49629430  0.74771756  -0.00517266  1
  Pb  Pb109  1  0.50284781  0.75514285  0.24702944  1
  Pb  Pb110  1  0.49025734  0.75143313  0.50819630  1
  Pb  Pb111  1  0.48818878  0.74642512  0.75441015  1
  Pb  Pb112  1  0.74595780  -0.00525661  0.00286090  1
  Pb  Pb113  1  0.75044280  0.00067326  0.24739385  1
  Pb  Pb114  1  0.74842021  0.00830994  0.50158558  1
  Pb  Pb115  1  0.75544371  0.00659854  0.74942414  1
  Pb  Pb116  1  0.75227579  0.24751508  0.00098868  1
  Pb  Pb117  1  0.76105887  0.24075899  0.25478906  1
  Pb  Pb118  1  0.74798815  0.24489097  0.50333049  1
  Pb  Pb119  1  0.75038631  0.24818534  0.75007181  1
  Pb  Pb120  1  0.75692589  0.49534998  0.00057020  1
  Pb  Pb121  1  0.74892167  0.50276403  0.24861495  1
  Pb  Pb122  1  0.75288951  0.50319513  0.50171117  1
  Pb  Pb123  1  0.74679871  0.49496064  0.75369528  1
  Pb  Pb124  1  0.75238370  0.75863601  0.00210069  1
  Pb  Pb125  1  0.74436087  0.75832800  0.24911404  1
  Pb  Pb126  1  0.75454024  0.74616796  0.50057483  1
  Pb  Pb127  1  0.75570484  0.74360478  0.75284953  1
  O  O128  1  0.12560319  0.00026574  0.16801572  1
  O  O129  1  0.12718937  0.00083475  0.42033893  1
  O  O130  1  0.12048050  0.00120256  0.65564859  1
  O  O131  1  0.12054989  -0.00144526  0.90490775  1
  O  O132  1  0.12617243  0.24735957  0.16553273  1
  O  O133  1  0.12309644  0.26155216  0.41565143  1
  O  O134  1  0.11957224  0.26269246  0.66306759  1
  O  O135  1  0.12314900  0.25697992  0.91124898  1
  O  O136  1  0.12425422  0.50948431  0.16516686  1
  O  O137  1  0.12252343  0.49042932  0.41589075  1
  O  O138  1  0.11749377  0.48985236  0.66232902  1
  O  O139  1  0.12448823  0.49940642  0.91463714  1
  O  O140  1  0.12466244  0.74464145  0.16870491  1
  O  O141  1  0.12658446  0.74974667  0.42187364  1
  O  O142  1  0.11983811  0.74642535  0.65545897  1
  O  O143  1  0.12141914  0.74290808  0.90426740  1
  O  O144  1  0.37769583  0.00200319  0.16138380  1
  O  O145  1  0.37855613  0.00264647  0.41699411  1
  O  O146  1  0.38073841  0.00032001  0.66133915  1
  O  O147  1  0.37763146  0.00003525  0.90666682  1
  O  O148  1  0.37673678  0.24400382  0.16382050  1
  O  O149  1  0.37907940  0.24670635  0.41708890  1
  O  O150  1  0.37851038  0.25660844  0.66247475  1
  O  O151  1  0.37634321  0.25431873  0.91260527  1
  O  O152  1  0.37649776  0.50231368  0.16509795  1
  O  O153  1  0.37844492  0.50302354  0.41287085  1
  O  O154  1  0.37876566  0.49650011  0.66827656  1
  O  O155  1  0.37536904  0.49348915  0.91416057  1
  O  O156  1  0.37700460  0.75557521  0.15623966  1
  O  O157  1  0.37784035  0.75083483  0.41603884  1
  O  O158  1  0.38048437  0.74483655  0.66359950  1
  O  O159  1  0.37763059  0.75036909  0.91091887  1
  O  O160  1  0.62372645  0.00181118  0.16611693  1
  O  O161  1  0.62271479  0.00537219  0.41189912  1
  O  O162  1  0.62985243  -0.00721280  0.65845222  1
  O  O163  1  0.62810421  0.00192922  0.91299874  1
  O  O164  1  0.62455221  0.25560947  0.16195995  1
  O  O165  1  0.62286275  0.24932102  0.41583179  1
  O  O166  1  0.62888585  0.25820688  0.65965069  1
  O  O167  1  0.62720103  0.24676029  0.91249656  1
  O  O168  1  0.62500737  0.49888318  0.16488034  1
  O  O169  1  0.62363585  0.50234898  0.41607858  1
  O  O170  1  0.62873185  0.50128635  0.66579476  1
  O  O171  1  0.62761497  0.50442927  0.91337221  1
  O  O172  1  0.62436315  0.74745266  0.16300616  1
  O  O173  1  0.62318339  0.74423925  0.41691809  1
  O  O174  1  0.62903140  0.74409041  0.66283329  1
  O  O175  1  0.62752944  0.74729191  0.91371084  1
  O  O176  1  0.87382401  0.00718019  0.16186660  1
  O  O177  1  0.87046172  -0.00580458  0.41183825  1
  O  O178  1  0.86597547  -0.00822046  0.65736158  1
  O  O179  1  0.87165885  -0.00774987  0.90956146  1
  O  O180  1  0.87362047  0.24631292  0.16522402  1
  O  O181  1  0.86926066  0.25970934  0.41393292  1
  O  O182  1  0.86621259  0.25867341  0.65919209  1
  O  O183  1  0.87353115  0.25682990  0.91337801  1
  O  O184  1  0.87411911  0.50840227  0.16966238  1
  O  O185  1  0.86944243  0.49615294  0.41423499  1
  O  O186  1  0.86963664  0.49245407  0.66363603  1
  O  O187  1  0.87425475  0.49575014  0.91494060  1
  O  O188  1  0.87439562  0.74091607  0.16715247  1
  O  O189  1  0.87135592  0.75110299  0.41448181  1
  O  O190  1  0.86869202  0.75462395  0.66215137  1
  O  O191  1  0.87290543  0.75433000  0.91367405  1
  O  O192  1  -0.00647821  0.12571829  0.16231059  1
  O  O193  1  -0.00130341  0.12841290  0.41608451  1
  O  O194  1  -0.00539886  0.13056615  0.65672194  1
  O  O195  1  -0.00304989  0.12775249  0.91313840  1
  O  O196  1  0.00064519  0.37876093  0.16997501  1
  O  O197  1  -0.00712198  0.37758773  0.40904422  1
  O  O198  1  -0.00911639  0.37520912  0.65788668  1
  O  O199  1  -0.00313797  0.37758260  0.91145338  1
  O  O200  1  -0.00102756  0.62567536  0.16466286  1
  O  O201  1  -0.00676813  0.62177954  0.41440607  1
  O  O202  1  -0.00285490  0.62012411  0.66084011  1
  O  O203  1  0.00576851  0.62026738  0.91340506  1
  O  O204  1  0.00002293  0.87275422  0.17081045  1
  O  O205  1  -0.01103337  0.87394307  0.41571003  1
  O  O206  1  -0.01212741  0.87333326  0.65455366  1
  O  O207  1  -0.00563811  0.87198238  0.90747638  1
  O  O208  1  0.25901534  0.12288730  0.16232476  1
  O  O209  1  0.25789039  0.12812668  0.41689771  1
  O  O210  1  0.24852020  0.13057859  0.65840570  1
  O  O211  1  0.24870291  0.12875339  0.90695745  1
  O  O212  1  0.24950724  0.37725004  0.16714926  1
  O  O213  1  0.25009582  0.37666687  0.41080512  1
  O  O214  1  0.24580216  0.37707590  0.65157911  1
  O  O215  1  0.25281167  0.37536613  0.91277132  1
  O  O216  1  0.24628394  0.62691065  0.15922687  1
  O  O217  1  0.26000155  0.62413348  0.41694809  1
  O  O218  1  0.24710832  0.61878364  0.65861895  1
  O  O219  1  0.23953673  0.62183008  0.91156697  1
  O  O220  1  0.25738693  0.87667423  0.16408048  1
  O  O221  1  0.26120827  0.87574282  0.42109935  1
  O  O222  1  0.24998158  0.87297779  0.65735044  1
  O  O223  1  0.24806277  0.87181840  0.90309818  1
  O  O224  1  0.49494613  0.12606916  0.16562399  1
  O  O225  1  0.50021684  0.12675954  0.41777989  1
  O  O226  1  0.50605727  0.12731002  0.66472736  1
  O  O227  1  0.50710280  0.12593090  0.91149885  1
  O  O228  1  0.50697038  0.37587284  0.16522846  1
  O  O229  1  0.50368053  0.37537683  0.41842959  1
  O  O230  1  0.50899053  0.37958053  0.65946618  1
  O  O231  1  0.49658091  0.37429549  0.91134311  1
  O  O232  1  0.50428621  0.62498136  0.16261553  1
  O  O233  1  0.49673955  0.62513389  0.41665360  1
  O  O234  1  0.51064250  0.62115280  0.66481039  1
  O  O235  1  0.50943144  0.62484601  0.91392704  1
  O  O236  1  0.49216812  0.87656600  0.16314562  1
  O  O237  1  0.49519743  0.87585965  0.41902008  1
  O  O238  1  0.51472154  0.86938564  0.66548596  1
  O  O239  1  0.50564138  0.87494024  0.90940870  1
  O  O240  1  0.75356054  0.12715198  0.16382794  1
  O  O241  1  0.74209466  0.12718665  0.41322504  1
  O  O242  1  0.74786504  0.12578422  0.66744080  1
  O  O243  1  0.74701536  0.12538047  0.91576038  1
  O  O244  1  0.74389167  0.37852338  0.16488722  1
  O  O245  1  0.74757865  0.37693949  0.41528290  1
  O  O246  1  0.74912061  0.37842308  0.66553971  1
  O  O247  1  0.75419159  0.37619942  0.91493248  1
  O  O248  1  0.75027272  0.62383676  0.16512701  1
  O  O249  1  0.74831111  0.62362601  0.41601907  1
  O  O250  1  0.74418126  0.62247870  0.66729399  1
  O  O251  1  0.74654067  0.62559709  0.91545001  1
  O  O252  1  0.75232685  0.87420116  0.16621208  1
  O  O253  1  0.75271833  0.87297676  0.41396725  1
  O  O254  1  0.74673857  0.86986224  0.66690195  1
  O  O255  1  0.75103853  0.87337140  0.91524359  1
  O  O256  1  0.12167899  0.12564205  0.03406303  1
  O  O257  1  0.12962879  0.12241545  0.29215345  1
  O  O258  1  0.12667500  0.13519404  0.53197642  1
  O  O259  1  0.11555304  0.13046381  0.77824946  1
  O  O260  1  0.12356538  0.37713868  0.03494196  1
  O  O261  1  0.13028169  0.37682463  0.29827273  1
  O  O262  1  0.12349070  0.37595831  0.54339946  1
  O  O263  1  0.12727682  0.37946730  0.79665508  1
  O  O264  1  0.12456849  0.62845238  0.04924824  1
  O  O265  1  0.13108136  0.63047452  0.29679072  1
  O  O266  1  0.11900873  0.61647643  0.52668074  1
  O  O267  1  0.11962650  0.61886013  0.79427335  1
  O  O268  1  0.11935410  0.87040806  0.03678751  1
  O  O269  1  0.12980068  0.86956735  0.29566292  1
  O  O270  1  0.12666160  0.87554649  0.53114757  1
  O  O271  1  0.11737303  0.87538313  0.77348923  1
  O  O272  1  0.37803684  0.12450765  0.04620574  1
  O  O273  1  0.37675052  0.12334439  0.30478172  1
  O  O274  1  0.37950322  0.12964097  0.53633961  1
  O  O275  1  0.37978497  0.13175981  0.77896475  1
  O  O276  1  0.37632444  0.37898397  0.03522654  1
  O  O277  1  0.38049433  0.37230058  0.30450538  1
  O  O278  1  0.37672823  0.38579299  0.52839555  1
  O  O279  1  0.37453570  0.37439934  0.79886781  1
  O  O280  1  0.37968638  0.62064884  0.02921339  1
  O  O281  1  0.37611461  0.62749282  0.30240276  1
  O  O282  1  0.38022655  0.61722961  0.53582584  1
  O  O283  1  0.37545383  0.61763564  0.78975895  1
  O  O284  1  0.37052553  0.87534450  0.04506004  1
  O  O285  1  0.37460242  0.87419676  0.30480398  1
  O  O286  1  0.38589124  0.87221371  0.54081193  1
  O  O287  1  0.38099053  0.87205242  0.77440071  1
  O  O288  1  0.62321279  0.12403991  0.03417631  1
  O  O289  1  0.61973217  0.12743073  0.30195843  1
  O  O290  1  0.62853623  0.12854022  0.53262170  1
  O  O291  1  0.62913228  0.12481044  0.79972911  1
  O  O292  1  0.62627431  0.37435675  0.04777194  1
  O  O293  1  0.62563920  0.37455923  0.29909084  1
  O  O294  1  0.63039848  0.38003322  0.54992251  1
  O  O295  1  0.62928282  0.37957553  0.78492082  1
  O  O296  1  0.62634272  0.62392159  0.04487143  1
  O  O297  1  0.62235751  0.62581739  0.29916340  1
  O  O298  1  0.62766710  0.62504474  0.54857547  1
  O  O299  1  0.62822010  0.62349786  0.79881379  1
  O  O300  1  0.62984705  0.87993673  0.03454524  1
  O  O301  1  0.61805249  0.86855984  0.28858467  1
  O  O302  1  0.62754093  0.87281299  0.54772522  1
  O  O303  1  0.62947120  0.87375601  0.79789109  1
  O  O304  1  0.87280047  0.12799657  0.04735892  1
  O  O305  1  0.86920715  0.13096400  0.29171949  1
  O  O306  1  0.86246760  0.12707224  0.53089738  1
  O  O307  1  0.87020835  0.12778202  0.78380466  1
  O  O308  1  0.87527883  0.38110093  0.03906268  1
  O  O309  1  0.87294561  0.37542364  0.29759088  1
  O  O310  1  0.87301439  0.37747425  0.54429214  1
  O  O311  1  0.87379820  0.37478923  0.79939993  1
  O  O312  1  0.87781473  0.62533307  0.05023238  1
  O  O313  1  0.87131582  0.62577291  0.30026017  1
  O  O314  1  0.86625985  0.62166417  0.53628512  1
  O  O315  1  0.87505753  0.62570362  0.78582487  1
  O  O316  1  0.87889861  0.86805111  0.03685214  1
  O  O317  1  0.87261023  0.87493039  0.29804079  1
  O  O318  1  0.86628899  0.87167965  0.54418152  1
  O  O319  1  0.87214692  0.87172681  0.79692408  1
