# generated using pymatgen
data_VFe(PbO3)2
_symmetry_space_group_name_H-M   'P 1'
_cell_length_a   15.38842373
_cell_length_b   15.38902292
_cell_length_c   18.53961890
_cell_angle_alpha   89.92590760
_cell_angle_beta   90.00282702
_cell_angle_gamma   89.99132688
_symmetry_Int_Tables_number   1
_chemical_formula_structural   VFe(PbO3)2
_chemical_formula_sum   'V32 Fe32 Pb64 O192'
_cell_volume   4390.41543695
_cell_formula_units_Z   32
loop_
 _symmetry_equiv_pos_site_id
 _symmetry_equiv_pos_as_xyz
  1  'x, y, z'
loop_
 _atom_site_type_symbol
 _atom_site_label
 _atom_site_symmetry_multiplicity
 _atom_site_fract_x
 _atom_site_fract_y
 _atom_site_fract_z
 _atom_site_occupancy
  V  V0  1  0.62905688  0.86550070  0.63416661  1
  V  V1  1  0.87517635  0.12305296  0.89374497  1
  V  V2  1  0.12723087  0.87258428  0.88909550  1
  V  V3  1  0.62802449  0.62377248  0.89074269  1
  V  V4  1  0.37418194  0.87608934  0.13924540  1
  V  V5  1  0.87454686  0.12525396  0.38777576  1
  V  V6  1  0.62469992  0.37634794  0.13703661  1
  V  V7  1  0.37963346  0.62440777  0.39836658  1
  V  V8  1  0.12373595  0.12007472  0.88678188  1
  V  V9  1  0.62649433  0.12265514  0.63893900  1
  V  V10  1  0.12396612  0.87498682  0.39736639  1
  V  V11  1  0.87571010  0.87391753  0.89421174  1
  V  V12  1  0.62396059  0.37326254  0.38973154  1
  V  V13  1  0.12694371  0.37552946  0.14185923  1
  V  V14  1  0.37407743  0.37602065  0.14008914  1
  V  V15  1  0.12677690  0.12642720  0.39557421  1
  V  V16  1  0.37712640  0.12467122  0.39392562  1
  V  V17  1  0.87390725  0.37649963  0.38776995  1
  V  V18  1  0.13298924  0.62647833  0.40328459  1
  V  V19  1  0.62512887  0.87715874  0.89391035  1
  V  V20  1  0.87592783  0.62104424  0.13965797  1
  V  V21  1  0.87149119  0.37220822  0.63996400  1
  V  V22  1  0.12665908  0.62485756  0.14287771  1
  V  V23  1  0.62485570  0.37491145  0.64124439  1
  V  V24  1  0.86861614  0.62490349  0.63928947  1
  V  V25  1  0.37621678  0.12257528  0.88735841  1
  V  V26  1  0.62349256  0.12281355  0.14115188  1
  V  V27  1  0.62834894  0.62540554  0.38846872  1
  V  V28  1  0.37401722  0.87437584  0.39360992  1
  V  V29  1  0.87721879  0.62346504  0.38852104  1
  V  V30  1  0.12268255  0.61905604  0.88446206  1
  V  V31  1  0.12664931  0.36682966  0.88409180  1
  Fe  Fe32  1  0.37283013  0.37471159  0.88027686  1
  Fe  Fe33  1  0.62628477  0.61971597  0.63329998  1
  Fe  Fe34  1  0.37461145  0.87678698  0.88173222  1
  Fe  Fe35  1  0.38052528  0.62501248  0.62922564  1
  Fe  Fe36  1  0.37682770  0.37284464  0.62948416  1
  Fe  Fe37  1  0.87746338  0.37661734  0.13434673  1
  Fe  Fe38  1  0.87852587  0.12893824  0.13547969  1
  Fe  Fe39  1  0.12048260  0.37670783  0.62669787  1
  Fe  Fe40  1  0.37168080  0.62314123  0.13525021  1
  Fe  Fe41  1  0.12285182  0.37501786  0.39957711  1
  Fe  Fe42  1  0.87485228  0.87331937  0.38896841  1
  Fe  Fe43  1  0.37749126  0.12552859  0.62979309  1
  Fe  Fe44  1  0.12298558  0.62375164  0.62696764  1
  Fe  Fe45  1  0.87762798  0.37620956  0.88973907  1
  Fe  Fe46  1  0.12944884  0.12568692  0.13672102  1
  Fe  Fe47  1  0.37393890  0.62887108  0.88666600  1
  Fe  Fe48  1  0.87104499  0.12551055  0.63184495  1
  Fe  Fe49  1  0.62734868  0.12297458  0.88671444  1
  Fe  Fe50  1  0.37492238  0.37621636  0.39716816  1
  Fe  Fe51  1  0.62107756  0.62278638  0.13369711  1
  Fe  Fe52  1  0.12097294  0.87359532  0.62832758  1
  Fe  Fe53  1  0.62266492  0.87680073  0.37860271  1
  Fe  Fe54  1  0.87880169  0.87578940  0.13777196  1
  Fe  Fe55  1  0.62506857  0.12597676  0.38118752  1
  Fe  Fe56  1  0.12182464  0.12507016  0.62971335  1
  Fe  Fe57  1  0.62396582  0.37122221  0.88470786  1
  Fe  Fe58  1  0.86757845  0.87642721  0.62864091  1
  Fe  Fe59  1  0.12732330  0.87361805  0.13556019  1
  Fe  Fe60  1  0.37942923  0.87589668  0.63445030  1
  Fe  Fe61  1  0.62419129  0.87210899  0.14263397  1
  Fe  Fe62  1  0.37300176  0.12691835  0.13784660  1
  Fe  Fe63  1  0.87678449  0.63060037  0.88741110  1
  Pb  Pb64  1  0.00076805  -0.00359962  0.00629610  1
  Pb  Pb65  1  0.00002902  -0.00230834  0.24511298  1
  Pb  Pb66  1  0.00187312  0.00110780  0.50274449  1
  Pb  Pb67  1  -0.00380590  -0.00216772  0.73701351  1
  Pb  Pb68  1  -0.00241687  0.24186683  0.00351862  1
  Pb  Pb69  1  0.00082805  0.24896713  0.24883418  1
  Pb  Pb70  1  -0.00213406  0.24010554  0.50398035  1
  Pb  Pb71  1  0.00038704  0.24825779  0.74328129  1
  Pb  Pb72  1  -0.00464011  0.49659556  -0.00122558  1
  Pb  Pb73  1  0.01172872  0.49400342  0.25725376  1
  Pb  Pb74  1  0.00261165  0.49976945  0.50407046  1
  Pb  Pb75  1  -0.00901560  0.49852316  0.74838097  1
  Pb  Pb76  1  0.00375191  0.76058540  0.00375849  1
  Pb  Pb77  1  -0.00223844  0.75421517  0.25283270  1
  Pb  Pb78  1  0.00517108  0.75303715  0.50537907  1
  Pb  Pb79  1  -0.00281588  0.75000477  0.74087317  1
  Pb  Pb80  1  0.24671779  0.00757635  0.00231679  1
  Pb  Pb81  1  0.24723815  0.00386384  0.24846594  1
  Pb  Pb82  1  0.24689170  0.00239149  0.50658179  1
  Pb  Pb83  1  0.25011754  -0.00411062  0.73541861  1
  Pb  Pb84  1  0.25107095  0.23860347  0.00162306  1
  Pb  Pb85  1  0.25304461  0.25886943  0.25727983  1
  Pb  Pb86  1  0.25498043  0.25109319  0.50557976  1
  Pb  Pb87  1  0.25229231  0.25269812  0.73382470  1
  Pb  Pb88  1  0.25802014  0.50417107  -0.00398377  1
  Pb  Pb89  1  0.25038656  0.48828105  0.26361549  1
  Pb  Pb90  1  0.25007295  0.48997339  0.50809306  1
  Pb  Pb91  1  0.25197945  0.49967317  0.73305240  1
  Pb  Pb92  1  0.25566894  0.75067742  -0.00346770  1
  Pb  Pb93  1  0.25383578  0.74831254  0.25154273  1
  Pb  Pb94  1  0.25705630  0.75637212  0.51093269  1
  Pb  Pb95  1  0.25154259  0.74771920  0.73551736  1
  Pb  Pb96  1  0.50016478  -0.00272464  0.00097959  1
  Pb  Pb97  1  0.50804353  0.00113626  0.25248046  1
  Pb  Pb98  1  0.49660111  -0.00128161  0.49811910  1
  Pb  Pb99  1  0.49648734  -0.00230220  0.74771192  1
  Pb  Pb100  1  0.49922421  0.25191210  -0.00660419  1
  Pb  Pb101  1  0.50170257  0.24932141  0.25224184  1
  Pb  Pb102  1  0.49306627  0.25018466  0.50320665  1
  Pb  Pb103  1  0.50046466  0.25595518  0.74999935  1
  Pb  Pb104  1  0.49579879  0.50594314  -0.00598034  1
  Pb  Pb105  1  0.49248472  0.49704772  0.24951695  1
  Pb  Pb106  1  0.50272088  0.50889209  0.50613113  1
  Pb  Pb107  1  0.48720033  0.50160238  0.74883186  1
  Pb  Pb108  1  0.50590363  0.74873000  0.00277906  1
  Pb  Pb109  1  0.50368892  0.74769803  0.24635715  1
  Pb  Pb110  1  0.49594742  0.75133451  0.50303962  1
  Pb  Pb111  1  0.48437966  0.74303438  0.75272354  1
  Pb  Pb112  1  0.75485967  -0.00823269  0.00857250  1
  Pb  Pb113  1  0.75921704  -0.01127879  0.25092372  1
  Pb  Pb114  1  0.74999166  -0.00603437  0.49354821  1
  Pb  Pb115  1  0.74751293  0.00590934  0.74873650  1
  Pb  Pb116  1  0.75640189  0.25054919  -0.00101232  1
  Pb  Pb117  1  0.74823285  0.24609353  0.24704725  1
  Pb  Pb118  1  0.75457144  0.24451993  0.49903929  1
  Pb  Pb119  1  0.74131532  0.25070745  0.75754531  1
  Pb  Pb120  1  0.75391591  0.49603004  -0.00382448  1
  Pb  Pb121  1  0.75094413  0.50024806  0.24688687  1
  Pb  Pb122  1  0.74449801  0.50316408  0.50164418  1
  Pb  Pb123  1  0.75295560  0.49042924  0.75770598  1
  Pb  Pb124  1  0.74158883  0.75261815  0.00846506  1
  Pb  Pb125  1  0.75054309  0.75792122  0.25015173  1
  Pb  Pb126  1  0.74909127  0.75501663  0.49509057  1
  Pb  Pb127  1  0.75356437  0.74093667  0.75306704  1
  O  O128  1  0.12800970  -0.00126797  0.16568492  1
  O  O129  1  0.12386297  0.00262541  0.41703494  1
  O  O130  1  0.12088346  -0.00184524  0.65935664  1
  O  O131  1  0.12283947  -0.00174716  0.91293253  1
  O  O132  1  0.12975722  0.26001372  0.16510346  1
  O  O133  1  0.12324534  0.24254868  0.41416832  1
  O  O134  1  0.11901716  0.25230129  0.65784687  1
  O  O135  1  0.12615875  0.24987836  0.90733467  1
  O  O136  1  0.12691618  0.49968140  0.16985750  1
  O  O137  1  0.12193899  0.50898520  0.41880403  1
  O  O138  1  0.11837877  0.50102262  0.65837970  1
  O  O139  1  0.12433908  0.50383530  0.90352201  1
  O  O140  1  0.12655903  0.74206844  0.16692002  1
  O  O141  1  0.12204294  0.74728666  0.42017505  1
  O  O142  1  0.11992352  0.74717677  0.65931943  1
  O  O143  1  0.12447556  0.75582004  0.91090587  1
  O  O144  1  0.37496993  -0.00583027  0.16461358  1
  O  O145  1  0.37259376  0.00254821  0.41594904  1
  O  O146  1  0.38367235  0.00135245  0.66042504  1
  O  O147  1  0.37330435  0.00391255  0.91461871  1
  O  O148  1  0.37375699  0.25709849  0.16753978  1
  O  O149  1  0.37194196  0.24316117  0.41386182  1
  O  O150  1  0.37864298  0.24914442  0.65986292  1
  O  O151  1  0.37084962  0.24183700  0.90868530  1
  O  O152  1  0.37248024  0.49537112  0.16882147  1
  O  O153  1  0.37430764  0.50785747  0.41779093  1
  O  O154  1  0.38040575  0.49823337  0.65478199  1
  O  O155  1  0.37212822  0.50206030  0.91224087  1
  O  O156  1  0.37253301  0.75393477  0.16479777  1
  O  O157  1  0.37532631  0.74738716  0.41788461  1
  O  O158  1  0.38137493  0.75079973  0.66023395  1
  O  O159  1  0.37351369  0.75393098  0.91462256  1
  O  O160  1  0.62091244  0.00653111  0.15966849  1
  O  O161  1  0.62254658  0.00223803  0.40889339  1
  O  O162  1  0.62851858  0.00669505  0.65830335  1
  O  O163  1  0.62698428  -0.00373265  0.91923534  1
  O  O164  1  0.62152119  0.25695064  0.16416803  1
  O  O165  1  0.62685273  0.25545533  0.41207393  1
  O  O166  1  0.63081189  0.25300837  0.66544366  1
  O  O167  1  0.62514709  0.24566369  0.91848563  1
  O  O168  1  0.62397178  0.49388293  0.16381215  1
  O  O169  1  0.62634411  0.49500973  0.41569800  1
  O  O170  1  0.62925942  0.49062198  0.66334324  1
  O  O171  1  0.62557748  0.50664784  0.90784091  1
  O  O172  1  0.62515597  0.74496018  0.16715252  1
  O  O173  1  0.62486255  0.74500296  0.40572223  1
  O  O174  1  0.63360585  0.75171548  0.64760440  1
  O  O175  1  0.62741342  0.75536548  0.91701270  1
  O  O176  1  0.87652476  0.00350248  0.16449639  1
  O  O177  1  0.87532022  0.00856239  0.40630220  1
  O  O178  1  0.86814105  0.00054456  0.66032714  1
  O  O179  1  0.87830998  0.00150065  0.91865346  1
  O  O180  1  0.87568715  0.25445575  0.16796950  1
  O  O181  1  0.87491767  0.24977674  0.41313263  1
  O  O182  1  0.87147703  0.25653038  0.66248943  1
  O  O183  1  0.87987768  0.24404340  0.91313018  1
  O  O184  1  0.88099665  0.50327299  0.16788996  1
  O  O185  1  0.87070998  0.50234729  0.41542457  1
  O  O186  1  0.87009082  0.49913355  0.66357643  1
  O  O187  1  0.87926082  0.50521424  0.91706629  1
  O  O188  1  0.88033811  0.73746151  0.16466834  1
  O  O189  1  0.86994893  0.74037706  0.41055947  1
  O  O190  1  0.86509127  0.74434888  0.65927313  1
  O  O191  1  0.87557701  0.75534393  0.91915886  1
  O  O192  1  0.00505355  0.13073366  0.16720253  1
  O  O193  1  -0.00183714  0.12606114  0.41272074  1
  O  O194  1  -0.00484511  0.12665158  0.66322164  1
  O  O195  1  0.00055622  0.12376347  0.91618107  1
  O  O196  1  0.00869458  0.37841388  0.16454111  1
  O  O197  1  -0.00931805  0.37794726  0.41341590  1
  O  O198  1  -0.01064239  0.37796078  0.66006622  1
  O  O199  1  0.01192649  0.37570648  0.91453648  1
  O  O200  1  0.00673801  0.62124105  0.16951346  1
  O  O201  1  -0.00911920  0.62379254  0.41298418  1
  O  O202  1  -0.01365013  0.62489533  0.65969978  1
  O  O203  1  0.00949411  0.63119037  0.91410125  1
  O  O204  1  0.00305682  0.87017266  0.16891102  1
  O  O205  1  0.00118813  0.87424441  0.41321093  1
  O  O206  1  -0.00779342  0.87081074  0.65640212  1
  O  O207  1  0.00283058  0.87679242  0.91617160  1
  O  O208  1  0.25168403  0.12797300  0.17366290  1
  O  O209  1  0.24765656  0.12242757  0.41623884  1
  O  O210  1  0.24970693  0.12391237  0.65534667  1
  O  O211  1  0.24973021  0.12206781  0.91271665  1
  O  O212  1  0.24784930  0.37883351  0.17004479  1
  O  O213  1  0.24911412  0.37682308  0.42124153  1
  O  O214  1  0.24849005  0.37607043  0.65045306  1
  O  O215  1  0.24150924  0.37670750  0.90956643  1
  O  O216  1  0.24372137  0.62250401  0.16902252  1
  O  O217  1  0.24979638  0.62822285  0.42059591  1
  O  O218  1  0.25081725  0.62566843  0.64938636  1
  O  O219  1  0.23898574  0.62980024  0.91251360  1
  O  O220  1  0.25579377  0.87258316  0.16637293  1
  O  O221  1  0.25127917  0.87359714  0.42215161  1
  O  O222  1  0.25021063  0.87428556  0.65321534  1
  O  O223  1  0.24387647  0.87836096  0.90860076  1
  O  O224  1  0.50258516  0.13020260  0.16585054  1
  O  O225  1  0.49457081  0.12620241  0.41088682  1
  O  O226  1  0.51039542  0.13052127  0.66126211  1
  O  O227  1  0.49377885  0.12183171  0.91084154  1
  O  O228  1  0.50179784  0.37703892  0.16395742  1
  O  O229  1  0.50803445  0.37443327  0.41279714  1
  O  O230  1  0.50832939  0.37066675  0.65794384  1
  O  O231  1  0.49728594  0.37398187  0.91398373  1
  O  O232  1  0.49619638  0.62155087  0.16592654  1
  O  O233  1  0.50016102  0.62267528  0.41147013  1
  O  O234  1  0.50582131  0.62353360  0.66417270  1
  O  O235  1  0.50802600  0.63039523  0.91186824  1
  O  O236  1  0.49171606  0.87355148  0.16550732  1
  O  O237  1  0.49580702  0.87533473  0.41149755  1
  O  O238  1  0.51707682  0.87765166  0.66279948  1
  O  O239  1  0.50638217  0.87743581  0.91402941  1
  O  O240  1  0.74141359  0.13133073  0.16127841  1
  O  O241  1  0.75544192  0.12948957  0.40676837  1
  O  O242  1  0.74499275  0.12984001  0.66555735  1
  O  O243  1  0.75862806  0.12234206  0.91608441  1
  O  O244  1  0.74357023  0.37667503  0.15915944  1
  O  O245  1  0.74865704  0.37496691  0.41566797  1
  O  O246  1  0.75199300  0.37559376  0.66793760  1
  O  O247  1  0.75061738  0.37546641  0.91556584  1
  O  O248  1  0.75882437  0.61881339  0.15816301  1
  O  O249  1  0.75106837  0.62042709  0.41420873  1
  O  O250  1  0.75150705  0.62025925  0.66880985  1
  O  O251  1  0.74523137  0.63033805  0.91601118  1
  O  O252  1  0.75279167  0.87317869  0.16414478  1
  O  O253  1  0.74727629  0.87541080  0.41055950  1
  O  O254  1  0.74093595  0.87848098  0.66726797  1
  O  O255  1  0.74860629  0.87777174  0.92058947  1
  O  O256  1  0.13592228  0.12847864  0.03596727  1
  O  O257  1  0.12711242  0.12392033  0.30461863  1
  O  O258  1  0.11531243  0.12055592  0.52888786  1
  O  O259  1  0.12273630  0.12093080  0.79636618  1
  O  O260  1  0.13042570  0.37755943  0.05150968  1
  O  O261  1  0.12781629  0.38267451  0.29762059  1
  O  O262  1  0.11657730  0.38177627  0.52527122  1
  O  O263  1  0.12291988  0.37017078  0.79337415  1
  O  O264  1  0.12560490  0.62317526  0.05238579  1
  O  O265  1  0.12734623  0.62760821  0.31185903  1
  O  O266  1  0.11060560  0.62663740  0.52562545  1
  O  O267  1  0.12207075  0.62637158  0.79385341  1
  O  O268  1  0.12067213  0.87230098  0.03626874  1
  O  O269  1  0.13048878  0.87145091  0.30633207  1
  O  O270  1  0.11941452  0.87407341  0.52752625  1
  O  O271  1  0.12237949  0.87362189  0.79858391  1
  O  O272  1  0.36403057  0.12611878  0.03859283  1
  O  O273  1  0.37355549  0.12355460  0.30283202  1
  O  O274  1  0.37942738  0.12704394  0.52931134  1
  O  O275  1  0.37547384  0.11983189  0.79675849  1
  O  O276  1  0.37006515  0.37801270  0.04900525  1
  O  O277  1  0.36961844  0.37955143  0.29588982  1
  O  O278  1  0.37883921  0.36603928  0.52661271  1
  O  O279  1  0.37702458  0.37559961  0.78090111  1
  O  O280  1  0.36696632  0.62106750  0.03528929  1
  O  O281  1  0.37246427  0.62733481  0.30719913  1
  O  O282  1  0.38884408  0.63056765  0.52796506  1
  O  O283  1  0.38063559  0.62786302  0.78615791  1
  O  O284  1  0.37391922  0.87642622  0.04817469  1
  O  O285  1  0.36942586  0.87235924  0.30288968  1
  O  O286  1  0.38545295  0.87081458  0.53316022  1
  O  O287  1  0.38364382  0.87721465  0.78216759  1
  O  O288  1  0.62102758  0.12711076  0.05039188  1
  O  O289  1  0.61846517  0.13125535  0.28174057  1
  O  O290  1  0.62868665  0.12738850  0.54753945  1
  O  O291  1  0.63330973  0.12486741  0.78766972  1
  O  O292  1  0.62098962  0.37542027  0.04650193  1
  O  O293  1  0.62681356  0.37668977  0.29869297  1
  O  O294  1  0.63059330  0.37273893  0.55006270  1
  O  O295  1  0.62738451  0.36688892  0.78487919  1
  O  O296  1  0.62210154  0.63048297  0.03422757  1
  O  O297  1  0.63045409  0.61628448  0.29765492  1
  O  O298  1  0.62569750  0.61371339  0.53283872  1
  O  O299  1  0.63094382  0.63160156  0.79984502  1
  O  O300  1  0.62411340  0.87123100  0.04157021  1
  O  O301  1  0.62366626  0.87857861  0.27732150  1
  O  O302  1  0.63111734  0.87845314  0.54279484  1
  O  O303  1  0.62964987  0.87610678  0.80373198  1
  O  O304  1  0.88164951  0.13213194  0.03573917  1
  O  O305  1  0.87795737  0.13167095  0.29672936  1
  O  O306  1  0.87380660  0.13306175  0.53190418  1
  O  O307  1  0.87573998  0.12123370  0.80292023  1
  O  O308  1  0.88172980  0.37855262  0.03442071  1
  O  O309  1  0.87139832  0.37863666  0.29659021  1
  O  O310  1  0.86744487  0.37313975  0.54900265  1
  O  O311  1  0.87657889  0.38384666  0.78976795  1
  O  O312  1  0.88345287  0.61997285  0.04890142  1
  O  O313  1  0.87472032  0.62040937  0.29747423  1
  O  O314  1  0.86475650  0.62217471  0.54834686  1
  O  O315  1  0.87173127  0.63092219  0.78808234  1
  O  O316  1  0.88176849  0.88019383  0.03698587  1
  O  O317  1  0.87136659  0.87198683  0.28747904  1
  O  O318  1  0.85993332  0.87484391  0.52818041  1
  O  O319  1  0.87212770  0.87476173  0.80338646  1
