# generated using pymatgen
data_VFe(PbO3)2
_symmetry_space_group_name_H-M   'P 1'
_cell_length_a   15.40006656
_cell_length_b   15.38449631
_cell_length_c   18.48317691
_cell_angle_alpha   90.01785831
_cell_angle_beta   90.00836294
_cell_angle_gamma   90.01897920
_symmetry_Int_Tables_number   1
_chemical_formula_structural   VFe(PbO3)2
_chemical_formula_sum   'V32 Fe32 Pb64 O192'
_cell_volume   4379.07567727
_cell_formula_units_Z   32
loop_
 _symmetry_equiv_pos_site_id
 _symmetry_equiv_pos_as_xyz
  1  'x, y, z'
loop_
 _atom_site_type_symbol
 _atom_site_label
 _atom_site_symmetry_multiplicity
 _atom_site_fract_x
 _atom_site_fract_y
 _atom_site_fract_z
 _atom_site_occupancy
  V  V0  1  0.37339603  0.12301011  0.39047822  1
  V  V1  1  0.12806768  0.62583853  0.89025207  1
  V  V2  1  0.37527361  0.37372468  0.64071590  1
  V  V3  1  0.62513616  0.12416962  0.13354025  1
  V  V4  1  0.87220608  0.87441323  0.89265095  1
  V  V5  1  0.12621871  0.87574344  0.38807012  1
  V  V6  1  0.62158014  0.12149496  0.89031228  1
  V  V7  1  0.12615081  0.62477802  0.13029596  1
  V  V8  1  0.37550021  0.62513596  0.64299058  1
  V  V9  1  0.87429277  0.37346316  0.38783079  1
  V  V10  1  0.12516959  0.37445538  0.38870064  1
  V  V11  1  0.62582093  0.37452175  0.89464488  1
  V  V12  1  0.37276476  0.62670165  0.38962707  1
  V  V13  1  0.12154950  0.62383544  0.64433846  1
  V  V14  1  0.37722882  0.87043510  0.88907116  1
  V  V15  1  0.37351977  0.12404413  0.64274097  1
  V  V16  1  0.37720594  0.12513765  0.13352395  1
  V  V17  1  0.37611384  0.37406275  0.89367650  1
  V  V18  1  0.11535428  0.12406017  0.89651717  1
  V  V19  1  0.12370351  0.12555148  0.39188986  1
  V  V20  1  0.87535693  0.62452136  0.89447235  1
  V  V21  1  0.62372469  0.62516746  0.89613155  1
  V  V22  1  0.37288731  0.87678688  0.39528458  1
  V  V23  1  0.12567264  0.62507868  0.38730646  1
  V  V24  1  0.37954133  0.12301393  0.88886438  1
  V  V25  1  0.87455958  0.62538698  0.64165574  1
  V  V26  1  0.87424287  0.87201246  0.64228172  1
  V  V27  1  0.62482111  0.12791339  0.64155154  1
  V  V28  1  0.62468063  0.12656075  0.38975034  1
  V  V29  1  0.87456560  0.12565888  0.64475271  1
  V  V30  1  0.62421631  0.87650058  0.38924896  1
  V  V31  1  0.62589780  0.37707815  0.64131755  1
  Fe  Fe32  1  0.62417234  0.62620790  0.37985815  1
  Fe  Fe33  1  0.12540505  0.37503906  0.64338287  1
  Fe  Fe34  1  0.86776241  0.12420647  0.89545242  1
  Fe  Fe35  1  0.87703072  0.12403230  0.38496042  1
  Fe  Fe36  1  0.12620981  0.87551746  0.12295927  1
  Fe  Fe37  1  0.12295648  0.87350733  0.89926957  1
  Fe  Fe38  1  0.12539281  0.37619548  0.89569238  1
  Fe  Fe39  1  0.87413962  0.87646359  0.13543142  1
  Fe  Fe40  1  0.37465661  0.87581375  0.63628050  1
  Fe  Fe41  1  0.62682680  0.62194960  0.63508515  1
  Fe  Fe42  1  0.12473609  0.37385806  0.12325105  1
  Fe  Fe43  1  0.62591041  0.87253872  0.89475438  1
  Fe  Fe44  1  0.62286263  0.37368109  0.37849825  1
  Fe  Fe45  1  0.37754658  0.62169081  0.89600892  1
  Fe  Fe46  1  0.62538098  0.87410304  0.63907736  1
  Fe  Fe47  1  0.12664897  0.12481174  0.11952893  1
  Fe  Fe48  1  0.37172412  0.37342603  0.38355821  1
  Fe  Fe49  1  0.37657126  0.87503432  0.13002726  1
  Fe  Fe50  1  0.62498910  0.37226516  0.13824880  1
  Fe  Fe51  1  0.62391015  0.87741803  0.12851885  1
  Fe  Fe52  1  0.12450438  0.12459951  0.64059202  1
  Fe  Fe53  1  0.87977597  0.62718960  0.37900764  1
  Fe  Fe54  1  0.37371693  0.62515232  0.12346449  1
  Fe  Fe55  1  0.87683478  0.62485439  0.13627795  1
  Fe  Fe56  1  0.87259267  0.37602069  0.89332763  1
  Fe  Fe57  1  0.87466919  0.37540040  0.64165618  1
  Fe  Fe58  1  0.62457238  0.62549649  0.13443313  1
  Fe  Fe59  1  0.87412091  0.12465739  0.12379958  1
  Fe  Fe60  1  0.37402688  0.37433264  0.13305912  1
  Fe  Fe61  1  0.12474790  0.87607417  0.64186041  1
  Fe  Fe62  1  0.87543243  0.37480849  0.12662054  1
  Fe  Fe63  1  0.87764279  0.87886852  0.38141535  1
  Pb  Pb64  1  -0.01118094  -0.00376798  0.00667446  1
  Pb  Pb65  1  -0.00210817  0.00261839  0.23629739  1
  Pb  Pb66  1  0.00638463  0.00019774  0.50208836  1
  Pb  Pb67  1  -0.00505904  0.00360047  0.75620808  1
  Pb  Pb68  1  -0.00653037  0.25959958  -0.00065753  1
  Pb  Pb69  1  0.00014200  0.24355888  0.23063502  1
  Pb  Pb70  1  0.00094199  0.25962857  0.50899165  1
  Pb  Pb71  1  0.00429834  0.26006058  0.76020323  1
  Pb  Pb72  1  -0.00327694  0.49710671  0.00043102  1
  Pb  Pb73  1  -0.00360538  0.50056567  0.23932511  1
  Pb  Pb74  1  -0.00067107  0.49095740  0.50196534  1
  Pb  Pb75  1  0.00088517  0.48726660  0.76001356  1
  Pb  Pb76  1  -0.01047199  0.74951738  0.00621691  1
  Pb  Pb77  1  -0.00668880  0.75570567  0.24270270  1
  Pb  Pb78  1  0.00082414  0.75282544  0.49392951  1
  Pb  Pb79  1  0.00623794  0.75512038  0.75703455  1
  Pb  Pb80  1  0.24414727  0.00023678  0.00144116  1
  Pb  Pb81  1  0.24506642  -0.00120621  0.23747161  1
  Pb  Pb82  1  0.24160480  0.00008055  0.50840978  1
  Pb  Pb83  1  0.23250057  -0.01075215  0.76066162  1
  Pb  Pb84  1  0.24813363  0.25135393  0.00122191  1
  Pb  Pb85  1  0.24931690  0.25342151  0.24092826  1
  Pb  Pb86  1  0.24182558  0.24593083  0.50350303  1
  Pb  Pb87  1  0.24129263  0.25422134  0.75602054  1
  Pb  Pb88  1  0.26114288  0.49468169  0.00417754  1
  Pb  Pb89  1  0.25512786  0.49409537  0.23993481  1
  Pb  Pb90  1  0.24565469  0.49670286  0.49916847  1
  Pb  Pb91  1  0.25553494  0.50504860  0.75727538  1
  Pb  Pb92  1  0.25422267  0.75163979  -0.00007169  1
  Pb  Pb93  1  0.25128558  0.75135394  0.23733408  1
  Pb  Pb94  1  0.24911976  0.75807225  0.50442322  1
  Pb  Pb95  1  0.25021933  0.75222666  0.75423811  1
  Pb  Pb96  1  0.49858762  -0.00778350  0.00255792  1
  Pb  Pb97  1  0.50042371  -0.00217495  0.24518140  1
  Pb  Pb98  1  0.50073400  -0.00660546  0.50618494  1
  Pb  Pb99  1  0.50551358  -0.00821754  0.75098944  1
  Pb  Pb100  1  0.50155681  0.26103812  0.00660381  1
  Pb  Pb101  1  0.49810779  0.26070104  0.24990793  1
  Pb  Pb102  1  0.49784930  0.25299100  0.49501623  1
  Pb  Pb103  1  0.50106049  0.25121055  0.75066093  1
  Pb  Pb104  1  0.51188636  0.49929674  0.01095765  1
  Pb  Pb105  1  0.50252485  0.50001942  0.24013894  1
  Pb  Pb106  1  0.50486615  0.50250301  0.49260744  1
  Pb  Pb107  1  0.49381723  0.50714383  0.75549896  1
  Pb  Pb108  1  0.50193712  0.75684479  0.00685772  1
  Pb  Pb109  1  0.50322353  0.74427886  0.23770594  1
  Pb  Pb110  1  0.50321885  0.75826391  0.50500716  1
  Pb  Pb111  1  0.50572118  0.75376083  0.75264960  1
  Pb  Pb112  1  0.75681701  -0.00727575  0.00701594  1
  Pb  Pb113  1  0.76359399  -0.00138335  0.24730035  1
  Pb  Pb114  1  0.75031890  -0.00192484  0.49836059  1
  Pb  Pb115  1  0.75180699  0.00414807  0.75604163  1
  Pb  Pb116  1  0.75315657  0.25498049  0.00229029  1
  Pb  Pb117  1  0.75486303  0.25091965  0.24121380  1
  Pb  Pb118  1  0.75834728  0.25764768  0.50015817  1
  Pb  Pb119  1  0.76251530  0.24840195  0.75957296  1
  Pb  Pb120  1  0.74717099  0.50431912  0.01010997  1
  Pb  Pb121  1  0.74543257  0.50253934  0.24102102  1
  Pb  Pb122  1  0.74322530  0.50868323  0.49254161  1
  Pb  Pb123  1  0.75474847  0.49303512  0.75419398  1
  Pb  Pb124  1  0.75035933  0.74032986  0.00984857  1
  Pb  Pb125  1  0.75041214  0.74689716  0.24011883  1
  Pb  Pb126  1  0.74846521  0.74581717  0.49190444  1
  Pb  Pb127  1  0.74036536  0.75408948  0.75470107  1
  O  O128  1  0.13014110  0.00224511  0.15313822  1
  O  O129  1  0.12898813  0.00321171  0.41641696  1
  O  O130  1  0.12301315  0.00173814  0.67431880  1
  O  O131  1  0.13431726  0.00622707  0.91093052  1
  O  O132  1  0.12855774  0.24707386  0.15239804  1
  O  O133  1  0.12686435  0.24645285  0.41468361  1
  O  O134  1  0.12481346  0.24749116  0.67207974  1
  O  O135  1  0.13096508  0.24164365  0.91161834  1
  O  O136  1  0.12630686  0.50541586  0.15421433  1
  O  O137  1  0.12539313  0.49892820  0.41608975  1
  O  O138  1  0.12332679  0.50815344  0.66905928  1
  O  O139  1  0.12079700  0.50959429  0.91264596  1
  O  O140  1  0.12692188  0.74525018  0.15406315  1
  O  O141  1  0.12665091  0.75119902  0.41411063  1
  O  O142  1  0.12653954  0.74428522  0.67020424  1
  O  O143  1  0.12307982  0.74225583  0.91704649  1
  O  O144  1  0.37675138  0.00683113  0.16041057  1
  O  O145  1  0.37453712  0.00107830  0.42108769  1
  O  O146  1  0.38330595  0.00845407  0.66008706  1
  O  O147  1  0.38521971  0.00447255  0.90709212  1
  O  O148  1  0.37479029  0.24169537  0.16050560  1
  O  O149  1  0.37316254  0.24370283  0.41784739  1
  O  O150  1  0.37856876  0.25037353  0.66895292  1
  O  O151  1  0.38288999  0.25304834  0.91340923  1
  O  O152  1  0.37116905  0.50183877  0.15625447  1
  O  O153  1  0.36943735  0.50739054  0.41233082  1
  O  O154  1  0.37372924  0.50064239  0.66981926  1
  O  O155  1  0.37680463  0.49114979  0.91637114  1
  O  O156  1  0.37243331  0.74884103  0.15756267  1
  O  O157  1  0.37084000  0.74765426  0.41814372  1
  O  O158  1  0.37260252  0.74094338  0.66377193  1
  O  O159  1  0.37624372  0.75388627  0.90757807  1
  O  O160  1  0.61864070  0.00872102  0.16040348  1
  O  O161  1  0.62109043  0.00036452  0.41714440  1
  O  O162  1  0.62421323  0.00512717  0.66610114  1
  O  O163  1  0.61761838  0.00576967  0.90689534  1
  O  O164  1  0.62108721  0.23945175  0.16183529  1
  O  O165  1  0.62328504  0.24425832  0.41161274  1
  O  O166  1  0.62671307  0.25242252  0.67009176  1
  O  O167  1  0.62191518  0.25484832  0.91379519  1
  O  O168  1  0.62381436  0.49891913  0.16008101  1
  O  O169  1  0.62388378  0.49937051  0.41022187  1
  O  O170  1  0.62579533  0.49654535  0.66762537  1
  O  O171  1  0.62721321  0.49963067  0.91817125  1
  O  O172  1  0.62322248  0.75265638  0.15643601  1
  O  O173  1  0.62167876  0.75760337  0.40852183  1
  O  O174  1  0.62597163  0.74587019  0.66783285  1
  O  O175  1  0.62680933  0.74189873  0.91581557  1
  O  O176  1  0.87338722  0.00376046  0.15947749  1
  O  O177  1  0.87339442  0.00142093  0.41982417  1
  O  O178  1  0.87164520  -0.00241250  0.66804258  1
  O  O179  1  0.87076647  -0.00707107  0.91252317  1
  O  O180  1  0.87331370  0.24742860  0.15370386  1
  O  O181  1  0.87680050  0.25240704  0.41714875  1
  O  O182  1  0.87175013  0.24266941  0.66679932  1
  O  O183  1  0.86875240  0.24935158  0.91264230  1
  O  O184  1  0.87814353  0.49884015  0.15797971  1
  O  O185  1  0.87982109  0.49070820  0.40837700  1
  O  O186  1  0.87944646  0.50925083  0.66527673  1
  O  O187  1  0.87369748  0.50778075  0.91330682  1
  O  O188  1  0.87827307  0.75120988  0.15943128  1
  O  O189  1  0.87779197  0.75364369  0.41254136  1
  O  O190  1  0.87761187  0.75117215  0.66668896  1
  O  O191  1  0.87298362  0.74937125  0.91740398  1
  O  O192  1  0.00110508  0.12357297  0.14541941  1
  O  O193  1  0.00797071  0.12317625  0.41320061  1
  O  O194  1  -0.00919120  0.12106472  0.66604470  1
  O  O195  1  0.00118824  0.12121918  0.90566854  1
  O  O196  1  0.00201892  0.37329429  0.15494029  1
  O  O197  1  0.00042330  0.37126386  0.41791615  1
  O  O198  1  -0.00130367  0.37506112  0.67293062  1
  O  O199  1  -0.00083631  0.37460256  0.91288662  1
  O  O200  1  0.00978917  0.62586038  0.15889270  1
  O  O201  1  0.00598343  0.62470870  0.41505983  1
  O  O202  1  0.00142188  0.62977392  0.66724081  1
  O  O203  1  -0.00421311  0.62820377  0.91418893  1
  O  O204  1  0.00396137  0.87736644  0.15497381  1
  O  O205  1  0.00633945  0.87944953  0.41343181  1
  O  O206  1  -0.00788490  0.87605437  0.66978133  1
  O  O207  1  -0.00811813  0.87402358  0.91421487  1
  O  O208  1  0.25843051  0.12408888  0.15439755  1
  O  O209  1  0.24742322  0.12441919  0.41873893  1
  O  O210  1  0.25969128  0.12699672  0.66684340  1
  O  O211  1  0.26772261  0.12748063  0.91198122  1
  O  O212  1  0.24772179  0.37314366  0.15977858  1
  O  O213  1  0.24579922  0.37373855  0.41676572  1
  O  O214  1  0.25537070  0.37561565  0.66736748  1
  O  O215  1  0.25769100  0.37284316  0.90956354  1
  O  O216  1  0.24367880  0.62554523  0.15706399  1
  O  O217  1  0.24907788  0.62646344  0.42061490  1
  O  O218  1  0.24874925  0.62222806  0.66840042  1
  O  O219  1  0.24371720  0.62512819  0.90965370  1
  O  O220  1  0.25085221  0.87641063  0.15815427  1
  O  O221  1  0.24858741  0.87568724  0.42063950  1
  O  O222  1  0.25213268  0.87463819  0.66914750  1
  O  O223  1  0.26123518  0.87815729  0.91126619  1
  O  O224  1  0.49693738  0.12538794  0.16220745  1
  O  O225  1  0.50224412  0.12362796  0.41603146  1
  O  O226  1  0.50074248  0.13073346  0.66798258  1
  O  O227  1  0.50235255  0.13130793  0.91861031  1
  O  O228  1  0.49767428  0.37023177  0.16125086  1
  O  O229  1  0.49726932  0.37362329  0.41248529  1
  O  O230  1  0.49973077  0.37617345  0.66835803  1
  O  O231  1  0.50308333  0.37793672  0.91723542  1
  O  O232  1  0.49712216  0.62469459  0.15353416  1
  O  O233  1  0.49012638  0.62692176  0.40973528  1
  O  O234  1  0.49388955  0.62112687  0.66257607  1
  O  O235  1  0.50789649  0.62045794  0.91342622  1
  O  O236  1  0.49954492  0.87885873  0.16391734  1
  O  O237  1  0.50085686  0.87666873  0.41772234  1
  O  O238  1  0.49826174  0.87223149  0.66943707  1
  O  O239  1  0.49500832  0.87342903  0.91365401  1
  O  O240  1  0.74158221  0.12435497  0.15269086  1
  O  O241  1  0.74122523  0.12361713  0.41536833  1
  O  O242  1  0.75097481  0.12307327  0.67013028  1
  O  O243  1  0.73479498  0.12673205  0.91535979  1
  O  O244  1  0.75123041  0.37136620  0.15881373  1
  O  O245  1  0.75543573  0.37113729  0.40793169  1
  O  O246  1  0.74751622  0.37701269  0.66802591  1
  O  O247  1  0.74199958  0.37721708  0.91519159  1
  O  O248  1  0.75064631  0.62585044  0.15949641  1
  O  O249  1  0.75244553  0.62584967  0.40894716  1
  O  O250  1  0.75939998  0.62610240  0.66442648  1
  O  O251  1  0.75187640  0.62500539  0.91786829  1
  O  O252  1  0.74637843  0.87925855  0.15742711  1
  O  O253  1  0.74183248  0.87865786  0.40926261  1
  O  O254  1  0.75684619  0.87317458  0.66665012  1
  O  O255  1  0.75444572  0.87208483  0.91493375  1
  O  O256  1  0.13477676  0.12280310  0.01745563  1
  O  O257  1  0.12708694  0.12451135  0.30121180  1
  O  O258  1  0.13019615  0.12188824  0.54031485  1
  O  O259  1  0.13066003  0.12430869  0.80357115  1
  O  O260  1  0.12794471  0.37327497  0.02119151  1
  O  O261  1  0.12330447  0.37387153  0.29804121  1
  O  O262  1  0.11599798  0.37490915  0.54269067  1
  O  O263  1  0.12195642  0.37217042  0.79241553  1
  O  O264  1  0.12562033  0.62481389  0.03909602  1
  O  O265  1  0.12869803  0.62339088  0.29682300  1
  O  O266  1  0.12321538  0.62444249  0.55362528  1
  O  O267  1  0.12329590  0.62878488  0.79816286  1
  O  O268  1  0.13261667  0.87779262  0.02066254  1
  O  O269  1  0.12936445  0.87808050  0.29724508  1
  O  O270  1  0.12494230  0.88087330  0.54180582  1
  O  O271  1  0.12739954  0.87153104  0.79654843  1
  O  O272  1  0.38153099  0.12529945  0.04224685  1
  O  O273  1  0.37198082  0.12233624  0.29984954  1
  O  O274  1  0.37466005  0.12988496  0.55157094  1
  O  O275  1  0.38292496  0.12819763  0.79792789  1
  O  O276  1  0.37203730  0.37083141  0.03194409  1
  O  O277  1  0.36830214  0.36972396  0.28403124  1
  O  O278  1  0.37579169  0.37506093  0.54965138  1
  O  O279  1  0.38129753  0.37568837  0.80194080  1
  O  O280  1  0.36679257  0.62491351  0.02097767  1
  O  O281  1  0.36651428  0.63021005  0.29922396  1
  O  O282  1  0.37138589  0.62114907  0.55236984  1
  O  O283  1  0.37549060  0.61343801  0.79426834  1
  O  O284  1  0.38443745  0.87427159  0.02967097  1
  O  O285  1  0.37167189  0.87728937  0.30461147  1
  O  O286  1  0.38001241  0.86921978  0.53579711  1
  O  O287  1  0.37917320  0.87457839  0.79685958  1
  O  O288  1  0.62016058  0.12404156  0.04232281  1
  O  O289  1  0.62454337  0.12267679  0.29935710  1
  O  O290  1  0.62690328  0.12996358  0.55066968  1
  O  O291  1  0.62062930  0.12823154  0.79871802  1
  O  O292  1  0.61973200  0.37516039  0.03553583  1
  O  O293  1  0.62100489  0.36987895  0.27900335  1
  O  O294  1  0.62540494  0.37568640  0.55005784  1
  O  O295  1  0.62452937  0.37845810  0.80339509  1
  O  O296  1  0.63212479  0.61851341  0.03154358  1
  O  O297  1  0.62266131  0.62570966  0.28046174  1
  O  O298  1  0.62966710  0.62007979  0.53517877  1
  O  O299  1  0.62984901  0.62239320  0.80431274  1
  O  O300  1  0.61504469  0.87717540  0.02543472  1
  O  O301  1  0.61894450  0.88312191  0.29894708  1
  O  O302  1  0.61778760  0.87451776  0.53900166  1
  O  O303  1  0.62292528  0.86690701  0.79301112  1
  O  O304  1  0.86897393  0.11465843  0.02119330  1
  O  O305  1  0.87379438  0.12167897  0.28585646  1
  O  O306  1  0.87110681  0.12458988  0.55359183  1
  O  O307  1  0.86235106  0.11913046  0.79294565  1
  O  O308  1  0.87644025  0.37322965  0.02413875  1
  O  O309  1  0.87983334  0.36750723  0.29746038  1
  O  O310  1  0.87999252  0.36770813  0.54133189  1
  O  O311  1  0.86975959  0.37952390  0.79006636  1
  O  O312  1  0.87606289  0.63051851  0.03369380  1
  O  O313  1  0.88505158  0.62794356  0.27955170  1
  O  O314  1  0.87703407  0.62705116  0.55072742  1
  O  O315  1  0.87378319  0.62888599  0.80329463  1
  O  O316  1  0.87612890  0.88354687  0.03285830  1
  O  O317  1  0.87827954  0.88373896  0.28129522  1
  O  O318  1  0.87503538  0.87343924  0.55157082  1
  O  O319  1  0.87294776  0.87181493  0.80085799  1
