# generated using pymatgen
data_VFe(PbO3)2
_symmetry_space_group_name_H-M   'P 1'
_cell_length_a   15.38546368
_cell_length_b   15.38399462
_cell_length_c   18.54055584
_cell_angle_alpha   90.02344569
_cell_angle_beta   90.02844916
_cell_angle_gamma   89.99300034
_symmetry_Int_Tables_number   1
_chemical_formula_structural   VFe(PbO3)2
_chemical_formula_sum   'V32 Fe32 Pb64 O192'
_cell_volume   4388.36118964
_cell_formula_units_Z   32
loop_
 _symmetry_equiv_pos_site_id
 _symmetry_equiv_pos_as_xyz
  1  'x, y, z'
loop_
 _atom_site_type_symbol
 _atom_site_label
 _atom_site_symmetry_multiplicity
 _atom_site_fract_x
 _atom_site_fract_y
 _atom_site_fract_z
 _atom_site_occupancy
  V  V0  1  0.37354365  0.37432619  0.13845017  1
  V  V1  1  0.37684641  0.37108225  0.39533344  1
  V  V2  1  0.87791003  0.62460582  0.63662495  1
  V  V3  1  0.37608749  0.62704920  0.88769684  1
  V  V4  1  0.62428529  0.88318916  0.13852941  1
  V  V5  1  0.87394972  0.87190227  0.89097196  1
  V  V6  1  0.62262666  0.12675037  0.39241114  1
  V  V7  1  0.12371202  0.12365245  0.63919471  1
  V  V8  1  0.62398124  0.63133757  0.88860333  1
  V  V9  1  0.62412661  0.62675565  0.63565214  1
  V  V10  1  0.37337430  0.12411419  0.64439799  1
  V  V11  1  0.62477246  0.12336151  0.64261759  1
  V  V12  1  0.87533253  0.36869458  0.63898840  1
  V  V13  1  0.87525501  0.37477612  0.14015243  1
  V  V14  1  0.12631888  0.37516717  0.14002444  1
  V  V15  1  0.62573355  0.37361238  0.39322261  1
  V  V16  1  0.62768438  0.87429822  0.89134857  1
  V  V17  1  0.87492290  0.37450024  0.88392878  1
  V  V18  1  0.62701279  0.62354087  0.39327979  1
  V  V19  1  0.37453170  0.62069063  0.14210729  1
  V  V20  1  0.87500016  0.62651572  0.89285071  1
  V  V21  1  0.87208771  0.87345203  0.38955948  1
  V  V22  1  0.87410428  0.62175389  0.39056034  1
  V  V23  1  0.12486427  0.62257546  0.14444919  1
  V  V24  1  0.12540913  0.12563587  0.13843831  1
  V  V25  1  0.37720184  0.12564039  0.39025515  1
  V  V26  1  0.62391804  0.13751502  0.13414486  1
  V  V27  1  0.62495962  0.87611378  0.39344635  1
  V  V28  1  0.37766741  0.87068550  0.89154451  1
  V  V29  1  0.37346671  0.87445054  0.63683252  1
  V  V30  1  0.62606112  0.62281135  0.14029770  1
  V  V31  1  0.12695372  0.62615294  0.63365432  1
  Fe  Fe32  1  0.12615978  0.62915035  0.88579863  1
  Fe  Fe33  1  0.87067993  0.37432450  0.38689877  1
  Fe  Fe34  1  0.62369828  0.38120120  0.13185474  1
  Fe  Fe35  1  0.12296112  0.37214143  0.38638922  1
  Fe  Fe36  1  0.37436482  0.37671032  0.64366975  1
  Fe  Fe37  1  0.37728223  0.87433014  0.14405296  1
  Fe  Fe38  1  0.12227018  0.37484210  0.64053020  1
  Fe  Fe39  1  0.62330149  0.87663481  0.63190297  1
  Fe  Fe40  1  0.87337963  0.12214263  0.88171856  1
  Fe  Fe41  1  0.12607624  0.87162068  0.88637227  1
  Fe  Fe42  1  0.87360615  0.87278490  0.13709026  1
  Fe  Fe43  1  0.37617048  0.12350844  0.88392483  1
  Fe  Fe44  1  0.87665545  0.87474781  0.63240376  1
  Fe  Fe45  1  0.12339210  0.62352951  0.38301697  1
  Fe  Fe46  1  0.87162061  0.12514648  0.38447786  1
  Fe  Fe47  1  0.87545173  0.12255304  0.63790182  1
  Fe  Fe48  1  0.87558720  0.12552567  0.14056275  1
  Fe  Fe49  1  0.37439118  0.37789211  0.87511647  1
  Fe  Fe50  1  0.12254160  0.37767049  0.88051513  1
  Fe  Fe51  1  0.37429625  0.12703130  0.13178922  1
  Fe  Fe52  1  0.62837463  0.37449064  0.64792476  1
  Fe  Fe53  1  0.37838192  0.62188407  0.39453834  1
  Fe  Fe54  1  0.62712284  0.12255798  0.88343172  1
  Fe  Fe55  1  0.12618671  0.87577204  0.37755686  1
  Fe  Fe56  1  0.37859652  0.87626409  0.37889040  1
  Fe  Fe57  1  0.12589008  0.87701287  0.63560631  1
  Fe  Fe58  1  0.12334537  0.12296777  0.88354281  1
  Fe  Fe59  1  0.62688987  0.37875915  0.87848163  1
  Fe  Fe60  1  0.12465480  0.87430300  0.14301930  1
  Fe  Fe61  1  0.12409087  0.12620678  0.38230263  1
  Fe  Fe62  1  0.87613773  0.62244039  0.13497477  1
  Fe  Fe63  1  0.37415133  0.62722185  0.62538278  1
  Pb  Pb64  1  0.00325052  -0.00094268  -0.00228596  1
  Pb  Pb65  1  0.00279728  0.00047480  0.24710515  1
  Pb  Pb66  1  -0.00211140  0.00013385  0.49417913  1
  Pb  Pb67  1  -0.00042761  -0.00094792  0.74608299  1
  Pb  Pb68  1  -0.00010351  0.24331417  -0.00568028  1
  Pb  Pb69  1  0.00675395  0.24947548  0.25518649  1
  Pb  Pb70  1  -0.00194682  0.24621169  0.49302834  1
  Pb  Pb71  1  0.01220007  0.24544508  0.75458257  1
  Pb  Pb72  1  -0.00367861  0.50569391  -0.00184158  1
  Pb  Pb73  1  0.00719941  0.49513710  0.25403914  1
  Pb  Pb74  1  0.01055239  0.48700935  0.50016099  1
  Pb  Pb75  1  0.00708633  0.50447188  0.75078818  1
  Pb  Pb76  1  0.00510906  0.75922803  0.00732016  1
  Pb  Pb77  1  0.00468572  0.75151931  0.24916050  1
  Pb  Pb78  1  0.00624031  0.75962612  0.49662746  1
  Pb  Pb79  1  0.00827912  0.75318197  0.74956217  1
  Pb  Pb80  1  0.25168960  0.00132662  -0.00192265  1
  Pb  Pb81  1  0.25067698  -0.00491265  0.24615351  1
  Pb  Pb82  1  0.23883282  -0.01105369  0.49468411  1
  Pb  Pb83  1  0.24987131  0.00705945  0.75526153  1
  Pb  Pb84  1  0.25340600  0.24833542  -0.01340157  1
  Pb  Pb85  1  0.24035679  0.24973243  0.25322934  1
  Pb  Pb86  1  0.24410026  0.25654748  0.50470561  1
  Pb  Pb87  1  0.24810756  0.25296740  0.75211260  1
  Pb  Pb88  1  0.24671201  0.49811320  -0.00963046  1
  Pb  Pb89  1  0.24939921  0.50871410  0.26009745  1
  Pb  Pb90  1  0.25057518  0.50095218  0.49818898  1
  Pb  Pb91  1  0.25167307  0.49626415  0.74403544  1
  Pb  Pb92  1  0.24506826  0.76148484  0.00773648  1
  Pb  Pb93  1  0.25184642  0.75405380  0.25345137  1
  Pb  Pb94  1  0.25225274  0.74925378  0.48654288  1
  Pb  Pb95  1  0.23793159  0.75031511  0.75094562  1
  Pb  Pb96  1  0.49078581  0.00420914  0.00245105  1
  Pb  Pb97  1  0.49481432  -0.00218969  0.24924904  1
  Pb  Pb98  1  0.50491121  -0.00283776  0.50128112  1
  Pb  Pb99  1  0.49825364  0.00763928  0.75429336  1
  Pb  Pb100  1  0.49994322  0.25163748  -0.01547516  1
  Pb  Pb101  1  0.49859256  0.25418879  0.24661805  1
  Pb  Pb102  1  0.49986397  0.25945964  0.51332558  1
  Pb  Pb103  1  0.49974748  0.25543556  0.75328802  1
  Pb  Pb104  1  0.50507673  0.49365599  -0.00616268  1
  Pb  Pb105  1  0.49467333  0.50428719  0.25513890  1
  Pb  Pb106  1  0.49666444  0.48840329  0.51312422  1
  Pb  Pb107  1  0.49632918  0.49492416  0.74760530  1
  Pb  Pb108  1  0.49540783  0.75616046  0.00736824  1
  Pb  Pb109  1  0.49206155  0.74399876  0.25545593  1
  Pb  Pb110  1  0.49791389  0.74996676  0.49730835  1
  Pb  Pb111  1  0.49650220  0.75079989  0.74388737  1
  Pb  Pb112  1  0.76426455  0.00644607  0.00573849  1
  Pb  Pb113  1  0.75659774  0.00739224  0.25204021  1
  Pb  Pb114  1  0.76159759  0.00025848  0.50749754  1
  Pb  Pb115  1  0.75218563  0.00178442  0.74831109  1
  Pb  Pb116  1  0.74734877  0.24790486  -0.00671255  1
  Pb  Pb117  1  0.76210037  0.25293706  0.25482637  1
  Pb  Pb118  1  0.75421152  0.24434510  0.50319034  1
  Pb  Pb119  1  0.74774373  0.23524738  0.75673182  1
  Pb  Pb120  1  0.74666226  0.50085472  -0.00060795  1
  Pb  Pb121  1  0.75589579  0.49192996  0.25061166  1
  Pb  Pb122  1  0.74273756  0.49342106  0.50653935  1
  Pb  Pb123  1  0.74820315  0.50054681  0.75094025  1
  Pb  Pb124  1  0.75887551  0.74950731  0.00714591  1
  Pb  Pb125  1  0.75163051  0.74618427  0.24852557  1
  Pb  Pb126  1  0.75089605  0.75757024  0.50414777  1
  Pb  Pb127  1  0.75178748  0.75444921  0.74326186  1
  O  O128  1  0.12495301  0.00809606  0.15894535  1
  O  O129  1  0.12568742  0.00082442  0.40948758  1
  O  O130  1  0.12818596  0.00613335  0.66311095  1
  O  O131  1  0.12311070  -0.00441809  0.91476280  1
  O  O132  1  0.12539458  0.25081275  0.16438422  1
  O  O133  1  0.12848339  0.24830523  0.41870128  1
  O  O134  1  0.12547058  0.24342937  0.66334017  1
  O  O135  1  0.12041519  0.25246327  0.91258871  1
  O  O136  1  0.12653992  0.49795700  0.16877062  1
  O  O137  1  0.12394853  0.49800449  0.41415443  1
  O  O138  1  0.11952376  0.50901670  0.66042288  1
  O  O139  1  0.12186377  0.50425215  0.91406183  1
  O  O140  1  0.12745909  0.73983141  0.16400341  1
  O  O141  1  0.12172195  0.75080828  0.40823293  1
  O  O142  1  0.12433630  0.74474791  0.65941061  1
  O  O143  1  0.12514117  0.74966280  0.92302664  1
  O  O144  1  0.37976469  0.00432877  0.16615554  1
  O  O145  1  0.38452287  0.00971227  0.40694399  1
  O  O146  1  0.37476462  -0.00091119  0.66696152  1
  O  O147  1  0.37886377  -0.01127935  0.91260040  1
  O  O148  1  0.37781187  0.25560054  0.16134313  1
  O  O149  1  0.38249789  0.25054470  0.42344510  1
  O  O150  1  0.37556871  0.24065649  0.66458239  1
  O  O151  1  0.37532989  0.25202982  0.90361663  1
  O  O152  1  0.37301618  0.49493591  0.17060234  1
  O  O153  1  0.38153738  0.48821584  0.41502911  1
  O  O154  1  0.37495002  0.50721137  0.66177010  1
  O  O155  1  0.37628904  0.51001187  0.90615232  1
  O  O156  1  0.37758136  0.74156086  0.16725445  1
  O  O157  1  0.38048452  0.75128717  0.40925444  1
  O  O158  1  0.37627131  0.75522181  0.65644541  1
  O  O159  1  0.37925339  0.75031515  0.91967940  1
  O  O160  1  0.62271078  -0.00257372  0.15405383  1
  O  O161  1  0.61999382  0.00546149  0.41446280  1
  O  O162  1  0.62207981  0.00380898  0.66364415  1
  O  O163  1  0.62536518  -0.01234025  0.91185649  1
  O  O164  1  0.62221428  0.25250316  0.15471309  1
  O  O165  1  0.62506361  0.24748135  0.41835442  1
  O  O166  1  0.62433156  0.24243279  0.66515282  1
  O  O167  1  0.62935116  0.25264896  0.90579555  1
  O  O168  1  0.62283829  0.50427315  0.16818130  1
  O  O169  1  0.62888898  0.50240439  0.41651565  1
  O  O170  1  0.62834607  0.51227548  0.66500389  1
  O  O171  1  0.62660682  0.50951241  0.91192134  1
  O  O172  1  0.62155523  0.73822179  0.16540763  1
  O  O173  1  0.62675292  0.74683971  0.41485329  1
  O  O174  1  0.62522950  0.74538705  0.66147648  1
  O  O175  1  0.62430831  0.75173292  0.92222853  1
  O  O176  1  0.86869209  -0.00085461  0.16762549  1
  O  O177  1  0.86831695  -0.00652314  0.40974288  1
  O  O178  1  0.87555479  -0.00100803  0.66527064  1
  O  O179  1  0.87110437  -0.01015082  0.91045529  1
  O  O180  1  0.87216663  0.25599397  0.16350154  1
  O  O181  1  0.86670139  0.24890536  0.41565311  1
  O  O182  1  0.87283616  0.25455436  0.65524766  1
  O  O183  1  0.87342590  0.25792062  0.90501004  1
  O  O184  1  0.87703255  0.49478549  0.16641680  1
  O  O185  1  0.86758224  0.50753181  0.41175116  1
  O  O186  1  0.87606211  0.50965249  0.66594505  1
  O  O187  1  0.87379698  0.50521325  0.91155300  1
  O  O188  1  0.87173433  0.74629061  0.16743055  1
  O  O189  1  0.86915678  0.75119763  0.41467386  1
  O  O190  1  0.87463265  0.74258420  0.66149846  1
  O  O191  1  0.87034117  0.74975436  0.91713136  1
  O  O192  1  0.00547251  0.12862350  0.16239415  1
  O  O193  1  -0.00273767  0.12424966  0.40813918  1
  O  O194  1  0.00621090  0.12449773  0.65815490  1
  O  O195  1  -0.00424637  0.12250446  0.91404643  1
  O  O196  1  -0.00133066  0.37413899  0.16318799  1
  O  O197  1  -0.00441084  0.37374322  0.41309459  1
  O  O198  1  -0.00979566  0.37968386  0.66488724  1
  O  O199  1  -0.00996597  0.38098147  0.91306032  1
  O  O200  1  0.00629382  0.61973004  0.16287392  1
  O  O201  1  -0.01150609  0.62837736  0.41064384  1
  O  O202  1  -0.00128944  0.62771469  0.65978572  1
  O  O203  1  -0.00807377  0.62893757  0.91429060  1
  O  O204  1  -0.00181057  0.87405708  0.16645808  1
  O  O205  1  -0.00909714  0.87484421  0.40530929  1
  O  O206  1  0.00160549  0.87383613  0.66421441  1
  O  O207  1  -0.00905132  0.86940616  0.91164160  1
  O  O208  1  0.24509490  0.12895140  0.15956338  1
  O  O209  1  0.26322627  0.13026590  0.41004597  1
  O  O210  1  0.25121875  0.12331236  0.66524080  1
  O  O211  1  0.24995982  0.12054356  0.91296955  1
  O  O212  1  0.25439884  0.37405527  0.16390145  1
  O  O213  1  0.25918867  0.37109055  0.41217384  1
  O  O214  1  0.24708121  0.37526939  0.66368431  1
  O  O215  1  0.24980471  0.38023006  0.90667160  1
  O  O216  1  0.24889547  0.61919268  0.16934717  1
  O  O217  1  0.24977861  0.62099794  0.41175248  1
  O  O218  1  0.24327078  0.62625181  0.65223502  1
  O  O219  1  0.25961098  0.63023546  0.91181360  1
  O  O220  1  0.25131640  0.87356115  0.16575204  1
  O  O221  1  0.25385935  0.87772801  0.40465459  1
  O  O222  1  0.25757562  0.87698050  0.66254720  1
  O  O223  1  0.25912312  0.87040769  0.91324891  1
  O  O224  1  0.50955112  0.12604642  0.16318076  1
  O  O225  1  0.50309314  0.13005448  0.42173010  1
  O  O226  1  0.49866339  0.12233543  0.66539014  1
  O  O227  1  0.50250837  0.12096342  0.91062493  1
  O  O228  1  0.49268251  0.37808687  0.16334290  1
  O  O229  1  0.50334261  0.37275289  0.42338372  1
  O  O230  1  0.50188052  0.37516382  0.66768806  1
  O  O231  1  0.50028875  0.38130444  0.90404448  1
  O  O232  1  0.50034775  0.61847603  0.16797464  1
  O  O233  1  0.51171957  0.62307217  0.41527880  1
  O  O234  1  0.50603045  0.62833934  0.65513161  1
  O  O235  1  0.49739482  0.62941569  0.91468582  1
  O  O236  1  0.51146965  0.86944011  0.16990922  1
  O  O237  1  0.50332400  0.87614812  0.41496184  1
  O  O238  1  0.49305543  0.87660305  0.66397021  1
  O  O239  1  0.50164920  0.86927053  0.91640417  1
  O  O240  1  0.73606522  0.12500122  0.16471477  1
  O  O241  1  0.73934094  0.12296775  0.41575973  1
  O  O242  1  0.74412841  0.12367020  0.66247413  1
  O  O243  1  0.75159470  0.12253991  0.91637498  1
  O  O244  1  0.75424538  0.37844026  0.16064131  1
  O  O245  1  0.74445832  0.37601543  0.42042059  1
  O  O246  1  0.76055771  0.38294724  0.66640260  1
  O  O247  1  0.75800011  0.38290980  0.90899354  1
  O  O248  1  0.74392934  0.62050190  0.16200300  1
  O  O249  1  0.74846854  0.62792480  0.42057558  1
  O  O250  1  0.75116992  0.62744388  0.66026052  1
  O  O251  1  0.75108105  0.62849649  0.91513239  1
  O  O252  1  0.73752012  0.86862903  0.16660091  1
  O  O253  1  0.74939732  0.87407037  0.41821786  1
  O  O254  1  0.74872997  0.87270703  0.66081720  1
  O  O255  1  0.74761524  0.86819625  0.91400932  1
  O  O256  1  0.12180637  0.12952027  0.04725182  1
  O  O257  1  0.12625037  0.13550864  0.28229176  1
  O  O258  1  0.13023187  0.12392620  0.54820334  1
  O  O259  1  0.12359698  0.12811046  0.78321240  1
  O  O260  1  0.12619211  0.37769350  0.04952669  1
  O  O261  1  0.12315960  0.36638354  0.28534112  1
  O  O262  1  0.12066792  0.37558795  0.53992315  1
  O  O263  1  0.11589168  0.37466786  0.77948161  1
  O  O264  1  0.12891725  0.61951084  0.05348304  1
  O  O265  1  0.12307864  0.61614062  0.28319399  1
  O  O266  1  0.12061960  0.62515838  0.54262123  1
  O  O267  1  0.12537622  0.63427882  0.78581857  1
  O  O268  1  0.12405624  0.86726398  0.04132271  1
  O  O269  1  0.12389142  0.87441647  0.27651094  1
  O  O270  1  0.12533393  0.88039451  0.53538838  1
  O  O271  1  0.12810623  0.86184134  0.78572833  1
  O  O272  1  0.37820131  0.12077297  0.03247552  1
  O  O273  1  0.38473939  0.13520279  0.29939240  1
  O  O274  1  0.37292402  0.12063427  0.55412500  1
  O  O275  1  0.37388165  0.11321181  0.78339247  1
  O  O276  1  0.37337287  0.37928571  0.04794250  1
  O  O277  1  0.38356417  0.36449643  0.30454273  1
  O  O278  1  0.38395944  0.37316250  0.54169847  1
  O  O279  1  0.37450222  0.37905795  0.77425045  1
  O  O280  1  0.37435204  0.61851449  0.05171332  1
  O  O281  1  0.38103698  0.61497816  0.29247672  1
  O  O282  1  0.37646932  0.62374357  0.52514755  1
  O  O283  1  0.37855927  0.63466410  0.79692503  1
  O  O284  1  0.38480012  0.87243403  0.04341389  1
  O  O285  1  0.38283984  0.87567807  0.27798117  1
  O  O286  1  0.37490700  0.88039360  0.54598529  1
  O  O287  1  0.38010602  0.86627555  0.80088374  1
  O  O288  1  0.62613450  0.13209303  0.04287253  1
  O  O289  1  0.61994792  0.12918520  0.30154387  1
  O  O290  1  0.62293097  0.12265013  0.55162812  1
  O  O291  1  0.63284370  0.12037134  0.78315687  1
  O  O292  1  0.62443408  0.38803250  0.03297764  1
  O  O293  1  0.62301562  0.37287571  0.30207876  1
  O  O294  1  0.62588682  0.38107094  0.54678272  1
  O  O295  1  0.62967442  0.38317706  0.77719335  1
  O  O296  1  0.62310353  0.62124417  0.04929567  1
  O  O297  1  0.62959488  0.62194147  0.30231644  1
  O  O298  1  0.62841351  0.62452554  0.54473501  1
  O  O299  1  0.62343576  0.63460173  0.79753231  1
  O  O300  1  0.62207679  0.87263187  0.04785011  1
  O  O301  1  0.62794912  0.87650601  0.30248060  1
  O  O302  1  0.61989044  0.87532319  0.53256328  1
  O  O303  1  0.62525385  0.86860018  0.80046626  1
  O  O304  1  0.86887823  0.12187224  0.04056160  1
  O  O305  1  0.86155301  0.12702864  0.28292427  1
  O  O306  1  0.86745655  0.11866380  0.53707754  1
  O  O307  1  0.86721681  0.12391594  0.78089662  1
  O  O308  1  0.87645492  0.37604191  0.04938018  1
  O  O309  1  0.86372355  0.37307812  0.28689366  1
  O  O310  1  0.87358826  0.37864339  0.54768045  1
  O  O311  1  0.87687233  0.37845110  0.79335995  1
  O  O312  1  0.87288060  0.62302955  0.03576501  1
  O  O313  1  0.86875580  0.62480835  0.29942676  1
  O  O314  1  0.87784075  0.62206406  0.54625776  1
  O  O315  1  0.87424462  0.62957964  0.80201638  1
  O  O316  1  0.86810954  0.87174848  0.03678753  1
  O  O317  1  0.86366160  0.87023196  0.29873118  1
  O  O318  1  0.87549158  0.87732248  0.53196998  1
  O  O319  1  0.87072690  0.86737860  0.80014056  1
