# generated using pymatgen
data_VFe(PbO3)2
_symmetry_space_group_name_H-M   'P 1'
_cell_length_a   15.38213119
_cell_length_b   15.37353287
_cell_length_c   18.53635076
_cell_angle_alpha   89.97971247
_cell_angle_beta   90.00579879
_cell_angle_gamma   89.96903985
_symmetry_Int_Tables_number   1
_chemical_formula_structural   VFe(PbO3)2
_chemical_formula_sum   'V32 Fe32 Pb64 O192'
_cell_volume   4383.43264627
_cell_formula_units_Z   32
loop_
 _symmetry_equiv_pos_site_id
 _symmetry_equiv_pos_as_xyz
  1  'x, y, z'
loop_
 _atom_site_type_symbol
 _atom_site_label
 _atom_site_symmetry_multiplicity
 _atom_site_fract_x
 _atom_site_fract_y
 _atom_site_fract_z
 _atom_site_occupancy
  V  V0  1  0.37509177  0.87596107  0.14363192  1
  V  V1  1  0.87456068  0.62556455  0.63800645  1
  V  V2  1  0.87687589  0.12516367  0.88699875  1
  V  V3  1  0.62556683  0.12468063  0.38771415  1
  V  V4  1  0.37379079  0.12604905  0.38944175  1
  V  V5  1  0.87801487  0.87658634  0.39011022  1
  V  V6  1  0.62428730  0.62746751  0.14222956  1
  V  V7  1  0.37678155  0.37639192  0.63790050  1
  V  V8  1  0.62486751  0.12634805  0.63593262  1
  V  V9  1  0.87196101  0.87668943  0.89112572  1
  V  V10  1  0.62244553  0.37465231  0.63804979  1
  V  V11  1  0.37565075  0.37352273  0.88979806  1
  V  V12  1  0.12422142  0.87429319  0.14397614  1
  V  V13  1  0.87884934  0.12404780  0.14110570  1
  V  V14  1  0.62506436  0.62327237  0.63698036  1
  V  V15  1  0.62518672  0.12373976  0.89552699  1
  V  V16  1  0.37236797  0.87834436  0.88847323  1
  V  V17  1  0.62624423  0.37308862  0.14585824  1
  V  V18  1  0.37354618  0.37624056  0.14132755  1
  V  V19  1  0.62617186  0.87440030  0.38414209  1
  V  V20  1  0.37189022  0.12786750  0.14153809  1
  V  V21  1  0.37869585  0.12521521  0.64275949  1
  V  V22  1  0.37555685  0.62514066  0.89002363  1
  V  V23  1  0.37367039  0.37614839  0.38709673  1
  V  V24  1  0.12766706  0.62267708  0.14089038  1
  V  V25  1  0.12160548  0.12688137  0.39485553  1
  V  V26  1  0.62396317  0.87293598  0.63808558  1
  V  V27  1  0.12285759  0.62516623  0.38936154  1
  V  V28  1  0.12323049  0.87235950  0.88684705  1
  V  V29  1  0.87703526  0.37574735  0.38879996  1
  V  V30  1  0.87547622  0.37565213  0.13997483  1
  V  V31  1  0.62435413  0.38069699  0.89397569  1
  Fe  Fe32  1  0.12736662  0.12251930  0.88007556  1
  Fe  Fe33  1  0.62743671  0.62412938  0.38069887  1
  Fe  Fe34  1  0.87703868  0.62478252  0.14227659  1
  Fe  Fe35  1  0.87705022  0.87568613  0.13334295  1
  Fe  Fe36  1  0.12762039  0.12381091  0.13743196  1
  Fe  Fe37  1  0.12498203  0.87419570  0.62627538  1
  Fe  Fe38  1  0.12806495  0.62421715  0.63336042  1
  Fe  Fe39  1  0.87009625  0.12474070  0.62914444  1
  Fe  Fe40  1  0.87143195  0.37204863  0.88140327  1
  Fe  Fe41  1  0.37183319  0.62448281  0.14885919  1
  Fe  Fe42  1  0.62380134  0.12502915  0.13726885  1
  Fe  Fe43  1  0.62222962  0.87392052  0.89277649  1
  Fe  Fe44  1  0.37830239  0.87361035  0.62888511  1
  Fe  Fe45  1  0.12331683  0.37156978  0.13728068  1
  Fe  Fe46  1  0.87627339  0.62520155  0.37986535  1
  Fe  Fe47  1  0.38013003  0.62527950  0.63145186  1
  Fe  Fe48  1  0.87088643  0.37644895  0.63767415  1
  Fe  Fe49  1  0.12509733  0.62612775  0.88223228  1
  Fe  Fe50  1  0.87402738  0.12538477  0.39253944  1
  Fe  Fe51  1  0.37658263  0.12526789  0.88252353  1
  Fe  Fe52  1  0.37557699  0.87803640  0.39059433  1
  Fe  Fe53  1  0.37484644  0.62494017  0.37839699  1
  Fe  Fe54  1  0.12350309  0.37527698  0.88281355  1
  Fe  Fe55  1  0.62488917  0.37278595  0.38042486  1
  Fe  Fe56  1  0.12398310  0.12593051  0.63338185  1
  Fe  Fe57  1  0.87124380  0.87303343  0.63117018  1
  Fe  Fe58  1  0.12653907  0.37450633  0.39653805  1
  Fe  Fe59  1  0.12512821  0.37635642  0.62890611  1
  Fe  Fe60  1  0.87462489  0.62403989  0.88468194  1
  Fe  Fe61  1  0.62366613  0.62653808  0.88859941  1
  Fe  Fe62  1  0.62580939  0.87734637  0.13348335  1
  Fe  Fe63  1  0.12587319  0.87622145  0.39476155  1
  Pb  Pb64  1  -0.00244812  -0.00371891  -0.00082214  1
  Pb  Pb65  1  0.00596267  -0.00249947  0.25521528  1
  Pb  Pb66  1  0.00638455  0.00103133  0.50637535  1
  Pb  Pb67  1  0.00081306  0.00230476  0.73547032  1
  Pb  Pb68  1  0.01127349  0.25417605  -0.00373375  1
  Pb  Pb69  1  -0.00081418  0.24684344  0.25437305  1
  Pb  Pb70  1  -0.00943203  0.25395193  0.50787770  1
  Pb  Pb71  1  0.00013138  0.25429052  0.73816498  1
  Pb  Pb72  1  0.00094262  0.49720955  -0.00974165  1
  Pb  Pb73  1  -0.00145149  0.49995515  0.25212158  1
  Pb  Pb74  1  0.00475559  0.49980215  0.50333493  1
  Pb  Pb75  1  0.00917035  0.49401036  0.74786824  1
  Pb  Pb76  1  -0.00875543  0.74359936  0.00130150  1
  Pb  Pb77  1  -0.00218721  0.74863960  0.25210229  1
  Pb  Pb78  1  0.00807416  0.74954755  0.50237080  1
  Pb  Pb79  1  0.00337029  0.74802203  0.74156518  1
  Pb  Pb80  1  0.24499757  0.00777430  -0.00254756  1
  Pb  Pb81  1  0.24871118  -0.01107580  0.26051564  1
  Pb  Pb82  1  0.24529343  -0.00108391  0.50334657  1
  Pb  Pb83  1  0.24618416  0.00311048  0.74200270  1
  Pb  Pb84  1  0.23790752  0.24626786  -0.00113861  1
  Pb  Pb85  1  0.23811831  0.25339465  0.25533055  1
  Pb  Pb86  1  0.24276890  0.24775263  0.50569801  1
  Pb  Pb87  1  0.23733986  0.24946579  0.75007870  1
  Pb  Pb88  1  0.24575537  0.50044190  -0.00101313  1
  Pb  Pb89  1  0.24313622  0.49280713  0.25578673  1
  Pb  Pb90  1  0.24195278  0.50821520  0.50289789  1
  Pb  Pb91  1  0.23922720  0.50418990  0.74866692  1
  Pb  Pb92  1  0.25704499  0.74417348  0.00191685  1
  Pb  Pb93  1  0.25307886  0.75723933  0.25958047  1
  Pb  Pb94  1  0.25756383  0.75037380  0.49612442  1
  Pb  Pb95  1  0.25240362  0.74846473  0.73453589  1
  Pb  Pb96  1  0.50641250  -0.00098336  0.00512859  1
  Pb  Pb97  1  0.49625915  -0.00412507  0.25008951  1
  Pb  Pb98  1  0.49970128  -0.00486404  0.49966022  1
  Pb  Pb99  1  0.50341216  -0.00436542  0.75238098  1
  Pb  Pb100  1  0.50296513  0.24616785  0.00305292  1
  Pb  Pb101  1  0.50235214  0.25330027  0.25091250  1
  Pb  Pb102  1  0.50046448  0.25045997  0.49721048  1
  Pb  Pb103  1  0.49507515  0.24591223  0.75434665  1
  Pb  Pb104  1  0.49054628  0.50869913  0.00848619  1
  Pb  Pb105  1  0.50641867  0.50316403  0.25599938  1
  Pb  Pb106  1  0.49898693  0.50848043  0.49168775  1
  Pb  Pb107  1  0.50612165  0.50529562  0.74980178  1
  Pb  Pb108  1  0.50158488  0.75177685  0.00217873  1
  Pb  Pb109  1  0.49725800  0.74269808  0.25405438  1
  Pb  Pb110  1  0.48948347  0.74515606  0.49652342  1
  Pb  Pb111  1  0.50822010  0.75156557  0.75132465  1
  Pb  Pb112  1  0.74733197  -0.00497173  0.00624052  1
  Pb  Pb113  1  0.75187818  0.00037782  0.24570173  1
  Pb  Pb114  1  0.75738848  -0.00103909  0.50128226  1
  Pb  Pb115  1  0.74838335  -0.00520784  0.74605554  1
  Pb  Pb116  1  0.74566456  0.24394461  0.00286612  1
  Pb  Pb117  1  0.75802202  0.24369755  0.25440766  1
  Pb  Pb118  1  0.75940043  0.25418404  0.50310794  1
  Pb  Pb119  1  0.75468551  0.25431366  0.74817647  1
  Pb  Pb120  1  0.76059830  0.50850824  0.00097029  1
  Pb  Pb121  1  0.74307898  0.50176906  0.25389752  1
  Pb  Pb122  1  0.75034011  0.49840613  0.49153193  1
  Pb  Pb123  1  0.76035950  0.50337818  0.75542335  1
  Pb  Pb124  1  0.75265625  0.74620249  0.00241248  1
  Pb  Pb125  1  0.75438321  0.74815043  0.24512777  1
  Pb  Pb126  1  0.75463965  0.75171701  0.49496666  1
  Pb  Pb127  1  0.74754420  0.74018757  0.75579378  1
  O  O128  1  0.12636465  -0.00454444  0.16727552  1
  O  O129  1  0.12517594  0.00804680  0.41691887  1
  O  O130  1  0.12748668  -0.00047008  0.65838468  1
  O  O131  1  0.12761984  -0.00801178  0.91244967  1
  O  O132  1  0.12581803  0.24788018  0.16999286  1
  O  O133  1  0.12904741  0.24453658  0.41691299  1
  O  O134  1  0.12973320  0.25207481  0.65764474  1
  O  O135  1  0.12674616  0.24829744  0.91024004  1
  O  O136  1  0.12645327  0.50296608  0.16291552  1
  O  O137  1  0.12475114  0.50514507  0.41450710  1
  O  O138  1  0.12664725  0.49894346  0.66187098  1
  O  O139  1  0.12731229  0.50033237  0.91397459  1
  O  O140  1  0.12651042  0.75295844  0.16673943  1
  O  O141  1  0.12235073  0.74392830  0.41179119  1
  O  O142  1  0.12327021  0.74942948  0.65798903  1
  O  O143  1  0.12703600  0.75787316  0.91426032  1
  O  O144  1  0.37273139  -0.00127323  0.16554637  1
  O  O145  1  0.37775246  0.00859337  0.41660047  1
  O  O146  1  0.38239149  0.00702192  0.65913652  1
  O  O147  1  0.37393060  -0.00572087  0.91168617  1
  O  O148  1  0.37459047  0.24869530  0.16420863  1
  O  O149  1  0.37635597  0.24762999  0.41695908  1
  O  O150  1  0.38382936  0.25207469  0.66648780  1
  O  O151  1  0.38291909  0.25700475  0.91083330  1
  O  O152  1  0.37385043  0.49092683  0.16585080  1
  O  O153  1  0.37536793  0.49366131  0.40360248  1
  O  O154  1  0.38504299  0.49136753  0.65952377  1
  O  O155  1  0.37909005  0.49656144  0.91830893  1
  O  O156  1  0.37111429  0.75783661  0.16668589  1
  O  O157  1  0.37700166  0.74959210  0.40846896  1
  O  O158  1  0.38191258  0.75039699  0.66142292  1
  O  O159  1  0.37364198  0.75178424  0.91547836  1
  O  O160  1  0.62273010  0.00149699  0.16617249  1
  O  O161  1  0.62556728  0.00254343  0.41328595  1
  O  O162  1  0.62354022  -0.00165329  0.66105576  1
  O  O163  1  0.62362385  0.00476660  0.91712303  1
  O  O164  1  0.62383112  0.24988511  0.16857579  1
  O  O165  1  0.62119905  0.24425801  0.40841907  1
  O  O166  1  0.62198794  0.25316230  0.66249978  1
  O  O167  1  0.62354892  0.24822620  0.91891824  1
  O  O168  1  0.62428003  0.50000774  0.16653823  1
  O  O169  1  0.62545477  0.49624288  0.41078185  1
  O  O170  1  0.62160704  0.49577749  0.66106063  1
  O  O171  1  0.62416241  0.49529270  0.91669149  1
  O  O172  1  0.62375194  0.74590720  0.16066825  1
  O  O173  1  0.62831685  0.75903904  0.40436255  1
  O  O174  1  0.62132950  0.75258636  0.65997669  1
  O  O175  1  0.62198409  0.75011206  0.92113186  1
  O  O176  1  0.87853002  0.00628088  0.16256368  1
  O  O177  1  0.87146892  -0.00443665  0.41435675  1
  O  O178  1  0.86654047  -0.00081286  0.65978336  1
  O  O179  1  0.87443955  0.00197929  0.91702253  1
  O  O180  1  0.87540551  0.24998255  0.16720848  1
  O  O181  1  0.87483575  0.25544110  0.41570912  1
  O  O182  1  0.86766596  0.24893952  0.66309660  1
  O  O183  1  0.86754659  0.24006345  0.90986070  1
  O  O184  1  0.87609316  0.49263406  0.16233821  1
  O  O185  1  0.87584858  0.49448237  0.40945429  1
  O  O186  1  0.86481284  0.50759733  0.66081096  1
  O  O187  1  0.87054463  0.49665004  0.91224448  1
  O  O188  1  0.87896363  0.75117912  0.16585180  1
  O  O189  1  0.87104369  0.75699567  0.40887630  1
  O  O190  1  0.86829754  0.74378150  0.66325577  1
  O  O191  1  0.87634042  0.75941530  0.91198312  1
  O  O192  1  -0.00340369  0.12689116  0.16642248  1
  O  O193  1  0.00513205  0.12660906  0.41373731  1
  O  O194  1  -0.00373914  0.12562121  0.65502065  1
  O  O195  1  -0.00691190  0.12120563  0.90525634  1
  O  O196  1  -0.00675838  0.37212643  0.16518201  1
  O  O197  1  -0.00492205  0.37359931  0.41416350  1
  O  O198  1  -0.00154660  0.37651489  0.65582072  1
  O  O199  1  -0.00356991  0.37121006  0.90944506  1
  O  O200  1  0.01022144  0.62540044  0.16591498  1
  O  O201  1  0.00208107  0.62461272  0.41329427  1
  O  O202  1  -0.00929682  0.62366720  0.65614546  1
  O  O203  1  0.00029608  0.62809812  0.91266941  1
  O  O204  1  0.00645647  0.87684846  0.16618649  1
  O  O205  1  -0.00720214  0.87703801  0.41086212  1
  O  O206  1  -0.00274175  0.87317741  0.65881739  1
  O  O207  1  0.00231981  0.87818274  0.91116757  1
  O  O208  1  0.25740071  0.12379581  0.16720634  1
  O  O209  1  0.25213851  0.12527782  0.41592463  1
  O  O210  1  0.26152024  0.12826874  0.65854668  1
  O  O211  1  0.25270785  0.12398438  0.91295298  1
  O  O212  1  0.25517124  0.37227746  0.16639601  1
  O  O213  1  0.26016433  0.37197555  0.41696285  1
  O  O214  1  0.26205763  0.37316476  0.65621198  1
  O  O215  1  0.26064197  0.37583937  0.90947044  1
  O  O216  1  0.24082673  0.62691432  0.17058255  1
  O  O217  1  0.24479429  0.62473427  0.40727755  1
  O  O218  1  0.25559405  0.62189855  0.65763910  1
  O  O219  1  0.25404538  0.62480892  0.91721499  1
  O  O220  1  0.24874624  0.87644133  0.16989334  1
  O  O221  1  0.25078382  0.87738187  0.41626119  1
  O  O222  1  0.25296355  0.87615029  0.65287382  1
  O  O223  1  0.25227244  0.87348379  0.91302905  1
  O  O224  1  0.48994461  0.12411188  0.16664247  1
  O  O225  1  0.50218311  0.12454366  0.41415901  1
  O  O226  1  0.50378475  0.12652574  0.66932175  1
  O  O227  1  0.50438073  0.12505992  0.91634762  1
  O  O228  1  0.49482450  0.37170699  0.16549549  1
  O  O229  1  0.49242815  0.37081295  0.41051697  1
  O  O230  1  0.50428114  0.37327965  0.66881090  1
  O  O231  1  0.50415182  0.37516885  0.92159616  1
  O  O232  1  0.50476125  0.62382333  0.16514638  1
  O  O233  1  0.50150236  0.62347422  0.40672974  1
  O  O234  1  0.50616499  0.62308332  0.66546083  1
  O  O235  1  0.49566559  0.62394662  0.92130229  1
  O  O236  1  0.49307728  0.87578466  0.16255149  1
  O  O237  1  0.50991750  0.88143779  0.40849716  1
  O  O238  1  0.50668410  0.87777170  0.66477997  1
  O  O239  1  0.48927724  0.87461246  0.91706630  1
  O  O240  1  0.75732695  0.12697078  0.16318218  1
  O  O241  1  0.74098343  0.12561393  0.41069312  1
  O  O242  1  0.74109808  0.12512010  0.66340288  1
  O  O243  1  0.74809277  0.12204445  0.91899814  1
  O  O244  1  0.75545802  0.37266032  0.16645056  1
  O  O245  1  0.75478076  0.37315263  0.40861604  1
  O  O246  1  0.73795716  0.37504735  0.66220268  1
  O  O247  1  0.74042760  0.37009452  0.91774577  1
  O  O248  1  0.74436710  0.62247193  0.16333357  1
  O  O249  1  0.75250807  0.62435363  0.41020989  1
  O  O250  1  0.74491058  0.62708989  0.66516156  1
  O  O251  1  0.74939275  0.62805701  0.91940983  1
  O  O252  1  0.75134017  0.87685258  0.16129541  1
  O  O253  1  0.74619997  0.87964642  0.41119915  1
  O  O254  1  0.74008239  0.87287571  0.66384970  1
  O  O255  1  0.75580872  0.87950051  0.91269910  1
  O  O256  1  0.13128751  0.12679421  0.03771115  1
  O  O257  1  0.12503605  0.12625994  0.30279744  1
  O  O258  1  0.13006113  0.12201919  0.53278646  1
  O  O259  1  0.13333927  0.12320227  0.78000712  1
  O  O260  1  0.12351733  0.36604786  0.03747980  1
  O  O261  1  0.13393512  0.37577222  0.29526562  1
  O  O262  1  0.12957213  0.38132388  0.52649372  1
  O  O263  1  0.12881244  0.37930830  0.78219352  1
  O  O264  1  0.13084550  0.62615359  0.04992216  1
  O  O265  1  0.11964261  0.62207144  0.29797080  1
  O  O266  1  0.12222016  0.61917552  0.53254457  1
  O  O267  1  0.12764460  0.62056837  0.78226914  1
  O  O268  1  0.12716466  0.87331364  0.05354388  1
  O  O269  1  0.12677773  0.88285530  0.29322856  1
  O  O270  1  0.11604820  0.87727014  0.52399345  1
  O  O271  1  0.12457708  0.87186798  0.79642332  1
  O  O272  1  0.37278582  0.12580731  0.05046894  1
  O  O273  1  0.37425271  0.12673812  0.29865394  1
  O  O274  1  0.38553397  0.13149204  0.55195698  1
  O  O275  1  0.38145490  0.12674286  0.78359248  1
  O  O276  1  0.37355468  0.37506128  0.05049417  1
  O  O277  1  0.37049417  0.36938507  0.29582660  1
  O  O278  1  0.38364987  0.37125570  0.54726008  1
  O  O279  1  0.38222892  0.37833706  0.79932010  1
  O  O280  1  0.37106722  0.62274072  0.04841324  1
  O  O281  1  0.37814163  0.62915800  0.27644026  1
  O  O282  1  0.38442560  0.62647433  0.53095439  1
  O  O283  1  0.37832383  0.62245912  0.79927163  1
  O  O284  1  0.36932181  0.87680497  0.05295266  1
  O  O285  1  0.36953580  0.88085565  0.28911903  1
  O  O286  1  0.38819809  0.87286830  0.52818514  1
  O  O287  1  0.37493540  0.87680067  0.79769111  1
  O  O288  1  0.62321027  0.12710456  0.03728068  1
  O  O289  1  0.62314752  0.12150989  0.29654811  1
  O  O290  1  0.62224576  0.12712588  0.54490194  1
  O  O291  1  0.62789654  0.12557563  0.80489910  1
  O  O292  1  0.62525549  0.37369295  0.05485763  1
  O  O293  1  0.62151382  0.37760031  0.28058497  1
  O  O294  1  0.61902824  0.37390985  0.54707073  1
  O  O295  1  0.62242370  0.37810912  0.80326496  1
  O  O296  1  0.62354995  0.62350653  0.05093515  1
  O  O297  1  0.62444968  0.62091993  0.28029427  1
  O  O298  1  0.62509009  0.62316681  0.54578198  1
  O  O299  1  0.62204864  0.62983504  0.78857349  1
  O  O300  1  0.62109775  0.88375781  0.03280121  1
  O  O301  1  0.62689067  0.87891073  0.29302997  1
  O  O302  1  0.62280057  0.87395793  0.54719777  1
  O  O303  1  0.61662868  0.87521697  0.79282288  1
  O  O304  1  0.87966811  0.12733390  0.05033847  1
  O  O305  1  0.87379357  0.13108234  0.29242979  1
  O  O306  1  0.86665584  0.13077555  0.52699674  1
  O  O307  1  0.86763586  0.12087037  0.79685979  1
  O  O308  1  0.87417213  0.37112252  0.04938590  1
  O  O309  1  0.87862424  0.37262702  0.29731472  1
  O  O310  1  0.86818805  0.36918738  0.53687390  1
  O  O311  1  0.86388826  0.37434104  0.78099555  1
  O  O312  1  0.87387989  0.62885252  0.04142200  1
  O  O313  1  0.88162059  0.62362889  0.27943540  1
  O  O314  1  0.86918151  0.62769267  0.54684399  1
  O  O315  1  0.86347054  0.62605621  0.78489867  1
  O  O316  1  0.88397339  0.88005859  0.03361681  1
  O  O317  1  0.87527838  0.87906289  0.29845674  1
  O  O318  1  0.86400849  0.87216484  0.53161926  1
  O  O319  1  0.87346136  0.87990912  0.80058424  1
