# generated using pymatgen
data_VFe(PbO3)2
_symmetry_space_group_name_H-M   'P 1'
_cell_length_a   15.39524645
_cell_length_b   15.38253911
_cell_length_c   18.53529627
_cell_angle_alpha   89.97535499
_cell_angle_beta   89.92291891
_cell_angle_gamma   89.99773586
_symmetry_Int_Tables_number   1
_chemical_formula_structural   VFe(PbO3)2
_chemical_formula_sum   'V32 Fe32 Pb64 O192'
_cell_volume   4389.48705102
_cell_formula_units_Z   32
loop_
 _symmetry_equiv_pos_site_id
 _symmetry_equiv_pos_as_xyz
  1  'x, y, z'
loop_
 _atom_site_type_symbol
 _atom_site_label
 _atom_site_symmetry_multiplicity
 _atom_site_fract_x
 _atom_site_fract_y
 _atom_site_fract_z
 _atom_site_occupancy
  V  V0  1  0.61998706  0.12651184  0.13872631  1
  V  V1  1  0.62194086  0.62290787  0.13736964  1
  V  V2  1  0.12266772  0.37165304  0.88784960  1
  V  V3  1  0.62395804  0.62307557  0.64299937  1
  V  V4  1  0.12230940  0.62285538  0.89220263  1
  V  V5  1  0.37481679  0.12517361  0.39046303  1
  V  V6  1  0.37784665  0.62646886  0.38695492  1
  V  V7  1  0.36835807  0.13056568  0.13912951  1
  V  V8  1  0.86772052  0.12797352  0.14583891  1
  V  V9  1  0.62476999  0.37076058  0.64099609  1
  V  V10  1  0.12286966  0.12519382  0.38655679  1
  V  V11  1  0.62691415  0.87258352  0.63868273  1
  V  V12  1  0.11626569  0.12658891  0.14239560  1
  V  V13  1  0.87645536  0.12380682  0.88909564  1
  V  V14  1  0.12311188  0.87491621  0.89271313  1
  V  V15  1  0.62269490  0.12282523  0.88634101  1
  V  V16  1  0.87611701  0.87497826  0.89408963  1
  V  V17  1  0.11737167  0.62243882  0.14800941  1
  V  V18  1  0.37947259  0.37477681  0.39366202  1
  V  V19  1  0.62625331  0.37333933  0.13987775  1
  V  V20  1  0.37158707  0.62128678  0.13738402  1
  V  V21  1  0.12690051  0.87323576  0.63493569  1
  V  V22  1  0.86932081  0.62237885  0.14079804  1
  V  V23  1  0.12629667  0.62144263  0.63072238  1
  V  V24  1  0.37663923  0.37574034  0.13798806  1
  V  V25  1  0.11916347  0.12130600  0.88924542  1
  V  V26  1  0.37704499  0.87334633  0.63950228  1
  V  V27  1  0.62428045  0.12506473  0.39062334  1
  V  V28  1  0.12549057  0.12306883  0.63204814  1
  V  V29  1  0.87278482  0.62515973  0.38425120  1
  V  V30  1  0.62105181  0.86818517  0.38653818  1
  V  V31  1  0.37262599  0.87680155  0.89358203  1
  Fe  Fe32  1  0.37657159  0.62923862  0.64438879  1
  Fe  Fe33  1  0.62528136  0.87691524  0.89411310  1
  Fe  Fe34  1  0.62248871  0.37580231  0.38794975  1
  Fe  Fe35  1  0.87324285  0.12354879  0.38547094  1
  Fe  Fe36  1  0.87747196  0.37449265  0.88363573  1
  Fe  Fe37  1  0.12933111  0.87570569  0.37999114  1
  Fe  Fe38  1  0.87623134  0.37664574  0.14477359  1
  Fe  Fe39  1  0.12531366  0.37463628  0.62343202  1
  Fe  Fe40  1  0.87464466  0.87422065  0.14293599  1
  Fe  Fe41  1  0.37300815  0.37707807  0.63991801  1
  Fe  Fe42  1  0.37728272  0.87320645  0.13982229  1
  Fe  Fe43  1  0.87359239  0.62959100  0.63688268  1
  Fe  Fe44  1  0.38032483  0.87632528  0.38110703  1
  Fe  Fe45  1  0.12863694  0.37497455  0.39818151  1
  Fe  Fe46  1  0.62656805  0.62680809  0.88362938  1
  Fe  Fe47  1  0.62410344  0.12225440  0.63430167  1
  Fe  Fe48  1  0.87280088  0.37453647  0.38636554  1
  Fe  Fe49  1  0.88010175  0.62573682  0.88595786  1
  Fe  Fe50  1  0.12581576  0.62477288  0.38102555  1
  Fe  Fe51  1  0.12623235  0.87712512  0.14795321  1
  Fe  Fe52  1  0.12724683  0.37310622  0.14009276  1
  Fe  Fe53  1  0.87293791  0.87497972  0.38370259  1
  Fe  Fe54  1  0.37203959  0.37412900  0.87892833  1
  Fe  Fe55  1  0.62442333  0.62179909  0.38373177  1
  Fe  Fe56  1  0.36695954  0.12298753  0.88284093  1
  Fe  Fe57  1  0.36916729  0.62668791  0.88296454  1
  Fe  Fe58  1  0.87646045  0.37669647  0.63059570  1
  Fe  Fe59  1  0.37617179  0.12174748  0.64000499  1
  Fe  Fe60  1  0.62709540  0.37444863  0.87691936  1
  Fe  Fe61  1  0.87255079  0.12116224  0.62874700  1
  Fe  Fe62  1  0.87638320  0.87354893  0.62964743  1
  Fe  Fe63  1  0.62627885  0.87622223  0.12991839  1
  Pb  Pb64  1  -0.00293438  -0.00703705  0.00920130  1
  Pb  Pb65  1  -0.01068743  -0.00160938  0.25715024  1
  Pb  Pb66  1  -0.01050632  -0.00440793  0.49340000  1
  Pb  Pb67  1  -0.00126978  -0.00025910  0.74188592  1
  Pb  Pb68  1  -0.00359035  0.25966352  0.00670407  1
  Pb  Pb69  1  -0.00316814  0.26077788  0.26051541  1
  Pb  Pb70  1  -0.00829651  0.25959387  0.49761904  1
  Pb  Pb71  1  -0.00634809  0.25583217  0.73845496  1
  Pb  Pb72  1  -0.00525791  0.49167578  0.00526675  1
  Pb  Pb73  1  0.00062784  0.48932860  0.25837421  1
  Pb  Pb74  1  -0.00144453  0.49804853  0.49386481  1
  Pb  Pb75  1  -0.01503936  0.49793539  0.74763228  1
  Pb  Pb76  1  0.00146280  0.76036805  0.01047778  1
  Pb  Pb77  1  0.00202840  0.75890081  0.25449700  1
  Pb  Pb78  1  -0.00322890  0.75148001  0.49159466  1
  Pb  Pb79  1  -0.00645286  0.74622670  0.74785350  1
  Pb  Pb80  1  0.24717627  -0.00693602  0.00727259  1
  Pb  Pb81  1  0.25364993  -0.00998799  0.25228398  1
  Pb  Pb82  1  0.25490224  0.00093372  0.49588419  1
  Pb  Pb83  1  0.25161709  0.00311772  0.75008344  1
  Pb  Pb84  1  0.24361576  0.25106859  -0.00398639  1
  Pb  Pb85  1  0.24375339  0.25701697  0.25660443  1
  Pb  Pb86  1  0.25689356  0.25504184  0.50640185  1
  Pb  Pb87  1  0.25445790  0.25240871  0.74393458  1
  Pb  Pb88  1  0.24829223  0.49895108  -0.00255779  1
  Pb  Pb89  1  0.24155164  0.49715277  0.25784819  1
  Pb  Pb90  1  0.25417347  0.49743828  0.50272529  1
  Pb  Pb91  1  0.25665693  0.49795168  0.74661679  1
  Pb  Pb92  1  0.24484848  0.75917009  0.00806865  1
  Pb  Pb93  1  0.24627382  0.75048892  0.25335684  1
  Pb  Pb94  1  0.24887515  0.75089304  0.49200953  1
  Pb  Pb95  1  0.25102659  0.74756311  0.75180858  1
  Pb  Pb96  1  0.49435013  -0.00868555  0.00581310  1
  Pb  Pb97  1  0.49878983  -0.00638600  0.24872044  1
  Pb  Pb98  1  0.50241479  0.00754873  0.50350903  1
  Pb  Pb99  1  0.49980327  0.00080806  0.75159280  1
  Pb  Pb100  1  0.49499877  0.25253906  -0.01223681  1
  Pb  Pb101  1  0.50616864  0.25546246  0.25260768  1
  Pb  Pb102  1  0.49871319  0.24086468  0.50771228  1
  Pb  Pb103  1  0.49171820  0.24836066  0.74835158  1
  Pb  Pb104  1  0.49957344  0.49955685  -0.01489854  1
  Pb  Pb105  1  0.50676854  0.50099762  0.25212992  1
  Pb  Pb106  1  0.49197161  0.49933430  0.50648073  1
  Pb  Pb107  1  0.49881434  0.49795154  0.75207089  1
  Pb  Pb108  1  0.50041806  0.74842624  -0.00307852  1
  Pb  Pb109  1  0.50204462  0.74964026  0.24421337  1
  Pb  Pb110  1  0.49444454  0.74026577  0.50255492  1
  Pb  Pb111  1  0.51078584  0.75084594  0.76127458  1
  Pb  Pb112  1  0.75037360  -0.00434430  0.00390598  1
  Pb  Pb113  1  0.75556568  -0.00029548  0.25399668  1
  Pb  Pb114  1  0.75198004  0.00196129  0.49833773  1
  Pb  Pb115  1  0.75019203  0.00009592  0.74500994  1
  Pb  Pb116  1  0.75433796  0.25423832  -0.00578908  1
  Pb  Pb117  1  0.75433812  0.25551656  0.25697336  1
  Pb  Pb118  1  0.75562738  0.25001552  0.49732340  1
  Pb  Pb119  1  0.75336514  0.25386078  0.74389247  1
  Pb  Pb120  1  0.75243391  0.49773453  -0.01034723  1
  Pb  Pb121  1  0.73958702  0.49535363  0.25532864  1
  Pb  Pb122  1  0.75079497  0.49687885  0.49611678  1
  Pb  Pb123  1  0.75090285  0.49670587  0.74983414  1
  Pb  Pb124  1  0.74750661  0.74914508  -0.00167430  1
  Pb  Pb125  1  0.74898220  0.75377929  0.24682806  1
  Pb  Pb126  1  0.76245578  0.74579192  0.50267645  1
  Pb  Pb127  1  0.74469992  0.74990688  0.75475358  1
  O  O128  1  0.13040520  0.01246221  0.16639457  1
  O  O129  1  0.13477151  0.00788872  0.41013952  1
  O  O130  1  0.12710512  -0.00332014  0.66297663  1
  O  O131  1  0.12151123  -0.00255625  0.91860938  1
  O  O132  1  0.12811291  0.24261420  0.17061526  1
  O  O133  1  0.13266854  0.23815998  0.41550277  1
  O  O134  1  0.12480833  0.23922870  0.65074867  1
  O  O135  1  0.12182431  0.25259911  0.91038853  1
  O  O136  1  0.12944099  0.50330950  0.16916484  1
  O  O137  1  0.12860476  0.50384818  0.41477927  1
  O  O138  1  0.12818177  0.50722500  0.63971272  1
  O  O139  1  0.12389006  0.50126529  0.91216282  1
  O  O140  1  0.13063832  0.74090904  0.16692731  1
  O  O141  1  0.13086527  0.74899142  0.40972236  1
  O  O142  1  0.12802229  0.75929838  0.66041337  1
  O  O143  1  0.12500135  0.75206542  0.91956035  1
  O  O144  1  0.37995919  0.01475888  0.16379849  1
  O  O145  1  0.37991086  0.00696914  0.41015401  1
  O  O146  1  0.37395363  -0.00943170  0.66684565  1
  O  O147  1  0.36971633  -0.00256763  0.91732230  1
  O  O148  1  0.38035216  0.24823339  0.16723724  1
  O  O149  1  0.37789874  0.24876936  0.41569930  1
  O  O150  1  0.37483339  0.24878318  0.66274911  1
  O  O151  1  0.36959727  0.24809129  0.91178683  1
  O  O152  1  0.37850488  0.49861257  0.16314832  1
  O  O153  1  0.37870269  0.49810964  0.41280662  1
  O  O154  1  0.37420069  0.50394985  0.66657517  1
  O  O155  1  0.36772653  0.49928576  0.91071905  1
  O  O156  1  0.38007104  0.73984734  0.15863273  1
  O  O157  1  0.38030339  0.74489050  0.40640213  1
  O  O158  1  0.37107017  0.75920346  0.66842548  1
  O  O159  1  0.36849268  0.75822532  0.91552494  1
  O  O160  1  0.62712134  0.01065112  0.16006577  1
  O  O161  1  0.61916213  0.00451536  0.41130999  1
  O  O162  1  0.62087176  -0.01046635  0.66300850  1
  O  O163  1  0.62838139  0.00813633  0.91640700  1
  O  O164  1  0.62708302  0.24730039  0.16808557  1
  O  O165  1  0.62024271  0.24365886  0.41448394  1
  O  O166  1  0.62540944  0.25426156  0.65876639  1
  O  O167  1  0.62936624  0.24071844  0.91016394  1
  O  O168  1  0.62535172  0.49824633  0.16539903  1
  O  O169  1  0.62234751  0.50043610  0.41926100  1
  O  O170  1  0.62543880  0.50527416  0.66078171  1
  O  O171  1  0.62519598  0.49984841  0.90916566  1
  O  O172  1  0.62359599  0.74474420  0.15843022  1
  O  O173  1  0.61989984  0.75281129  0.40560058  1
  O  O174  1  0.62099262  0.75556125  0.66754481  1
  O  O175  1  0.62447989  0.75135223  0.92001988  1
  O  O176  1  0.87464939  0.00808181  0.16674830  1
  O  O177  1  0.87071262  -0.00145096  0.41170591  1
  O  O178  1  0.87519271  -0.00396591  0.66381122  1
  O  O179  1  0.87899041  -0.00243386  0.92013914  1
  O  O180  1  0.87657620  0.24431113  0.16932146  1
  O  O181  1  0.87341979  0.24721533  0.41031944  1
  O  O182  1  0.87467554  0.24785577  0.65768727  1
  O  O183  1  0.87927365  0.24574972  0.91440381  1
  O  O184  1  0.87796470  0.50795128  0.16762679  1
  O  O185  1  0.87440320  0.50688995  0.40781085  1
  O  O186  1  0.87533788  0.50352338  0.66047694  1
  O  O187  1  0.88149843  0.49999477  0.91523898  1
  O  O188  1  0.87591115  0.73990572  0.16677678  1
  O  O189  1  0.87072408  0.74694646  0.40828156  1
  O  O190  1  0.87716320  0.75386064  0.66771084  1
  O  O191  1  0.87958272  0.75801406  0.91548814  1
  O  O192  1  0.00153614  0.12570740  0.16259221  1
  O  O193  1  0.00719835  0.12115915  0.40331374  1
  O  O194  1  0.00715123  0.11794726  0.65689883  1
  O  O195  1  0.00014742  0.12296688  0.92069293  1
  O  O196  1  0.00320112  0.37446183  0.17270907  1
  O  O197  1  -0.00020794  0.37414912  0.41126141  1
  O  O198  1  0.00431335  0.37421006  0.65754335  1
  O  O199  1  0.00645095  0.37513851  0.91594147  1
  O  O200  1  0.00186446  0.62396296  0.16485832  1
  O  O201  1  -0.00675595  0.62816805  0.40519026  1
  O  O202  1  0.01307850  0.63228250  0.66050796  1
  O  O203  1  0.00907681  0.62921775  0.92073806  1
  O  O204  1  0.00038011  0.87489137  0.16956715  1
  O  O205  1  0.00227641  0.87676127  0.40402520  1
  O  O206  1  0.00893202  0.87754457  0.65583567  1
  O  O207  1  -0.00103180  0.87598068  0.92173947  1
  O  O208  1  0.25528785  0.13071245  0.16010149  1
  O  O209  1  0.25821928  0.12584833  0.41302218  1
  O  O210  1  0.24281102  0.11845837  0.66150710  1
  O  O211  1  0.23929082  0.12402495  0.91586118  1
  O  O212  1  0.25625086  0.37212649  0.16713588  1
  O  O213  1  0.26197486  0.37323184  0.41709157  1
  O  O214  1  0.24349872  0.37403060  0.66230141  1
  O  O215  1  0.23978280  0.37452583  0.91182695  1
  O  O216  1  0.25872951  0.62065411  0.16375829  1
  O  O217  1  0.26258859  0.62273990  0.41087492  1
  O  O218  1  0.23950534  0.63247521  0.66371937  1
  O  O219  1  0.23933128  0.62764141  0.92038464  1
  O  O220  1  0.25387666  0.87690465  0.16612024  1
  O  O221  1  0.25654432  0.87701155  0.41039334  1
  O  O222  1  0.25044445  0.87736774  0.66278206  1
  O  O223  1  0.24836780  0.87768429  0.92007804  1
  O  O224  1  0.50489925  0.13041959  0.16200719  1
  O  O225  1  0.49754706  0.12707395  0.41619815  1
  O  O226  1  0.50203036  0.12115788  0.66972153  1
  O  O227  1  0.50558826  0.12456450  0.90483161  1
  O  O228  1  0.50099541  0.37250229  0.16692771  1
  O  O229  1  0.49469684  0.37280736  0.41922521  1
  O  O230  1  0.50704839  0.37973911  0.66331788  1
  O  O231  1  0.49983800  0.37096227  0.90522798  1
  O  O232  1  0.49816228  0.61937977  0.16180317  1
  O  O233  1  0.49458959  0.62260915  0.41642245  1
  O  O234  1  0.50692338  0.63014754  0.66871487  1
  O  O235  1  0.49537023  0.62820667  0.91077088  1
  O  O236  1  0.50395315  0.87819304  0.16317542  1
  O  O237  1  0.50561341  0.87768137  0.41578045  1
  O  O238  1  0.49565090  0.87330091  0.66310270  1
  O  O239  1  0.49144821  0.87876787  0.91392120  1
  O  O240  1  0.74873795  0.12879801  0.16488445  1
  O  O241  1  0.74120836  0.12368222  0.40915232  1
  O  O242  1  0.74769765  0.12030623  0.66416060  1
  O  O243  1  0.75388325  0.12294142  0.91548089  1
  O  O244  1  0.74723436  0.37363464  0.16577495  1
  O  O245  1  0.74759673  0.37475335  0.41359217  1
  O  O246  1  0.74510590  0.37872175  0.66131250  1
  O  O247  1  0.75165092  0.37219952  0.91047591  1
  O  O248  1  0.75129516  0.62281034  0.16062556  1
  O  O249  1  0.75360008  0.62547133  0.41062470  1
  O  O250  1  0.74175995  0.63286439  0.66298683  1
  O  O251  1  0.75440656  0.62832345  0.91460044  1
  O  O252  1  0.74762978  0.87468220  0.16430544  1
  O  O253  1  0.73637019  0.87809023  0.40903649  1
  O  O254  1  0.74317987  0.87234420  0.65938315  1
  O  O255  1  0.75832205  0.87818636  0.91449164  1
  O  O256  1  0.12200270  0.12935330  0.05139684  1
  O  O257  1  0.13083529  0.12844513  0.29543080  1
  O  O258  1  0.12880812  0.11543201  0.54164400  1
  O  O259  1  0.11725213  0.12116383  0.79851906  1
  O  O260  1  0.12128927  0.37058129  0.04079151  1
  O  O261  1  0.13398609  0.37179679  0.29504817  1
  O  O262  1  0.13022455  0.37092303  0.52215418  1
  O  O263  1  0.12070895  0.37475523  0.79754542  1
  O  O264  1  0.12447437  0.62114944  0.05725179  1
  O  O265  1  0.13560220  0.62289450  0.28057749  1
  O  O266  1  0.12795858  0.63740873  0.54015654  1
  O  O267  1  0.12302593  0.62555894  0.80176948  1
  O  O268  1  0.12512906  0.87276729  0.04565253  1
  O  O269  1  0.13341722  0.87253788  0.27814224  1
  O  O270  1  0.13124905  0.87426732  0.54397386  1
  O  O271  1  0.12211410  0.87469733  0.80215769  1
  O  O272  1  0.37279874  0.13075766  0.04799179  1
  O  O273  1  0.37665283  0.12857224  0.29960781  1
  O  O274  1  0.38163338  0.12027791  0.53942472  1
  O  O275  1  0.36825426  0.11916320  0.78292211  1
  O  O276  1  0.37597264  0.37210401  0.04718820  1
  O  O277  1  0.37984092  0.37285384  0.30263332  1
  O  O278  1  0.37148034  0.38054786  0.53874755  1
  O  O279  1  0.36838608  0.37452698  0.77843230  1
  O  O280  1  0.36991879  0.61913714  0.04653252  1
  O  O281  1  0.38054238  0.62173602  0.29605906  1
  O  O282  1  0.38319741  0.63030702  0.54393715  1
  O  O283  1  0.36162000  0.63034614  0.78301730  1
  O  O284  1  0.37354626  0.88407735  0.03930320  1
  O  O285  1  0.38361433  0.88103375  0.28072201  1
  O  O286  1  0.37725266  0.87277694  0.54843802  1
  O  O287  1  0.36876536  0.87849783  0.80273536  1
  O  O288  1  0.62243860  0.12985453  0.04823494  1
  O  O289  1  0.62047461  0.12675305  0.29932147  1
  O  O290  1  0.61655123  0.12136197  0.53450118  1
  O  O291  1  0.62941469  0.11937415  0.79540927  1
  O  O292  1  0.62365824  0.37174527  0.04928965  1
  O  O293  1  0.62193258  0.37747504  0.28702732  1
  O  O294  1  0.62517437  0.37638915  0.55004152  1
  O  O295  1  0.63152860  0.37747968  0.77744252  1
  O  O296  1  0.62293477  0.62003770  0.04657496  1
  O  O297  1  0.62203915  0.61559704  0.28369231  1
  O  O298  1  0.62040617  0.63058531  0.55185809  1
  O  O299  1  0.62718920  0.63748269  0.78358745  1
  O  O300  1  0.62386245  0.88304556  0.02917427  1
  O  O301  1  0.61818576  0.87425544  0.29474780  1
  O  O302  1  0.62408141  0.86967558  0.54809004  1
  O  O303  1  0.62369876  0.86948925  0.79402153  1
  O  O304  1  0.87105852  0.12754333  0.05495971  1
  O  O305  1  0.87059342  0.11771682  0.28418528  1
  O  O306  1  0.87090915  0.11551422  0.52843787  1
  O  O307  1  0.87828847  0.12053711  0.79825342  1
  O  O308  1  0.88537215  0.37324999  0.04397944  1
  O  O309  1  0.87643050  0.37222362  0.28349410  1
  O  O310  1  0.87660279  0.37372621  0.52980467  1
  O  O311  1  0.88233848  0.37620576  0.78309187  1
  O  O312  1  0.87507171  0.62313199  0.05000609  1
  O  O313  1  0.87053749  0.62625265  0.29359403  1
  O  O314  1  0.87338258  0.63724554  0.53667462  1
  O  O315  1  0.88829001  0.62600271  0.78588631  1
  O  O316  1  0.88179155  0.87748686  0.04218238  1
  O  O317  1  0.87016603  0.87838790  0.28158495  1
  O  O318  1  0.87293783  0.87077647  0.52914067  1
  O  O319  1  0.88036737  0.87821450  0.80337637  1
