# generated using pymatgen
data_VFe(PbO3)2
_symmetry_space_group_name_H-M   'P 1'
_cell_length_a   15.38435807
_cell_length_b   15.38149609
_cell_length_c   18.46638335
_cell_angle_alpha   90.00716573
_cell_angle_beta   89.99201047
_cell_angle_gamma   89.99187097
_symmetry_Int_Tables_number   1
_chemical_formula_structural   VFe(PbO3)2
_chemical_formula_sum   'V32 Fe32 Pb64 O192'
_cell_volume   4369.78222523
_cell_formula_units_Z   32
loop_
 _symmetry_equiv_pos_site_id
 _symmetry_equiv_pos_as_xyz
  1  'x, y, z'
loop_
 _atom_site_type_symbol
 _atom_site_label
 _atom_site_symmetry_multiplicity
 _atom_site_fract_x
 _atom_site_fract_y
 _atom_site_fract_z
 _atom_site_occupancy
  V  V0  1  0.87822317  0.12080643  0.14157212  1
  V  V1  1  0.37205863  0.37678966  0.13756893  1
  V  V2  1  0.12498717  0.62625882  0.88951805  1
  V  V3  1  0.12474205  0.62631675  0.63562160  1
  V  V4  1  0.12236659  0.62714919  0.38782576  1
  V  V5  1  0.37609289  0.37480581  0.89171106  1
  V  V6  1  0.37431551  0.87551534  0.89504550  1
  V  V7  1  0.62487223  0.62694708  0.38646615  1
  V  V8  1  0.87253148  0.62391315  0.63871746  1
  V  V9  1  0.12508174  0.62372031  0.14185598  1
  V  V10  1  0.37847945  0.87485202  0.38619690  1
  V  V11  1  0.87708902  0.87597689  0.89429962  1
  V  V12  1  0.87329921  0.12177783  0.38809243  1
  V  V13  1  0.87169783  0.87039454  0.38737969  1
  V  V14  1  0.87588367  0.62653455  0.14176537  1
  V  V15  1  0.12620912  0.87562897  0.88836920  1
  V  V16  1  0.12231762  0.12462165  0.63572114  1
  V  V17  1  0.62163465  0.12222022  0.38353321  1
  V  V18  1  0.62428010  0.12541711  0.64091840  1
  V  V19  1  0.37325315  0.62339212  0.89491007  1
  V  V20  1  0.12156311  0.87669578  0.14222105  1
  V  V21  1  0.12649146  0.37625730  0.89053734  1
  V  V22  1  0.87765993  0.37591531  0.88833208  1
  V  V23  1  0.87767694  0.12890973  0.88988500  1
  V  V24  1  0.37572239  0.12423507  0.64082712  1
  V  V25  1  0.87846251  0.62303396  0.89085726  1
  V  V26  1  0.62366691  0.37489138  0.64067996  1
  V  V27  1  0.87832126  0.37323915  0.14317373  1
  V  V28  1  0.12259524  0.13291892  0.15296621  1
  V  V29  1  0.61923192  0.12514006  0.89812264  1
  V  V30  1  0.37426563  0.62604343  0.38920007  1
  V  V31  1  0.87403042  0.87617871  0.64180033  1
  Fe  Fe32  1  0.37212170  0.62517938  0.13094660  1
  Fe  Fe33  1  0.62627940  0.62599683  0.63875701  1
  Fe  Fe34  1  0.12734385  0.12234874  0.37650651  1
  Fe  Fe35  1  0.12558118  0.37355161  0.63020138  1
  Fe  Fe36  1  0.87175570  0.62811255  0.38242117  1
  Fe  Fe37  1  0.36952512  0.12791876  0.89459855  1
  Fe  Fe38  1  0.37703815  0.12193486  0.37601750  1
  Fe  Fe39  1  0.12653307  0.87272858  0.39070079  1
  Fe  Fe40  1  0.12480700  0.87595318  0.63249258  1
  Fe  Fe41  1  0.62607495  0.87528060  0.38506434  1
  Fe  Fe42  1  0.37877957  0.37522684  0.38451878  1
  Fe  Fe43  1  0.12618654  0.37613469  0.38115244  1
  Fe  Fe44  1  0.62445396  0.37466584  0.37917457  1
  Fe  Fe45  1  0.62759259  0.87524700  0.12440980  1
  Fe  Fe46  1  0.12341950  0.37842321  0.14917101  1
  Fe  Fe47  1  0.37752402  0.62446408  0.63392293  1
  Fe  Fe48  1  0.62430056  0.87630294  0.63900802  1
  Fe  Fe49  1  0.62770847  0.37357784  0.89362447  1
  Fe  Fe50  1  0.37493647  0.37346449  0.63367818  1
  Fe  Fe51  1  0.87034236  0.12393567  0.63297987  1
  Fe  Fe52  1  0.62495153  0.62274431  0.12748214  1
  Fe  Fe53  1  0.87094199  0.37801163  0.38799655  1
  Fe  Fe54  1  0.62634611  0.62348110  0.89483267  1
  Fe  Fe55  1  0.37447554  0.87578222  0.63690015  1
  Fe  Fe56  1  0.12281695  0.12471519  0.88590942  1
  Fe  Fe57  1  0.62642402  0.37457478  0.13552594  1
  Fe  Fe58  1  0.62783953  0.12720293  0.13008310  1
  Fe  Fe59  1  0.62555608  0.87702489  0.89856322  1
  Fe  Fe60  1  0.87337958  0.37296219  0.63097722  1
  Fe  Fe61  1  0.87912375  0.87453847  0.13163578  1
  Fe  Fe62  1  0.37174392  0.87390622  0.13003101  1
  Fe  Fe63  1  0.37289956  0.12458248  0.13671509  1
  Pb  Pb64  1  -0.00355479  -0.00192374  0.00184597  1
  Pb  Pb65  1  0.00911736  -0.00407058  0.25787169  1
  Pb  Pb66  1  0.00402441  -0.00015334  0.49675534  1
  Pb  Pb67  1  0.00427177  0.00530168  0.74870505  1
  Pb  Pb68  1  0.01003201  0.25675535  0.00571818  1
  Pb  Pb69  1  -0.00185471  0.25960492  0.26092411  1
  Pb  Pb70  1  0.00156106  0.25520427  0.49148953  1
  Pb  Pb71  1  -0.00293725  0.25154784  0.74218949  1
  Pb  Pb72  1  0.00825018  0.49402896  0.00612460  1
  Pb  Pb73  1  -0.00978781  0.50110449  0.25946070  1
  Pb  Pb74  1  -0.00254074  0.48940813  0.49739419  1
  Pb  Pb75  1  -0.00159270  0.49683472  0.74373780  1
  Pb  Pb76  1  -0.00219934  0.75335158  0.00252535  1
  Pb  Pb77  1  -0.00073121  0.74913842  0.25442177  1
  Pb  Pb78  1  0.00498900  0.75475612  0.50016006  1
  Pb  Pb79  1  -0.00345128  0.75174129  0.74893822  1
  Pb  Pb80  1  0.25203206  0.00355802  0.00501261  1
  Pb  Pb81  1  0.25172298  0.00498900  0.25171198  1
  Pb  Pb82  1  0.25027456  -0.00280308  0.49310219  1
  Pb  Pb83  1  0.25017191  0.00852606  0.75247284  1
  Pb  Pb84  1  0.24873107  0.24761404  0.00386004  1
  Pb  Pb85  1  0.26359824  0.25354472  0.25770304  1
  Pb  Pb86  1  0.24969839  0.25104147  0.48655946  1
  Pb  Pb87  1  0.24879918  0.24164252  0.75163954  1
  Pb  Pb88  1  0.25158523  0.50105133  0.00488409  1
  Pb  Pb89  1  0.25255017  0.49036543  0.25604475  1
  Pb  Pb90  1  0.25305634  0.48804261  0.49998278  1
  Pb  Pb91  1  0.25226452  0.49490153  0.74278444  1
  Pb  Pb92  1  0.25640181  0.74939600  0.00386571  1
  Pb  Pb93  1  0.24729083  0.75381949  0.24977789  1
  Pb  Pb94  1  0.26250787  0.75027438  0.50318340  1
  Pb  Pb95  1  0.25251668  0.75435035  0.74489388  1
  Pb  Pb96  1  0.48545368  0.00074815  0.00948995  1
  Pb  Pb97  1  0.49939717  -0.00034346  0.23436669  1
  Pb  Pb98  1  0.50088102  -0.01385981  0.50124581  1
  Pb  Pb99  1  0.50381151  -0.00819832  0.75610132  1
  Pb  Pb100  1  0.50837363  0.25058790  0.00806516  1
  Pb  Pb101  1  0.50123128  0.25067915  0.24281124  1
  Pb  Pb102  1  0.49402017  0.25509290  0.49227943  1
  Pb  Pb103  1  0.49513084  0.24620467  0.75486221  1
  Pb  Pb104  1  0.50867954  0.50159400  0.00314301  1
  Pb  Pb105  1  0.50359325  0.49773403  0.24207669  1
  Pb  Pb106  1  0.49783531  0.50428763  0.49861365  1
  Pb  Pb107  1  0.50115622  0.50384507  0.75016463  1
  Pb  Pb108  1  0.50581192  0.74905047  0.00077168  1
  Pb  Pb109  1  0.50173083  0.75282213  0.23361742  1
  Pb  Pb110  1  0.50092338  0.74573022  0.50473171  1
  Pb  Pb111  1  0.50212994  0.74881533  0.74901837  1
  Pb  Pb112  1  0.74754324  0.00139487  0.00435270  1
  Pb  Pb113  1  0.73972123  -0.00930746  0.24443640  1
  Pb  Pb114  1  0.75211840  0.00339236  0.50042743  1
  Pb  Pb115  1  0.74403240  -0.00514755  0.75695534  1
  Pb  Pb116  1  0.74749980  0.24973510  0.00581518  1
  Pb  Pb117  1  0.74709011  0.25787820  0.25075177  1
  Pb  Pb118  1  0.75532715  0.24896300  0.49722543  1
  Pb  Pb119  1  0.74614034  0.25509267  0.75100645  1
  Pb  Pb120  1  0.74593668  0.49870597  0.00335934  1
  Pb  Pb121  1  0.75227271  0.49861242  0.24957485  1
  Pb  Pb122  1  0.75085276  0.49775420  0.49476218  1
  Pb  Pb123  1  0.73381489  0.49767956  0.76095515  1
  Pb  Pb124  1  0.74456179  0.75190120  0.00178233  1
  Pb  Pb125  1  0.74094683  0.75474187  0.24291070  1
  Pb  Pb126  1  0.73445402  0.74973915  0.50459286  1
  Pb  Pb127  1  0.73600029  0.75012352  0.75851728  1
  O  O128  1  0.11750358  -0.00623378  0.16264072  1
  O  O129  1  0.12241427  -0.00106272  0.41324526  1
  O  O130  1  0.12618377  0.00652499  0.66243240  1
  O  O131  1  0.12260666  -0.00578628  0.91417775  1
  O  O132  1  0.12061507  0.24761508  0.16895850  1
  O  O133  1  0.12402293  0.24747440  0.40172230  1
  O  O134  1  0.12551229  0.24172076  0.65849346  1
  O  O135  1  0.12265998  0.25486820  0.91652572  1
  O  O136  1  0.12133569  0.50922512  0.16623893  1
  O  O137  1  0.12909900  0.51168694  0.41075489  1
  O  O138  1  0.11991228  0.50802932  0.66080846  1
  O  O139  1  0.12380925  0.50096511  0.91819796  1
  O  O140  1  0.12027158  0.74711543  0.16618218  1
  O  O141  1  0.12927657  0.74381856  0.41835319  1
  O  O142  1  0.12045718  0.74475065  0.66218269  1
  O  O143  1  0.12438100  0.74947711  0.91567255  1
  O  O144  1  0.36915350  -0.00249989  0.16033032  1
  O  O145  1  0.37865638  -0.00760444  0.40669132  1
  O  O146  1  0.37629318  0.00911635  0.66765281  1
  O  O147  1  0.37026698  -0.00427150  0.91506670  1
  O  O148  1  0.36962749  0.25591134  0.15921909  1
  O  O149  1  0.37744793  0.24656455  0.40781737  1
  O  O150  1  0.37754106  0.24325404  0.66585813  1
  O  O151  1  0.37106111  0.25916039  0.91915521  1
  O  O152  1  0.37221234  0.49613110  0.16129552  1
  O  O153  1  0.37901664  0.50892068  0.40990004  1
  O  O154  1  0.37496720  0.49904656  0.66583376  1
  O  O155  1  0.37038358  0.49408062  0.91723791  1
  O  O156  1  0.36891832  0.75025089  0.16098775  1
  O  O157  1  0.37762771  0.75034578  0.41355518  1
  O  O158  1  0.37371762  0.74855288  0.66745855  1
  O  O159  1  0.37094068  0.75214851  0.91571130  1
  O  O160  1  0.63072457  0.00159958  0.15427657  1
  O  O161  1  0.62749553  0.00457293  0.41285513  1
  O  O162  1  0.62411069  0.00680860  0.66804284  1
  O  O163  1  0.63086240  0.00939208  0.91841085  1
  O  O164  1  0.62959771  0.25001025  0.16237939  1
  O  O165  1  0.62835651  0.23900160  0.40745215  1
  O  O166  1  0.62304784  0.24723712  0.66746882  1
  O  O167  1  0.62930735  0.24527484  0.91753295  1
  O  O168  1  0.62702361  0.49943336  0.15844816  1
  O  O169  1  0.62182567  0.50912274  0.40792329  1
  O  O170  1  0.62740772  0.49338720  0.66280429  1
  O  O171  1  0.62773323  0.49741213  0.91901481  1
  O  O172  1  0.62990280  0.74830259  0.15339071  1
  O  O173  1  0.62373435  0.74704655  0.41374428  1
  O  O174  1  0.62821703  0.75146030  0.66993816  1
  O  O175  1  0.62689318  0.74923493  0.91356385  1
  O  O176  1  0.88229941  0.00500644  0.15881048  1
  O  O177  1  0.87303910  -0.00231691  0.41277927  1
  O  O178  1  0.87479452  -0.00464094  0.66491149  1
  O  O179  1  0.87927209  0.00430207  0.91530376  1
  O  O180  1  0.87928085  0.25361119  0.16590089  1
  O  O181  1  0.87092997  0.24182083  0.40778802  1
  O  O182  1  0.87416836  0.24821413  0.66455088  1
  O  O183  1  0.88055511  0.24850114  0.91221623  1
  O  O184  1  0.87926282  0.49918308  0.16507103  1
  O  O185  1  0.87267597  0.50597144  0.41514043  1
  O  O186  1  0.87812286  0.50668091  0.65718946  1
  O  O187  1  0.88050674  0.50203885  0.91548578  1
  O  O188  1  0.87896699  0.74376049  0.15939765  1
  O  O189  1  0.87365621  0.75506910  0.41179138  1
  O  O190  1  0.87730011  0.75271416  0.66754396  1
  O  O191  1  0.88079025  0.74470793  0.91392278  1
  O  O192  1  -0.00427800  0.12802280  0.17523969  1
  O  O193  1  -0.00789355  0.12170158  0.40575768  1
  O  O194  1  0.00373069  0.12257654  0.65813711  1
  O  O195  1  -0.00425578  0.12542416  0.91546954  1
  O  O196  1  -0.00573374  0.37641634  0.17223359  1
  O  O197  1  -0.00026340  0.37713089  0.40827760  1
  O  O198  1  0.00038100  0.37455395  0.66322190  1
  O  O199  1  0.00067106  0.37705236  0.91917283  1
  O  O200  1  0.00016735  0.62465897  0.16859253  1
  O  O201  1  0.00625752  0.63000612  0.40733419  1
  O  O202  1  -0.00269622  0.62832672  0.66480377  1
  O  O203  1  -0.00028319  0.62399238  0.91728064  1
  O  O204  1  0.00302500  0.87007229  0.16882185  1
  O  O205  1  -0.00926522  0.87410611  0.41388423  1
  O  O206  1  -0.00434589  0.87635824  0.66653494  1
  O  O207  1  0.00308732  0.87267330  0.91747721  1
  O  O208  1  0.23984633  0.12188829  0.16162882  1
  O  O209  1  0.25239474  0.11929201  0.40672039  1
  O  O210  1  0.25211213  0.12542333  0.66057703  1
  O  O211  1  0.24413601  0.12675570  0.92132157  1
  O  O212  1  0.25312980  0.37757110  0.16419367  1
  O  O213  1  0.25152424  0.37914627  0.40933463  1
  O  O214  1  0.24827695  0.37417553  0.66320730  1
  O  O215  1  0.24927875  0.37623759  0.91686940  1
  O  O216  1  0.24117028  0.62684547  0.16342696  1
  O  O217  1  0.25574715  0.62921293  0.41039442  1
  O  O218  1  0.24106263  0.62533449  0.65855735  1
  O  O219  1  0.24638599  0.62364018  0.91830062  1
  O  O220  1  0.23853823  0.87204643  0.16275823  1
  O  O221  1  0.25914512  0.87219445  0.41093000  1
  O  O222  1  0.24778264  0.87626780  0.66551223  1
  O  O223  1  0.24778960  0.87349001  0.91533935  1
  O  O224  1  0.50077155  0.12631984  0.15489553  1
  O  O225  1  0.50643236  0.12101146  0.40462032  1
  O  O226  1  0.50182702  0.12594963  0.66863655  1
  O  O227  1  0.50242020  0.12693336  0.91359100  1
  O  O228  1  0.49279556  0.37403194  0.15685581  1
  O  O229  1  0.50378154  0.37563292  0.41348279  1
  O  O230  1  0.50621943  0.37187677  0.66686968  1
  O  O231  1  0.49302562  0.37440318  0.91307791  1
  O  O232  1  0.49863511  0.62434173  0.15528559  1
  O  O233  1  0.49993434  0.62951839  0.41181748  1
  O  O234  1  0.50191524  0.62299806  0.66892485  1
  O  O235  1  0.49385683  0.62269322  0.91416709  1
  O  O236  1  0.50043199  0.87504372  0.15026590  1
  O  O237  1  0.49667407  0.87297431  0.41126359  1
  O  O238  1  0.49921475  0.87822537  0.67099157  1
  O  O239  1  0.49186076  0.87688447  0.91350655  1
  O  O240  1  0.76267565  0.12888474  0.16086042  1
  O  O241  1  0.74992506  0.12004370  0.41350426  1
  O  O242  1  0.74091068  0.12552394  0.66457369  1
  O  O243  1  0.76124223  0.12698137  0.91680207  1
  O  O244  1  0.75957462  0.37625805  0.16081945  1
  O  O245  1  0.74506962  0.37579699  0.41493595  1
  O  O246  1  0.74383228  0.37051574  0.66236235  1
  O  O247  1  0.76026942  0.37433393  0.91677598  1
  O  O248  1  0.75856222  0.62084716  0.15741870  1
  O  O249  1  0.74218738  0.62855679  0.41001014  1
  O  O250  1  0.75903021  0.62844577  0.66445112  1
  O  O251  1  0.76324778  0.62319009  0.91568915  1
  O  O252  1  0.75515603  0.87469806  0.15652398  1
  O  O253  1  0.75596747  0.87612161  0.41370553  1
  O  O254  1  0.75678183  0.87600042  0.66856343  1
  O  O255  1  0.75897724  0.87610801  0.91546286  1
  O  O256  1  0.11338635  0.12814384  0.06097453  1
  O  O257  1  0.12518766  0.11220332  0.27423115  1
  O  O258  1  0.12454116  0.12221464  0.54469559  1
  O  O259  1  0.12934770  0.12313924  0.78576604  1
  O  O260  1  0.11500271  0.37558455  0.04748628  1
  O  O261  1  0.12671177  0.38232151  0.27878048  1
  O  O262  1  0.12457629  0.37787822  0.52995428  1
  O  O263  1  0.12398564  0.37685457  0.79923318  1
  O  O264  1  0.12170790  0.62444232  0.05028027  1
  O  O265  1  0.12707939  0.63073975  0.29632534  1
  O  O266  1  0.12114200  0.62688787  0.54482191  1
  O  O267  1  0.12480785  0.62417493  0.79840958  1
  O  O268  1  0.11903445  0.87285254  0.05076405  1
  O  O269  1  0.12109744  0.86993272  0.29030340  1
  O  O270  1  0.11890085  0.87460590  0.53216768  1
  O  O271  1  0.12365848  0.87537322  0.79690213  1
  O  O272  1  0.36991589  0.11932212  0.03343280  1
  O  O273  1  0.37092323  0.12519890  0.27511844  1
  O  O274  1  0.37911269  0.12234306  0.55022641  1
  O  O275  1  0.36649077  0.13280374  0.79381656  1
  O  O276  1  0.36934822  0.37771616  0.04602098  1
  O  O277  1  0.37237450  0.37590682  0.28322915  1
  O  O278  1  0.37731040  0.37481354  0.53335055  1
  O  O279  1  0.37285288  0.37420644  0.80025040  1
  O  O280  1  0.36331673  0.62343447  0.03059575  1
  O  O281  1  0.37637086  0.62827590  0.29820706  1
  O  O282  1  0.37983429  0.62910594  0.53342204  1
  O  O283  1  0.36877646  0.62166207  0.80351004  1
  O  O284  1  0.36728580  0.87908968  0.02915798  1
  O  O285  1  0.37758156  0.86984820  0.29498301  1
  O  O286  1  0.37897174  0.87731160  0.53671217  1
  O  O287  1  0.37020014  0.87426136  0.80337785  1
  O  O288  1  0.63273814  0.13305656  0.02862820  1
  O  O289  1  0.62791586  0.11934397  0.29197293  1
  O  O290  1  0.62081906  0.12571128  0.55031055  1
  O  O291  1  0.62798919  0.12556474  0.80639038  1
  O  O292  1  0.62593121  0.36817071  0.03252492  1
  O  O293  1  0.62682147  0.37331079  0.27833083  1
  O  O294  1  0.62189941  0.37181606  0.54986522  1
  O  O295  1  0.63465021  0.37626316  0.79256917  1
  O  O296  1  0.62774115  0.62226630  0.02537053  1
  O  O297  1  0.62374381  0.63004487  0.29507811  1
  O  O298  1  0.62447811  0.63285808  0.53877951  1
  O  O299  1  0.63527902  0.61669559  0.79231659  1
  O  O300  1  0.62988674  0.87426944  0.02195064  1
  O  O301  1  0.63388315  0.87470942  0.28506609  1
  O  O302  1  0.62340953  0.87494127  0.53837699  1
  O  O303  1  0.63036328  0.88504082  0.79602851  1
  O  O304  1  0.88471916  0.12649036  0.05026575  1
  O  O305  1  0.86816981  0.11889102  0.29737617  1
  O  O306  1  0.86638809  0.12284935  0.53355323  1
  O  O307  1  0.87653625  0.12543901  0.79846860  1
  O  O308  1  0.88375500  0.37456174  0.05154890  1
  O  O309  1  0.87082030  0.37892317  0.28659212  1
  O  O310  1  0.87633460  0.37277300  0.53042350  1
  O  O311  1  0.87865485  0.37719033  0.79673783  1
  O  O312  1  0.88212893  0.62209119  0.05056012  1
  O  O313  1  0.87431455  0.62261363  0.28271489  1
  O  O314  1  0.87353846  0.63020506  0.54785312  1
  O  O315  1  0.87899579  0.62258644  0.79968343  1
  O  O316  1  0.88822075  0.87488241  0.03144076  1
  O  O317  1  0.87233114  0.87227120  0.29573257  1
  O  O318  1  0.87328255  0.87314611  0.55090666  1
  O  O319  1  0.88066480  0.87595246  0.80243044  1
