# generated using pymatgen
data_VFe(PbO3)2
_symmetry_space_group_name_H-M   'P 1'
_cell_length_a   15.39055048
_cell_length_b   15.38283836
_cell_length_c   18.52642886
_cell_angle_alpha   90.03201832
_cell_angle_beta   89.98053892
_cell_angle_gamma   89.98804156
_symmetry_Int_Tables_number   1
_chemical_formula_structural   VFe(PbO3)2
_chemical_formula_sum   'V32 Fe32 Pb64 O192'
_cell_volume   4386.13749061
_cell_formula_units_Z   32
loop_
 _symmetry_equiv_pos_site_id
 _symmetry_equiv_pos_as_xyz
  1  'x, y, z'
loop_
 _atom_site_type_symbol
 _atom_site_label
 _atom_site_symmetry_multiplicity
 _atom_site_fract_x
 _atom_site_fract_y
 _atom_site_fract_z
 _atom_site_occupancy
  V  V0  1  0.37448906  0.87309487  0.89618798  1
  V  V1  1  0.62583161  0.37434818  0.39439927  1
  V  V2  1  0.87646097  0.37322480  0.39721867  1
  V  V3  1  0.12630377  0.62621152  0.89127575  1
  V  V4  1  0.37593908  0.12508432  0.63840283  1
  V  V5  1  0.62131580  0.12322108  0.88972709  1
  V  V6  1  0.12434933  0.61924010  0.39073090  1
  V  V7  1  0.87389296  0.12336366  0.63733265  1
  V  V8  1  0.87477367  0.12302021  0.88917427  1
  V  V9  1  0.62785865  0.37596968  0.13857128  1
  V  V10  1  0.87146889  0.38162462  0.13845815  1
  V  V11  1  0.62346981  0.87553788  0.63847770  1
  V  V12  1  0.87156817  0.62731186  0.13928952  1
  V  V13  1  0.87461449  0.87836444  0.14169420  1
  V  V14  1  0.62168890  0.62741616  0.88630959  1
  V  V15  1  0.87572144  0.37557260  0.88329975  1
  V  V16  1  0.37605393  0.62479221  0.63669529  1
  V  V17  1  0.62926632  0.12463906  0.13942496  1
  V  V18  1  0.12977498  0.37461952  0.63957607  1
  V  V19  1  0.87486306  0.87539938  0.88918095  1
  V  V20  1  0.87577497  0.12919178  0.38845290  1
  V  V21  1  0.37152751  0.37275131  0.38598049  1
  V  V22  1  0.12454872  0.87406009  0.89247091  1
  V  V23  1  0.62670778  0.12717109  0.38940621  1
  V  V24  1  0.12510062  0.37584996  0.89377867  1
  V  V25  1  0.37521694  0.37675355  0.89533069  1
  V  V26  1  0.11495335  0.62539017  0.14125815  1
  V  V27  1  0.87163277  0.13252289  0.13976911  1
  V  V28  1  0.87405654  0.62668345  0.40261659  1
  V  V29  1  0.37351908  0.87744156  0.63619378  1
  V  V30  1  0.62584393  0.62502458  0.14299495  1
  V  V31  1  0.36703605  0.62242127  0.14514031  1
  Fe  Fe32  1  0.37713592  0.87204951  0.14681869  1
  Fe  Fe33  1  0.62310928  0.87646841  0.88736040  1
  Fe  Fe34  1  0.62868257  0.87382574  0.14590231  1
  Fe  Fe35  1  0.87692864  0.87930265  0.62457329  1
  Fe  Fe36  1  0.62493363  0.62068762  0.39665378  1
  Fe  Fe37  1  0.12291971  0.37481487  0.38050239  1
  Fe  Fe38  1  0.37563114  0.62173927  0.37904486  1
  Fe  Fe39  1  0.11962139  0.12540602  0.13724516  1
  Fe  Fe40  1  0.62063559  0.37255853  0.63867502  1
  Fe  Fe41  1  0.12378607  0.12430208  0.89512803  1
  Fe  Fe42  1  0.87793546  0.37085835  0.63423511  1
  Fe  Fe43  1  0.12537061  0.12899589  0.37687722  1
  Fe  Fe44  1  0.37770507  0.12810911  0.37405061  1
  Fe  Fe45  1  0.12254246  0.87108948  0.14597659  1
  Fe  Fe46  1  0.87589290  0.62531963  0.62650756  1
  Fe  Fe47  1  0.12938692  0.87653599  0.63005213  1
  Fe  Fe48  1  0.62183438  0.12166311  0.63319373  1
  Fe  Fe49  1  0.37734538  0.12748413  0.13492964  1
  Fe  Fe50  1  0.12865981  0.12505387  0.63488090  1
  Fe  Fe51  1  0.87360499  0.87825100  0.39862360  1
  Fe  Fe52  1  0.37284793  0.12320586  0.89930058  1
  Fe  Fe53  1  0.37667488  0.87526188  0.37418579  1
  Fe  Fe54  1  0.62387237  0.37478453  0.88157202  1
  Fe  Fe55  1  0.87563884  0.62859930  0.88331362  1
  Fe  Fe56  1  0.37949969  0.37883877  0.13353626  1
  Fe  Fe57  1  0.12400091  0.87608764  0.37920918  1
  Fe  Fe58  1  0.12292842  0.37925739  0.13717907  1
  Fe  Fe59  1  0.37228797  0.62757882  0.88863356  1
  Fe  Fe60  1  0.37127427  0.37188760  0.63249721  1
  Fe  Fe61  1  0.62724856  0.87426742  0.37821661  1
  Fe  Fe62  1  0.12923787  0.62574251  0.62975092  1
  Fe  Fe63  1  0.62180362  0.62712856  0.62566106  1
  Pb  Pb64  1  0.00696238  0.00139725  0.00594018  1
  Pb  Pb65  1  0.00901691  -0.00032270  0.25406998  1
  Pb  Pb66  1  0.01131787  -0.00945278  0.49744832  1
  Pb  Pb67  1  0.00777578  -0.00114245  0.74235328  1
  Pb  Pb68  1  0.00672223  0.25048484  0.00346342  1
  Pb  Pb69  1  0.01146903  0.25368836  0.25004701  1
  Pb  Pb70  1  0.00843149  0.24417792  0.50031266  1
  Pb  Pb71  1  0.00767468  0.24451402  0.74792012  1
  Pb  Pb72  1  0.00117330  0.49764156  -0.00108646  1
  Pb  Pb73  1  0.00039560  0.49689631  0.25377515  1
  Pb  Pb74  1  -0.00107154  0.50251802  0.50653745  1
  Pb  Pb75  1  -0.00576659  0.50861683  0.74202000  1
  Pb  Pb76  1  0.00300479  0.75570881  0.00275844  1
  Pb  Pb77  1  -0.00959482  0.76246412  0.26376714  1
  Pb  Pb78  1  0.00726957  0.75602264  0.50248067  1
  Pb  Pb79  1  -0.00013328  0.75098757  0.73456203  1
  Pb  Pb80  1  0.24614092  0.00416049  0.01037722  1
  Pb  Pb81  1  0.24972595  0.00699695  0.23960896  1
  Pb  Pb82  1  0.24680042  0.00155005  0.48152879  1
  Pb  Pb83  1  0.24962012  0.00951820  0.75599318  1
  Pb  Pb84  1  0.24803436  0.24322641  0.00840877  1
  Pb  Pb85  1  0.24885470  0.24726049  0.23782637  1
  Pb  Pb86  1  0.24658608  0.24114624  0.49264934  1
  Pb  Pb87  1  0.25200258  0.23659275  0.75957293  1
  Pb  Pb88  1  0.24833687  0.49251051  0.00611346  1
  Pb  Pb89  1  0.25213289  0.49431496  0.24888791  1
  Pb  Pb90  1  0.24902647  0.49889184  0.49750992  1
  Pb  Pb91  1  0.25608100  0.50479849  0.74994981  1
  Pb  Pb92  1  0.24877534  0.76232437  0.01070643  1
  Pb  Pb93  1  0.25083219  0.75914072  0.25489827  1
  Pb  Pb94  1  0.24767497  0.75372613  0.48825532  1
  Pb  Pb95  1  0.25330787  0.74784556  0.74700675  1
  Pb  Pb96  1  0.48607836  -0.00861761  0.01440824  1
  Pb  Pb97  1  0.49141819  -0.00548158  0.24775623  1
  Pb  Pb98  1  0.49777879  0.00092369  0.48705835  1
  Pb  Pb99  1  0.49821841  -0.00367462  0.75440323  1
  Pb  Pb100  1  0.49224675  0.25014427  0.00373513  1
  Pb  Pb101  1  0.49362993  0.24932933  0.24753284  1
  Pb  Pb102  1  0.50316203  0.25329197  0.50360308  1
  Pb  Pb103  1  0.50058427  0.25252809  0.74973555  1
  Pb  Pb104  1  0.49634261  0.49928815  0.00001682  1
  Pb  Pb105  1  0.50592565  0.51085051  0.25740078  1
  Pb  Pb106  1  0.49788227  0.49059862  0.50203587  1
  Pb  Pb107  1  0.50442571  0.49619824  0.74504037  1
  Pb  Pb108  1  0.49933416  0.75950409  0.00890696  1
  Pb  Pb109  1  0.50097120  0.74954642  0.25474338  1
  Pb  Pb110  1  0.49958124  0.74674644  0.48564962  1
  Pb  Pb111  1  0.50076046  0.75116526  0.74965237  1
  Pb  Pb112  1  0.74223356  -0.00559761  0.00250299  1
  Pb  Pb113  1  0.75449023  -0.01090837  0.25775238  1
  Pb  Pb114  1  0.74863865  0.00104532  0.49801939  1
  Pb  Pb115  1  0.74410062  -0.00588530  0.74761264  1
  Pb  Pb116  1  0.75171454  0.25025713  -0.00709682  1
  Pb  Pb117  1  0.74988072  0.25325579  0.25335955  1
  Pb  Pb118  1  0.74379229  0.25378246  0.50910629  1
  Pb  Pb119  1  0.74368181  0.25431400  0.74481935  1
  Pb  Pb120  1  0.75022374  0.50221732  -0.01052524  1
  Pb  Pb121  1  0.74586258  0.50943254  0.25868722  1
  Pb  Pb122  1  0.75642839  0.49403910  0.51049656  1
  Pb  Pb123  1  0.74970809  0.50259983  0.73709182  1
  Pb  Pb124  1  0.74159080  0.75507959  0.00032138  1
  Pb  Pb125  1  0.75074731  0.75374944  0.26044508  1
  Pb  Pb126  1  0.74259611  0.74884158  0.49932970  1
  Pb  Pb127  1  0.75992880  0.74196750  0.74034970  1
  O  O128  1  0.11797226  -0.00085607  0.16248786  1
  O  O129  1  0.12212707  0.00370897  0.40144788  1
  O  O130  1  0.12965976  0.00063116  0.66419105  1
  O  O131  1  0.12284640  -0.00642402  0.91995498  1
  O  O132  1  0.11722524  0.25306876  0.15752037  1
  O  O133  1  0.12305479  0.25264494  0.41243890  1
  O  O134  1  0.12897943  0.25343137  0.66681114  1
  O  O135  1  0.12359854  0.25533959  0.91941815  1
  O  O136  1  0.12221024  0.50891598  0.16876690  1
  O  O137  1  0.12297802  0.49873660  0.41514955  1
  O  O138  1  0.12864784  0.49423261  0.66262833  1
  O  O139  1  0.12393686  0.50524837  0.91600290  1
  O  O140  1  0.12449161  0.73701178  0.16950202  1
  O  O141  1  0.12216097  0.73941724  0.40787988  1
  O  O142  1  0.12982052  0.75119188  0.66094785  1
  O  O143  1  0.12407839  0.74900721  0.91918959  1
  O  O144  1  0.38095307  0.00243962  0.15807880  1
  O  O145  1  0.37823812  0.00306793  0.40285591  1
  O  O146  1  0.37509192  -0.00376792  0.66384399  1
  O  O147  1  0.37342662  -0.00900241  0.92252494  1
  O  O148  1  0.38173161  0.25397810  0.15861347  1
  O  O149  1  0.38113862  0.25670242  0.40849034  1
  O  O150  1  0.37359817  0.24124111  0.65990718  1
  O  O151  1  0.37371238  0.25776893  0.91817159  1
  O  O152  1  0.38190427  0.50499354  0.16602725  1
  O  O153  1  0.37738088  0.49018194  0.41116624  1
  O  O154  1  0.37395612  0.50728308  0.65937994  1
  O  O155  1  0.37454041  0.49895745  0.91756340  1
  O  O156  1  0.38011781  0.73740854  0.16701690  1
  O  O157  1  0.37342864  0.74808790  0.40361065  1
  O  O158  1  0.37604318  0.75323727  0.66122304  1
  O  O159  1  0.37315949  0.75458764  0.92067264  1
  O  O160  1  0.63527198  0.00912872  0.16247404  1
  O  O161  1  0.62806660  0.00922018  0.40591441  1
  O  O162  1  0.61964910  -0.00479876  0.66696089  1
  O  O163  1  0.62728277  0.00594802  0.91773324  1
  O  O164  1  0.63592918  0.24845179  0.16419002  1
  O  O165  1  0.62621877  0.25118585  0.41806135  1
  O  O166  1  0.62027060  0.24354577  0.66710801  1
  O  O167  1  0.62776348  0.24344251  0.91203798  1
  O  O168  1  0.63175142  0.50192030  0.16669352  1
  O  O169  1  0.62874753  0.48852065  0.41734137  1
  O  O170  1  0.61933927  0.50267853  0.65752943  1
  O  O171  1  0.62393648  0.50622989  0.90890043  1
  O  O172  1  0.63170383  0.74033111  0.16646174  1
  O  O173  1  0.62923452  0.74953060  0.40888503  1
  O  O174  1  0.61951274  0.75814212  0.66005612  1
  O  O175  1  0.62482613  0.74699736  0.91456012  1
  O  O176  1  0.87222212  -0.00458736  0.16066474  1
  O  O177  1  0.87093992  0.01405585  0.41039303  1
  O  O178  1  0.87445315  0.00515356  0.66282204  1
  O  O179  1  0.87503472  -0.00477324  0.91683853  1
  O  O180  1  0.86983422  0.25091004  0.15953087  1
  O  O181  1  0.87012985  0.24908570  0.41939530  1
  O  O182  1  0.87739667  0.24155049  0.66468859  1
  O  O183  1  0.87445180  0.25057964  0.91357474  1
  O  O184  1  0.87255999  0.50333419  0.16727528  1
  O  O185  1  0.87277031  0.49044128  0.41801961  1
  O  O186  1  0.87692534  0.49834480  0.66025494  1
  O  O187  1  0.87462187  0.49918877  0.91002080  1
  O  O188  1  0.87316801  0.74723918  0.16789544  1
  O  O189  1  0.87591170  0.74233136  0.41560582  1
  O  O190  1  0.87371625  0.75380926  0.65229359  1
  O  O191  1  0.87434196  0.75762450  0.91349405  1
  O  O192  1  -0.01495699  0.12364823  0.16318426  1
  O  O193  1  -0.00838724  0.13277320  0.40752760  1
  O  O194  1  -0.00321981  0.12418662  0.66267094  1
  O  O195  1  -0.00663948  0.12397802  0.91764265  1
  O  O196  1  -0.01000405  0.38007078  0.16370365  1
  O  O197  1  -0.00655558  0.37147630  0.41302000  1
  O  O198  1  0.00975013  0.37214394  0.66421884  1
  O  O199  1  -0.00161518  0.37747110  0.91603099  1
  O  O200  1  -0.00164440  0.62273350  0.16386140  1
  O  O201  1  -0.00003055  0.61682809  0.41722922  1
  O  O202  1  0.00274463  0.62496106  0.65682018  1
  O  O203  1  0.00648900  0.62773058  0.91366959  1
  O  O204  1  -0.01035344  0.86893159  0.16789005  1
  O  O205  1  0.00126078  0.87356327  0.41303095  1
  O  O206  1  0.00080067  0.87875000  0.65758766  1
  O  O207  1  -0.00354665  0.87398662  0.91593283  1
  O  O208  1  0.24893204  0.12733315  0.15198327  1
  O  O209  1  0.25252885  0.13059891  0.40277680  1
  O  O210  1  0.25804201  0.12171883  0.66746870  1
  O  O211  1  0.24769856  0.12398170  0.92658771  1
  O  O212  1  0.25147056  0.38168247  0.15898320  1
  O  O213  1  0.25450452  0.37467389  0.40234510  1
  O  O214  1  0.24676059  0.37478374  0.66666370  1
  O  O215  1  0.25159656  0.37880273  0.91950285  1
  O  O216  1  0.25013067  0.62041201  0.16036220  1
  O  O217  1  0.24484870  0.61787579  0.40726371  1
  O  O218  1  0.25697363  0.62734433  0.66469413  1
  O  O219  1  0.24159722  0.62677608  0.91989599  1
  O  O220  1  0.24938924  0.86889850  0.16433624  1
  O  O221  1  0.24933317  0.87347064  0.40154527  1
  O  O222  1  0.25975905  0.87459364  0.66016359  1
  O  O223  1  0.25047201  0.87319007  0.92038963  1
  O  O224  1  0.51446954  0.12891198  0.15775031  1
  O  O225  1  0.50772813  0.13008018  0.40677142  1
  O  O226  1  0.49119634  0.11904325  0.66413046  1
  O  O227  1  0.50682439  0.12521237  0.91315358  1
  O  O228  1  0.51195623  0.37632640  0.16323637  1
  O  O229  1  0.50443590  0.37325059  0.41246947  1
  O  O230  1  0.49236598  0.37294974  0.66814742  1
  O  O231  1  0.49632810  0.37633658  0.91325391  1
  O  O232  1  0.50980780  0.62186267  0.16409409  1
  O  O233  1  0.49750946  0.61867074  0.41313269  1
  O  O234  1  0.49291716  0.63047040  0.65928547  1
  O  O235  1  0.50481393  0.62725990  0.91342352  1
  O  O236  1  0.50552418  0.87107059  0.16516238  1
  O  O237  1  0.50293744  0.87733164  0.40423411  1
  O  O238  1  0.49540743  0.87641538  0.66690321  1
  O  O239  1  0.49477671  0.87371676  0.91782611  1
  O  O240  1  0.75574673  0.12518247  0.17205697  1
  O  O241  1  0.74835791  0.13154444  0.41609423  1
  O  O242  1  0.75463278  0.12276914  0.66077336  1
  O  O243  1  0.75006332  0.12356589  0.91641195  1
  O  O244  1  0.75084902  0.37744986  0.17101036  1
  O  O245  1  0.74840986  0.36966088  0.41940900  1
  O  O246  1  0.75031382  0.37101726  0.66167612  1
  O  O247  1  0.75198438  0.37569677  0.90919904  1
  O  O248  1  0.75083918  0.62262136  0.17049048  1
  O  O249  1  0.75717467  0.61729186  0.41847655  1
  O  O250  1  0.74775435  0.62734700  0.65492644  1
  O  O251  1  0.74326034  0.62717221  0.91128389  1
  O  O252  1  0.75892610  0.87075367  0.16878229  1
  O  O253  1  0.74694085  0.87891670  0.41728362  1
  O  O254  1  0.74210191  0.87919673  0.65535733  1
  O  O255  1  0.75447559  0.87626829  0.91320184  1
  O  O256  1  0.11263488  0.12459035  0.03469007  1
  O  O257  1  0.11758915  0.13074632  0.27560346  1
  O  O258  1  0.13050569  0.13349918  0.53524411  1
  O  O259  1  0.13323450  0.12656902  0.79415199  1
  O  O260  1  0.11772335  0.38733391  0.03617458  1
  O  O261  1  0.11532747  0.37792895  0.28028989  1
  O  O262  1  0.13073831  0.37230391  0.54835153  1
  O  O263  1  0.12768917  0.37602333  0.80335967  1
  O  O264  1  0.11717484  0.62555834  0.05012365  1
  O  O265  1  0.11806882  0.61587672  0.29995329  1
  O  O266  1  0.13250942  0.62015857  0.53073888  1
  O  O267  1  0.12972836  0.62680567  0.80051428  1
  O  O268  1  0.11756488  0.86443847  0.04408963  1
  O  O269  1  0.11524043  0.86802930  0.27704541  1
  O  O270  1  0.12485459  0.87566422  0.52908628  1
  O  O271  1  0.12594133  0.87328421  0.80183032  1
  O  O272  1  0.38420277  0.12724830  0.03097655  1
  O  O273  1  0.38212049  0.13164589  0.27357553  1
  O  O274  1  0.37404543  0.12151467  0.54746070  1
  O  O275  1  0.36319365  0.12226078  0.79854061  1
  O  O276  1  0.38315731  0.38299292  0.03378139  1
  O  O277  1  0.37950874  0.37384947  0.29441288  1
  O  O278  1  0.37714550  0.37508562  0.53342982  1
  O  O279  1  0.37115586  0.37741418  0.80439666  1
  O  O280  1  0.37676464  0.62280204  0.05395871  1
  O  O281  1  0.38094856  0.61731660  0.27917445  1
  O  O282  1  0.37160133  0.62573858  0.54605488  1
  O  O283  1  0.36795006  0.62843325  0.78979036  1
  O  O284  1  0.38136416  0.86782858  0.04369919  1
  O  O285  1  0.38027172  0.87181079  0.27225831  1
  O  O286  1  0.37705520  0.87842716  0.54573042  1
  O  O287  1  0.37344405  0.87401680  0.80514385  1
  O  O288  1  0.63650325  0.12688609  0.04863458  1
  O  O289  1  0.63327330  0.13432217  0.29873294  1
  O  O290  1  0.62130553  0.12381994  0.53418629  1
  O  O291  1  0.62464937  0.11885376  0.79857574  1
  O  O292  1  0.62943979  0.37657709  0.04746763  1
  O  O293  1  0.62897642  0.37133604  0.30317184  1
  O  O294  1  0.61674275  0.36457320  0.53742093  1
  O  O295  1  0.61819259  0.37178897  0.78253755  1
  O  O296  1  0.62871821  0.62462072  0.05185391  1
  O  O297  1  0.62824717  0.61191818  0.29419250  1
  O  O298  1  0.62410384  0.63163560  0.52565054  1
  O  O299  1  0.62105959  0.63119361  0.79535402  1
  O  O300  1  0.63339280  0.87119673  0.04324650  1
  O  O301  1  0.63858239  0.87464608  0.27650877  1
  O  O302  1  0.61722191  0.87964633  0.54799014  1
  O  O303  1  0.61867166  0.88151143  0.78838469  1
  O  O304  1  0.86744076  0.12815076  0.04886392  1
  O  O305  1  0.87117361  0.13403973  0.29742146  1
  O  O306  1  0.87643523  0.12364593  0.54667419  1
  O  O307  1  0.87442890  0.12107292  0.79863220  1
  O  O308  1  0.86907260  0.38178553  0.04751804  1
  O  O309  1  0.87078144  0.37205966  0.30609212  1
  O  O310  1  0.87294669  0.37360614  0.53480701  1
  O  O311  1  0.87945986  0.37311167  0.79263653  1
  O  O312  1  0.87064087  0.62695513  0.04842490  1
  O  O313  1  0.87572433  0.61933192  0.31063394  1
  O  O314  1  0.87847556  0.61354335  0.52541434  1
  O  O315  1  0.87409021  0.63027416  0.78428285  1
  O  O316  1  0.87412123  0.87282911  0.05050712  1
  O  O317  1  0.87247012  0.87125288  0.29571643  1
  O  O318  1  0.87903201  0.88416978  0.52399772  1
  O  O319  1  0.87588249  0.87727285  0.79856760  1
