# generated using pymatgen
data_VFe(PbO3)2
_symmetry_space_group_name_H-M   'P 1'
_cell_length_a   15.40254910
_cell_length_b   15.40136272
_cell_length_c   18.47552541
_cell_angle_alpha   89.95698960
_cell_angle_beta   89.93438521
_cell_angle_gamma   89.98690838
_symmetry_Int_Tables_number   1
_chemical_formula_structural   VFe(PbO3)2
_chemical_formula_sum   'V32 Fe32 Pb64 O192'
_cell_volume   4382.76445182
_cell_formula_units_Z   32
loop_
 _symmetry_equiv_pos_site_id
 _symmetry_equiv_pos_as_xyz
  1  'x, y, z'
loop_
 _atom_site_type_symbol
 _atom_site_label
 _atom_site_symmetry_multiplicity
 _atom_site_fract_x
 _atom_site_fract_y
 _atom_site_fract_z
 _atom_site_occupancy
  V  V0  1  0.12489033  0.62076286  0.64407634  1
  V  V1  1  0.62583826  0.37161967  0.39477458  1
  V  V2  1  0.62306731  0.87362230  0.13842242  1
  V  V3  1  0.12680361  0.12569808  0.13640859  1
  V  V4  1  0.87518916  0.62270417  0.64398146  1
  V  V5  1  0.12250255  0.86646164  0.65443158  1
  V  V6  1  0.37568439  0.37864773  0.88280419  1
  V  V7  1  0.62058206  0.37642716  0.63718862  1
  V  V8  1  0.37318364  0.87623047  0.39347421  1
  V  V9  1  0.62265911  0.12418084  0.13399544  1
  V  V10  1  0.87460688  0.62597346  0.14165347  1
  V  V11  1  0.87361789  0.12311741  0.39335544  1
  V  V12  1  0.12251342  0.37161275  0.64103099  1
  V  V13  1  0.87372821  0.87586194  0.39508721  1
  V  V14  1  0.62437662  0.37262867  0.14084318  1
  V  V15  1  0.12455496  0.87431240  0.39116418  1
  V  V16  1  0.12295144  0.11656329  0.64756585  1
  V  V17  1  0.87409094  0.37295887  0.38978735  1
  V  V18  1  0.62511508  0.62219737  0.88291485  1
  V  V19  1  0.62359522  0.87767621  0.39782155  1
  V  V20  1  0.12082863  0.62575996  0.38946604  1
  V  V21  1  0.12631433  0.87295498  0.13433885  1
  V  V22  1  0.12306652  0.36983236  0.38962623  1
  V  V23  1  0.37290898  0.87510900  0.64226745  1
  V  V24  1  0.12632810  0.37659325  0.13902944  1
  V  V25  1  0.37654013  0.12410702  0.13840774  1
  V  V26  1  0.87734648  0.37450656  0.64257888  1
  V  V27  1  0.62767131  0.12399221  0.39624200  1
  V  V28  1  0.62471209  0.62411360  0.14135451  1
  V  V29  1  0.62077355  0.12330086  0.65442295  1
  V  V30  1  0.87562529  0.37915979  0.88628115  1
  V  V31  1  0.87222400  0.12468054  0.65772863  1
  Fe  Fe32  1  0.37899148  0.62263833  0.87829457  1
  Fe  Fe33  1  0.37567833  0.12005983  0.39321843  1
  Fe  Fe34  1  0.87813749  0.87306419  0.65108332  1
  Fe  Fe35  1  0.37290239  0.62726518  0.39333016  1
  Fe  Fe36  1  0.87397562  0.87213354  0.87502041  1
  Fe  Fe37  1  0.36889543  0.37594869  0.62666195  1
  Fe  Fe38  1  0.37428758  0.37168522  0.39803557  1
  Fe  Fe39  1  0.87304842  0.37426469  0.13542960  1
  Fe  Fe40  1  0.87478968  0.12895542  0.87518202  1
  Fe  Fe41  1  0.87315432  0.12451497  0.12952743  1
  Fe  Fe42  1  0.87275845  0.87577668  0.13084149  1
  Fe  Fe43  1  0.12725186  0.12919905  0.87963303  1
  Fe  Fe44  1  0.62363532  0.87209119  0.87228757  1
  Fe  Fe45  1  0.37557545  0.62536028  0.13709773  1
  Fe  Fe46  1  0.37571404  0.87583185  0.13237807  1
  Fe  Fe47  1  0.37045397  0.12765353  0.64723246  1
  Fe  Fe48  1  0.12202812  0.11946797  0.38800773  1
  Fe  Fe49  1  0.62377960  0.37977760  0.87992503  1
  Fe  Fe50  1  0.12632438  0.87463899  0.87554865  1
  Fe  Fe51  1  0.62433477  0.87251283  0.64446314  1
  Fe  Fe52  1  0.12652866  0.37585780  0.88235306  1
  Fe  Fe53  1  0.62582887  0.62244987  0.62811617  1
  Fe  Fe54  1  0.37614736  0.12815604  0.87239684  1
  Fe  Fe55  1  0.37660279  0.87231201  0.88102580  1
  Fe  Fe56  1  0.37195236  0.62361624  0.63458142  1
  Fe  Fe57  1  0.12560800  0.62175659  0.88587213  1
  Fe  Fe58  1  0.87717547  0.62585816  0.38758783  1
  Fe  Fe59  1  0.87200041  0.62222581  0.88002669  1
  Fe  Fe60  1  0.62346291  0.12945229  0.87110779  1
  Fe  Fe61  1  0.62850950  0.62605315  0.39728582  1
  Fe  Fe62  1  0.37641696  0.37412779  0.13895149  1
  Fe  Fe63  1  0.12570373  0.62439333  0.13174197  1
  Pb  Pb64  1  -0.00617503  -0.00014114  -0.01739729  1
  Pb  Pb65  1  0.00214549  0.00254114  0.24352092  1
  Pb  Pb66  1  -0.00668265  -0.00783477  0.50999124  1
  Pb  Pb67  1  -0.00563210  0.00067689  0.76236542  1
  Pb  Pb68  1  -0.00748314  0.24665706  -0.00546345  1
  Pb  Pb69  1  0.00179972  0.24470103  0.24439949  1
  Pb  Pb70  1  -0.00156609  0.24315897  0.50294336  1
  Pb  Pb71  1  0.00553993  0.24849456  0.75801761  1
  Pb  Pb72  1  0.00536505  0.50456191  -0.00285311  1
  Pb  Pb73  1  -0.00341969  0.50153797  0.24740377  1
  Pb  Pb74  1  0.00135551  0.49787280  0.49912704  1
  Pb  Pb75  1  0.00462937  0.50315177  0.75831287  1
  Pb  Pb76  1  0.00200040  0.75027683  -0.01427272  1
  Pb  Pb77  1  -0.00454576  0.74902086  0.24594497  1
  Pb  Pb78  1  -0.00665267  0.75699170  0.50746545  1
  Pb  Pb79  1  0.00026619  0.73491289  0.76247462  1
  Pb  Pb80  1  0.25428968  -0.00220759  -0.01606055  1
  Pb  Pb81  1  0.24575307  0.00714567  0.24958933  1
  Pb  Pb82  1  0.25027183  0.00418792  0.50580184  1
  Pb  Pb83  1  0.25019704  -0.00896589  0.75826220  1
  Pb  Pb84  1  0.25192488  0.25166865  -0.00919677  1
  Pb  Pb85  1  0.25594726  0.24962238  0.25468060  1
  Pb  Pb86  1  0.25913580  0.23873229  0.50521658  1
  Pb  Pb87  1  0.24562026  0.24978499  0.75076491  1
  Pb  Pb88  1  0.25164264  0.50968179  -0.00288073  1
  Pb  Pb89  1  0.26170309  0.50436295  0.25291847  1
  Pb  Pb90  1  0.25495779  0.49945766  0.49963489  1
  Pb  Pb91  1  0.24638421  0.50063510  0.75085268  1
  Pb  Pb92  1  0.25282168  0.74681470  -0.01165523  1
  Pb  Pb93  1  0.25666410  0.74429564  0.24623745  1
  Pb  Pb94  1  0.25146039  0.74590343  0.50465197  1
  Pb  Pb95  1  0.25487319  0.75008340  0.75722184  1
  Pb  Pb96  1  0.49988327  -0.00171914  -0.01927175  1
  Pb  Pb97  1  0.49446053  0.00503199  0.24986969  1
  Pb  Pb98  1  0.50485336  -0.00534451  0.51060671  1
  Pb  Pb99  1  0.48845010  -0.00909393  0.75630017  1
  Pb  Pb100  1  0.50024918  0.25285146  -0.01226273  1
  Pb  Pb101  1  0.48448720  0.25012023  0.26141023  1
  Pb  Pb102  1  0.48987705  0.24142485  0.50816172  1
  Pb  Pb103  1  0.49297952  0.25107199  0.74905779  1
  Pb  Pb104  1  0.48934617  0.50043970  0.00171174  1
  Pb  Pb105  1  0.49479926  0.50160919  0.25563996  1
  Pb  Pb106  1  0.49280272  0.50507371  0.49903058  1
  Pb  Pb107  1  0.49095570  0.50638302  0.74082086  1
  Pb  Pb108  1  0.48961453  0.75108026  -0.00608044  1
  Pb  Pb109  1  0.49768289  0.74231846  0.25286558  1
  Pb  Pb110  1  0.50199392  0.74275039  0.50494065  1
  Pb  Pb111  1  0.49621180  0.74420501  0.74364666  1
  Pb  Pb112  1  0.75345912  0.00235202  -0.01963863  1
  Pb  Pb113  1  0.75003789  -0.00125578  0.24253526  1
  Pb  Pb114  1  0.74964927  -0.01133720  0.51586423  1
  Pb  Pb115  1  0.74686245  -0.01284898  0.75816361  1
  Pb  Pb116  1  0.75393217  0.24722299  -0.00868105  1
  Pb  Pb117  1  0.74975457  0.24906994  0.24420021  1
  Pb  Pb118  1  0.74912226  0.24549465  0.50873658  1
  Pb  Pb119  1  0.74004492  0.25655913  0.75854907  1
  Pb  Pb120  1  0.75085027  0.49452004  -0.00198868  1
  Pb  Pb121  1  0.74531655  0.50897582  0.25652144  1
  Pb  Pb122  1  0.75034929  0.50438529  0.50071315  1
  Pb  Pb123  1  0.74738572  0.49880737  0.75072587  1
  Pb  Pb124  1  0.75529652  0.75817073  -0.01089102  1
  Pb  Pb125  1  0.74645984  0.74264997  0.25676828  1
  Pb  Pb126  1  0.74572181  0.75083698  0.50773102  1
  Pb  Pb127  1  0.74742383  0.75347413  0.74557344  1
  O  O128  1  0.12576138  -0.00078654  0.16341986  1
  O  O129  1  0.12230680  -0.00879439  0.42135906  1
  O  O130  1  0.12624592  0.00222935  0.66649246  1
  O  O131  1  0.12609968  0.00174732  0.90424942  1
  O  O132  1  0.12520834  0.25053911  0.16475834  1
  O  O133  1  0.11828989  0.25343416  0.41207531  1
  O  O134  1  0.12053031  0.25713942  0.65995978  1
  O  O135  1  0.12753334  0.25417779  0.91535818  1
  O  O136  1  0.12223014  0.49348129  0.16235144  1
  O  O137  1  0.11838878  0.49862153  0.41334697  1
  O  O138  1  0.12294369  0.50254491  0.66259741  1
  O  O139  1  0.12460469  0.49612454  0.91659408  1
  O  O140  1  0.12310098  0.75618169  0.15784313  1
  O  O141  1  0.12219166  0.75401148  0.41960191  1
  O  O142  1  0.12436024  0.74781944  0.66724710  1
  O  O143  1  0.12541590  0.74961733  0.90643829  1
  O  O144  1  0.37780170  0.00238777  0.16572149  1
  O  O145  1  0.37512049  -0.00774765  0.42213025  1
  O  O146  1  0.37146457  -0.00430448  0.66459755  1
  O  O147  1  0.37793978  0.00162145  0.89976260  1
  O  O148  1  0.37632578  0.24642648  0.16963896  1
  O  O149  1  0.37457493  0.24495748  0.42025069  1
  O  O150  1  0.37325225  0.25691371  0.66198374  1
  O  O151  1  0.37683421  0.25882414  0.90396971  1
  O  O152  1  0.37762105  0.49820047  0.17092548  1
  O  O153  1  0.37230752  0.49939887  0.41391539  1
  O  O154  1  0.37065823  0.49747035  0.65863467  1
  O  O155  1  0.37922384  0.49613907  0.90954892  1
  O  O156  1  0.37654720  0.75299499  0.16713692  1
  O  O157  1  0.37419729  0.75946653  0.41890797  1
  O  O158  1  0.37099393  0.75476232  0.66097082  1
  O  O159  1  0.37826551  0.74630173  0.90676154  1
  O  O160  1  0.62376653  -0.00255357  0.16187828  1
  O  O161  1  0.62791117  0.00052254  0.42700764  1
  O  O162  1  0.62702965  0.00871378  0.66466072  1
  O  O163  1  0.62425774  0.00184651  0.89462297  1
  O  O164  1  0.62702723  0.25269405  0.15946090  1
  O  O165  1  0.63139429  0.24842740  0.42360831  1
  O  O166  1  0.63293373  0.26177583  0.66458728  1
  O  O167  1  0.62397321  0.25519303  0.90717516  1
  O  O168  1  0.62689438  0.49949761  0.16843007  1
  O  O169  1  0.63004836  0.48906313  0.41465890  1
  O  O170  1  0.63311672  0.49385769  0.65767682  1
  O  O171  1  0.62512327  0.50372169  0.91491494  1
  O  O172  1  0.62525615  0.75204569  0.16628778  1
  O  O173  1  0.62806063  0.75832796  0.41984555  1
  O  O174  1  0.62797010  0.74456480  0.65790420  1
  O  O175  1  0.62701929  0.73998730  0.90243703  1
  O  O176  1  0.87179764  -0.00033969  0.16296418  1
  O  O177  1  0.87504273  -0.00374047  0.42265125  1
  O  O178  1  0.88068578  0.00833659  0.66834789  1
  O  O179  1  0.87356165  0.00125809  0.89675649  1
  O  O180  1  0.87232505  0.24869641  0.16568471  1
  O  O181  1  0.87626345  0.24739674  0.42009730  1
  O  O182  1  0.88319367  0.26019543  0.66780926  1
  O  O183  1  0.87334106  0.25837493  0.90673156  1
  O  O184  1  0.87356753  0.50567869  0.16527575  1
  O  O185  1  0.87706575  0.49420307  0.41398770  1
  O  O186  1  0.88195550  0.49967329  0.66560185  1
  O  O187  1  0.87304051  0.49579973  0.91350243  1
  O  O188  1  0.87377163  0.74658896  0.16401458  1
  O  O189  1  0.87529409  0.75870404  0.41858293  1
  O  O190  1  0.88047096  0.73988461  0.66345271  1
  O  O191  1  0.87194440  0.74731357  0.90532681  1
  O  O192  1  0.00361069  0.12409323  0.15993229  1
  O  O193  1  -0.00563493  0.12131574  0.42099549  1
  O  O194  1  0.00670195  0.12973537  0.67028102  1
  O  O195  1  -0.00073632  0.12983473  0.90644536  1
  O  O196  1  0.00507204  0.37253502  0.16457662  1
  O  O197  1  -0.00026427  0.37322856  0.41850029  1
  O  O198  1  0.00188143  0.38106896  0.66778365  1
  O  O199  1  -0.00705213  0.37604814  0.90770870  1
  O  O200  1  -0.00457333  0.62558906  0.16292522  1
  O  O201  1  0.00202962  0.62845986  0.42033816  1
  O  O202  1  0.00406988  0.62397623  0.66772905  1
  O  O203  1  -0.00334601  0.62178723  0.91217888  1
  O  O204  1  0.00576571  0.87740185  0.16051104  1
  O  O205  1  -0.00369145  0.87586152  0.41900247  1
  O  O206  1  0.00821958  0.87732218  0.67095679  1
  O  O207  1  -0.00003770  0.87495376  0.89892784  1
  O  O208  1  0.25155789  0.12460733  0.16564424  1
  O  O209  1  0.24636461  0.11995079  0.41896463  1
  O  O210  1  0.23967320  0.13235355  0.66408927  1
  O  O211  1  0.25413220  0.12975163  0.90733112  1
  O  O212  1  0.24295007  0.37256493  0.16640490  1
  O  O213  1  0.23677042  0.37472917  0.41166588  1
  O  O214  1  0.23987721  0.37908541  0.65794495  1
  O  O215  1  0.25930137  0.37838758  0.90808366  1
  O  O216  1  0.24774630  0.62393393  0.16621984  1
  O  O217  1  0.24000282  0.62810160  0.41685267  1
  O  O218  1  0.24163886  0.62640343  0.66274577  1
  O  O219  1  0.25347276  0.62040833  0.90662528  1
  O  O220  1  0.24296799  0.87797008  0.16068001  1
  O  O221  1  0.25257557  0.87520598  0.41634117  1
  O  O222  1  0.25011309  0.87487151  0.66677758  1
  O  O223  1  0.25096303  0.87416580  0.90656476  1
  O  O224  1  0.50261429  0.12497061  0.16645699  1
  O  O225  1  0.50753182  0.12237322  0.42289894  1
  O  O226  1  0.50519129  0.13297072  0.65819461  1
  O  O227  1  0.49939259  0.13046560  0.90317043  1
  O  O228  1  0.50999764  0.37572391  0.16973048  1
  O  O229  1  0.51067268  0.36957393  0.41714894  1
  O  O230  1  0.50511636  0.37700666  0.64697156  1
  O  O231  1  0.49470576  0.37762568  0.90866896  1
  O  O232  1  0.50461030  0.62479094  0.16992903  1
  O  O233  1  0.50047161  0.62700286  0.41593018  1
  O  O234  1  0.50013937  0.62199460  0.65322815  1
  O  O235  1  0.50822007  0.62169250  0.90858382  1
  O  O236  1  0.50780805  0.87461300  0.16635961  1
  O  O237  1  0.49686970  0.87732408  0.41991725  1
  O  O238  1  0.49206841  0.87654228  0.66024530  1
  O  O239  1  0.50311811  0.87163944  0.90620168  1
  O  O240  1  0.74237905  0.12415594  0.16275096  1
  O  O241  1  0.75275759  0.12204164  0.42673008  1
  O  O242  1  0.75736213  0.13270611  0.66969451  1
  O  O243  1  0.74943665  0.13086699  0.89812426  1
  O  O244  1  0.74260217  0.37641631  0.16817748  1
  O  O245  1  0.75179313  0.37036956  0.41956423  1
  O  O246  1  0.76124469  0.37830358  0.66317260  1
  O  O247  1  0.75442088  0.37794208  0.91055245  1
  O  O248  1  0.75150260  0.62645830  0.16926142  1
  O  O249  1  0.75610519  0.62659666  0.42083910  1
  O  O250  1  0.75794270  0.61965128  0.65730210  1
  O  O251  1  0.74386551  0.61955556  0.90958756  1
  O  O252  1  0.74138546  0.87414226  0.16514108  1
  O  O253  1  0.75436397  0.87843067  0.41987521  1
  O  O254  1  0.75173129  0.87755909  0.66302025  1
  O  O255  1  0.74689702  0.87355205  0.90320369  1
  O  O256  1  0.13027385  0.12616737  0.04594973  1
  O  O257  1  0.12356219  0.11566261  0.28836698  1
  O  O258  1  0.11978867  0.12165371  0.55516616  1
  O  O259  1  0.12696402  0.13844575  0.77833180  1
  O  O260  1  0.12759616  0.37396763  0.04830888  1
  O  O261  1  0.11918477  0.37243924  0.29870918  1
  O  O262  1  0.11701719  0.37673689  0.54964531  1
  O  O263  1  0.12934756  0.37961953  0.78172549  1
  O  O264  1  0.12513800  0.62081063  0.03233158  1
  O  O265  1  0.11860224  0.62832351  0.29815283  1
  O  O266  1  0.12155858  0.62450613  0.55288281  1
  O  O267  1  0.11901504  0.61861722  0.78320030  1
  O  O268  1  0.12604838  0.87720846  0.04380236  1
  O  O269  1  0.12349539  0.87478026  0.30022451  1
  O  O270  1  0.12478816  0.87301603  0.56226468  1
  O  O271  1  0.13652902  0.87423195  0.77286197  1
  O  O272  1  0.37794973  0.12551662  0.04768751  1
  O  O273  1  0.38161771  0.12392775  0.29258744  1
  O  O274  1  0.36895514  0.12708450  0.54405315  1
  O  O275  1  0.37936455  0.13203691  0.77019137  1
  O  O276  1  0.38314135  0.37775668  0.04016969  1
  O  O277  1  0.37656520  0.36441980  0.29511303  1
  O  O278  1  0.36862679  0.37384997  0.52449338  1
  O  O279  1  0.37618047  0.38172345  0.79092625  1
  O  O280  1  0.38087615  0.62117001  0.03695835  1
  O  O281  1  0.36946182  0.62994990  0.29193985  1
  O  O282  1  0.36600695  0.62776881  0.53215453  1
  O  O283  1  0.38228828  0.62283825  0.77654076  1
  O  O284  1  0.38067454  0.87293909  0.03313354  1
  O  O285  1  0.37555164  0.87858088  0.30262281  1
  O  O286  1  0.36955044  0.87627061  0.55065636  1
  O  O287  1  0.37493977  0.87364223  0.77836464  1
  O  O288  1  0.62233628  0.12323193  0.04338152  1
  O  O289  1  0.62806533  0.12327073  0.30540037  1
  O  O290  1  0.63601687  0.13282349  0.56262344  1
  O  O291  1  0.62391923  0.13983932  0.76700028  1
  O  O292  1  0.62405232  0.37735914  0.04988719  1
  O  O293  1  0.62844073  0.36702497  0.30398290  1
  O  O294  1  0.63548006  0.37210131  0.54650111  1
  O  O295  1  0.63058658  0.38152385  0.77969546  1
  O  O296  1  0.62536057  0.62457105  0.05102594  1
  O  O297  1  0.63586730  0.62717739  0.29527707  1
  O  O298  1  0.62961357  0.62366412  0.52656505  1
  O  O299  1  0.62611633  0.61548225  0.79089872  1
  O  O300  1  0.62256657  0.87283940  0.04790031  1
  O  O301  1  0.62424978  0.88119416  0.30694316  1
  O  O302  1  0.62575652  0.88365283  0.54171955  1
  O  O303  1  0.62502030  0.87307642  0.76986943  1
  O  O304  1  0.87240019  0.12980537  0.02997160  1
  O  O305  1  0.87150836  0.12185572  0.30248430  1
  O  O306  1  0.88127712  0.13188188  0.56542981  1
  O  O307  1  0.88687287  0.13399123  0.77230040  1
  O  O308  1  0.86944151  0.37368111  0.03679132  1
  O  O309  1  0.87403415  0.37127764  0.29867872  1
  O  O310  1  0.88023115  0.37442790  0.55109888  1
  O  O311  1  0.87328583  0.38237573  0.79458963  1
  O  O312  1  0.87049556  0.62527835  0.05119301  1
  O  O313  1  0.87604535  0.63025924  0.28764016  1
  O  O314  1  0.88307834  0.62128956  0.55243757  1
  O  O315  1  0.88061215  0.62016720  0.77979722  1
  O  O316  1  0.86683052  0.87528059  0.03202635  1
  O  O317  1  0.87408501  0.87739255  0.30418649  1
  O  O318  1  0.88444998  0.87675947  0.54810352  1
  O  O319  1  0.87091031  0.87587995  0.77210690  1
