# generated using pymatgen
data_VFe(PbO3)2
_symmetry_space_group_name_H-M   'P 1'
_cell_length_a   15.39469158
_cell_length_b   15.38699640
_cell_length_c   18.49289569
_cell_angle_alpha   89.99140929
_cell_angle_beta   89.99543415
_cell_angle_gamma   89.99030208
_symmetry_Int_Tables_number   1
_chemical_formula_structural   VFe(PbO3)2
_chemical_formula_sum   'V32 Fe32 Pb64 O192'
_cell_volume   4380.56120061
_cell_formula_units_Z   32
loop_
 _symmetry_equiv_pos_site_id
 _symmetry_equiv_pos_as_xyz
  1  'x, y, z'
loop_
 _atom_site_type_symbol
 _atom_site_label
 _atom_site_symmetry_multiplicity
 _atom_site_fract_x
 _atom_site_fract_y
 _atom_site_fract_z
 _atom_site_occupancy
  V  V0  1  0.12711774  0.37169613  0.89535545  1
  V  V1  1  0.37429693  0.62906812  0.39026398  1
  V  V2  1  0.62502528  0.62343184  0.89523855  1
  V  V3  1  0.63275805  0.62606913  0.38694715  1
  V  V4  1  0.12157256  0.87596482  0.64892228  1
  V  V5  1  0.37761178  0.62518284  0.13434904  1
  V  V6  1  0.37880519  0.12620406  0.89228835  1
  V  V7  1  0.62306394  0.12889168  0.14431993  1
  V  V8  1  0.62521213  0.62296129  0.63811664  1
  V  V9  1  0.12598903  0.62548347  0.38933514  1
  V  V10  1  0.37114257  0.12530840  0.64121862  1
  V  V11  1  0.37432768  0.87600693  0.64853633  1
  V  V12  1  0.12635711  0.37672232  0.13336592  1
  V  V13  1  0.62432329  0.12518905  0.63867450  1
  V  V14  1  0.12330748  0.37254482  0.64177812  1
  V  V15  1  0.37614005  0.62416359  0.89005198  1
  V  V16  1  0.87848209  0.12379554  0.64032798  1
  V  V17  1  0.62676118  0.87383445  0.13950477  1
  V  V18  1  0.36866672  0.87467701  0.39156816  1
  V  V19  1  0.12603474  0.12707078  0.38500034  1
  V  V20  1  0.87753041  0.62456528  0.64458661  1
  V  V21  1  0.62248243  0.87734610  0.88770088  1
  V  V22  1  0.37723661  0.87348151  0.13521796  1
  V  V23  1  0.87366228  0.87286336  0.89126084  1
  V  V24  1  0.87431388  0.62501293  0.13458063  1
  V  V25  1  0.11844043  0.12462595  0.90567225  1
  V  V26  1  0.62458195  0.37307768  0.89327004  1
  V  V27  1  0.62630846  0.37433868  0.63661394  1
  V  V28  1  0.37562093  0.37615871  0.89726775  1
  V  V29  1  0.11876407  0.62186692  0.89757376  1
  V  V30  1  0.12649788  0.87371370  0.38810182  1
  V  V31  1  0.37230923  0.62377236  0.64248427  1
  Fe  Fe32  1  0.87621249  0.12323124  0.37560634  1
  Fe  Fe33  1  0.62472769  0.37935746  0.14128662  1
  Fe  Fe34  1  0.12526150  0.62510037  0.12495463  1
  Fe  Fe35  1  0.37469284  0.37346359  0.63572330  1
  Fe  Fe36  1  0.37773285  0.87504387  0.88421782  1
  Fe  Fe37  1  0.12519046  0.62300747  0.63992371  1
  Fe  Fe38  1  0.86984809  0.12624431  0.89509444  1
  Fe  Fe39  1  0.87480035  0.37650650  0.89069496  1
  Fe  Fe40  1  0.37005659  0.37666800  0.38101848  1
  Fe  Fe41  1  0.62297642  0.87104679  0.39013116  1
  Fe  Fe42  1  0.12631676  0.12392454  0.12247826  1
  Fe  Fe43  1  0.62349615  0.37788100  0.37729757  1
  Fe  Fe44  1  0.87954696  0.62823768  0.38014671  1
  Fe  Fe45  1  0.87891571  0.37736476  0.37785301  1
  Fe  Fe46  1  0.87411611  0.87342798  0.13596344  1
  Fe  Fe47  1  0.12445053  0.12503339  0.63742524  1
  Fe  Fe48  1  0.87491152  0.37699197  0.13784127  1
  Fe  Fe49  1  0.62603328  0.87455405  0.63407793  1
  Fe  Fe50  1  0.62328084  0.12620390  0.88649974  1
  Fe  Fe51  1  0.62484067  0.62940225  0.13309957  1
  Fe  Fe52  1  0.12593440  0.37659374  0.37827090  1
  Fe  Fe53  1  0.87770760  0.87235679  0.37989571  1
  Fe  Fe54  1  0.87424619  0.12368408  0.13595877  1
  Fe  Fe55  1  0.87368448  0.87617588  0.63898317  1
  Fe  Fe56  1  0.62385479  0.12378774  0.37704188  1
  Fe  Fe57  1  0.87094955  0.62333571  0.88669892  1
  Fe  Fe58  1  0.12699951  0.87627682  0.89927352  1
  Fe  Fe59  1  0.37601344  0.37632813  0.13402277  1
  Fe  Fe60  1  0.12596477  0.87276705  0.12216031  1
  Fe  Fe61  1  0.37706217  0.12217249  0.14563583  1
  Fe  Fe62  1  0.37160450  0.12191080  0.37573643  1
  Fe  Fe63  1  0.87381435  0.37301847  0.63858781  1
  Pb  Pb64  1  -0.01640654  -0.00314841  0.01044735  1
  Pb  Pb65  1  -0.00210652  -0.00242366  0.23374334  1
  Pb  Pb66  1  -0.00301042  0.00161263  0.49552121  1
  Pb  Pb67  1  0.00284793  -0.00193275  0.75894931  1
  Pb  Pb68  1  -0.01489369  0.25124594  0.00989741  1
  Pb  Pb69  1  -0.00244901  0.24847058  0.24042126  1
  Pb  Pb70  1  -0.00456890  0.25400174  0.49241930  1
  Pb  Pb71  1  -0.01248781  0.24683988  0.75806834  1
  Pb  Pb72  1  -0.00917935  0.49651933  0.00394953  1
  Pb  Pb73  1  0.00213763  0.49571453  0.24640104  1
  Pb  Pb74  1  -0.00333969  0.49459974  0.49781492  1
  Pb  Pb75  1  -0.00857246  0.49455007  0.75645512  1
  Pb  Pb76  1  -0.00360844  0.75973812  0.00488200  1
  Pb  Pb77  1  -0.00309280  0.75047019  0.24211483  1
  Pb  Pb78  1  -0.00588057  0.75313688  0.50201980  1
  Pb  Pb79  1  -0.00150612  0.74731288  0.75702177  1
  Pb  Pb80  1  0.25427916  0.00606770  0.00293133  1
  Pb  Pb81  1  0.24794179  0.00505491  0.23967305  1
  Pb  Pb82  1  0.24272867  0.00745084  0.50319086  1
  Pb  Pb83  1  0.24428190  -0.00838052  0.76359277  1
  Pb  Pb84  1  0.25803683  0.24448110  0.00823365  1
  Pb  Pb85  1  0.25580763  0.24960107  0.24240379  1
  Pb  Pb86  1  0.25410837  0.25491180  0.49367723  1
  Pb  Pb87  1  0.24567230  0.24914065  0.75281515  1
  Pb  Pb88  1  0.25005772  0.50359591  0.00423709  1
  Pb  Pb89  1  0.24888618  0.49151047  0.24784593  1
  Pb  Pb90  1  0.24805711  0.49745830  0.50056481  1
  Pb  Pb91  1  0.24801308  0.49972141  0.75150854  1
  Pb  Pb92  1  0.24557132  0.75263054  -0.00141260  1
  Pb  Pb93  1  0.24510580  0.74889544  0.23963044  1
  Pb  Pb94  1  0.24182230  0.74396826  0.50785198  1
  Pb  Pb95  1  0.24598553  0.75781540  0.75996345  1
  Pb  Pb96  1  0.49347781  0.01226005  0.00787179  1
  Pb  Pb97  1  0.51074067  -0.00304421  0.25710399  1
  Pb  Pb98  1  0.50437150  0.00125113  0.49427499  1
  Pb  Pb99  1  0.49932581  0.00072512  0.74983748  1
  Pb  Pb100  1  0.49980269  0.25991951  0.01037576  1
  Pb  Pb101  1  0.49636425  0.25838837  0.24959550  1
  Pb  Pb102  1  0.49633181  0.25067621  0.48392589  1
  Pb  Pb103  1  0.50545369  0.24640407  0.74976531  1
  Pb  Pb104  1  0.50624479  0.49332269  0.00897340  1
  Pb  Pb105  1  0.50209448  0.49461347  0.24756459  1
  Pb  Pb106  1  0.49312931  0.49297245  0.49582677  1
  Pb  Pb107  1  0.50120561  0.49792692  0.74814825  1
  Pb  Pb108  1  0.50504037  0.74609681  0.00040284  1
  Pb  Pb109  1  0.50600889  0.75524597  0.25238807  1
  Pb  Pb110  1  0.50249727  0.75366171  0.50488975  1
  Pb  Pb111  1  0.49718818  0.75151298  0.75010205  1
  Pb  Pb112  1  0.75238202  0.00226945  0.00247645  1
  Pb  Pb113  1  0.75247389  0.00488770  0.25172709  1
  Pb  Pb114  1  0.75173150  -0.00159758  0.48794663  1
  Pb  Pb115  1  0.74970287  0.00715810  0.74981846  1
  Pb  Pb116  1  0.75321966  0.24984201  0.00375763  1
  Pb  Pb117  1  0.75910598  0.25198886  0.24760158  1
  Pb  Pb118  1  0.75064639  0.25074543  0.48376222  1
  Pb  Pb119  1  0.75176434  0.24116234  0.75498468  1
  Pb  Pb120  1  0.74777895  0.49293101  0.00519896  1
  Pb  Pb121  1  0.74972639  0.49709784  0.24463599  1
  Pb  Pb122  1  0.76096384  0.49039025  0.49470197  1
  Pb  Pb123  1  0.75706343  0.49791297  0.75349210  1
  Pb  Pb124  1  0.74795550  0.74940855  0.00158654  1
  Pb  Pb125  1  0.76136997  0.75107004  0.25226366  1
  Pb  Pb126  1  0.75765684  0.76361234  0.50087009  1
  Pb  Pb127  1  0.75117376  0.74754897  0.74865523  1
  O  O128  1  0.12716412  -0.00277054  0.14732789  1
  O  O129  1  0.12804345  -0.00642421  0.41243257  1
  O  O130  1  0.12388122  -0.00289434  0.67349069  1
  O  O131  1  0.12913770  0.00894743  0.91433714  1
  O  O132  1  0.12758894  0.25840094  0.15265014  1
  O  O133  1  0.12678828  0.24322330  0.40299201  1
  O  O134  1  0.12516440  0.25291378  0.66905106  1
  O  O135  1  0.13267207  0.25668425  0.91980191  1
  O  O136  1  0.12684166  0.49955660  0.15696275  1
  O  O137  1  0.12912744  0.50960609  0.40847559  1
  O  O138  1  0.12584856  0.49215557  0.66759445  1
  O  O139  1  0.13155349  0.49889878  0.91785669  1
  O  O140  1  0.12955366  0.74807787  0.15492120  1
  O  O141  1  0.13042379  0.75385650  0.41607618  1
  O  O142  1  0.12367755  0.75562882  0.67070081  1
  O  O143  1  0.13003668  0.73962278  0.90989963  1
  O  O144  1  0.37794012  -0.01251591  0.16357792  1
  O  O145  1  0.36993406  -0.00884823  0.41195083  1
  O  O146  1  0.37511052  0.00537262  0.66990943  1
  O  O147  1  0.37972541  0.00641667  0.91190405  1
  O  O148  1  0.37556337  0.25049686  0.16058308  1
  O  O149  1  0.36979944  0.24789422  0.40610578  1
  O  O150  1  0.37511232  0.24348548  0.66453993  1
  O  O151  1  0.37943538  0.24930059  0.91818384  1
  O  O152  1  0.37688773  0.50898768  0.15425300  1
  O  O153  1  0.36727332  0.51086704  0.41278143  1
  O  O154  1  0.37378081  0.50093392  0.66815502  1
  O  O155  1  0.37986732  0.50345881  0.91700739  1
  O  O156  1  0.37645323  0.75324199  0.16187535  1
  O  O157  1  0.36777272  0.74976843  0.42045782  1
  O  O158  1  0.37366900  0.74894810  0.67100685  1
  O  O159  1  0.37945800  0.74254512  0.90954160  1
  O  O160  1  0.62199083  -0.00978387  0.16513068  1
  O  O161  1  0.62122880  -0.00252754  0.41362890  1
  O  O162  1  0.62418033  0.00496428  0.66227000  1
  O  O163  1  0.62610132  -0.00761273  0.91005370  1
  O  O164  1  0.62343058  0.24464047  0.15883258  1
  O  O165  1  0.62251564  0.25157059  0.40483982  1
  O  O166  1  0.62358454  0.24932326  0.66468499  1
  O  O167  1  0.62199045  0.25681553  0.91555733  1
  O  O168  1  0.62196062  0.50779218  0.16286451  1
  O  O169  1  0.61895382  0.51244209  0.41270718  1
  O  O170  1  0.62502296  0.50055648  0.66750745  1
  O  O171  1  0.62236410  0.49699620  0.91691492  1
  O  O172  1  0.62062212  0.75522456  0.16479874  1
  O  O173  1  0.61716882  0.73928864  0.41887488  1
  O  O174  1  0.62399847  0.74285718  0.66435803  1
  O  O175  1  0.62656843  0.75431824  0.91461906  1
  O  O176  1  0.87295177  -0.00168152  0.15820859  1
  O  O177  1  0.87974322  -0.00188084  0.40813488  1
  O  O178  1  0.87467483  0.00629035  0.66656242  1
  O  O179  1  0.87332184  -0.00635588  0.91490516  1
  O  O180  1  0.87398546  0.24993260  0.15829127  1
  O  O181  1  0.87937803  0.24916684  0.40745075  1
  O  O182  1  0.87562057  0.24355092  0.66487801  1
  O  O183  1  0.87467497  0.25294599  0.91985696  1
  O  O184  1  0.87642832  0.50801438  0.15784750  1
  O  O185  1  0.87987602  0.50470210  0.41263481  1
  O  O186  1  0.87503831  0.50325608  0.66695874  1
  O  O187  1  0.87451922  0.50041749  0.91874448  1
  O  O188  1  0.87385800  0.74480494  0.15930230  1
  O  O189  1  0.88008210  0.74887416  0.41796442  1
  O  O190  1  0.87657776  0.74438875  0.66904473  1
  O  O191  1  0.87225691  0.75317903  0.91295593  1
  O  O192  1  0.00401791  0.12651494  0.15263606  1
  O  O193  1  0.00945068  0.12007355  0.40939282  1
  O  O194  1  -0.00443354  0.12408064  0.66684908  1
  O  O195  1  0.00308975  0.12921407  0.91508114  1
  O  O196  1  0.00707562  0.37911151  0.15732155  1
  O  O197  1  0.00482484  0.37713219  0.41379424  1
  O  O198  1  0.00544038  0.37291628  0.66656981  1
  O  O199  1  0.01089518  0.37694887  0.91547825  1
  O  O200  1  -0.00397050  0.62691681  0.15210785  1
  O  O201  1  0.01098677  0.63089444  0.40961060  1
  O  O202  1  -0.00362285  0.62395263  0.66790274  1
  O  O203  1  0.00330789  0.62177695  0.91108563  1
  O  O204  1  0.00221231  0.87101558  0.15489819  1
  O  O205  1  0.01082398  0.87227903  0.41087032  1
  O  O206  1  0.00234013  0.87670379  0.67301662  1
  O  O207  1  -0.00735836  0.87302317  0.91242988  1
  O  O208  1  0.24729046  0.12357968  0.15914356  1
  O  O209  1  0.24350654  0.11859288  0.41248160  1
  O  O210  1  0.25452594  0.12451094  0.66706488  1
  O  O211  1  0.26235615  0.12850919  0.91757779  1
  O  O212  1  0.24669898  0.38019095  0.15585089  1
  O  O213  1  0.24622329  0.37758087  0.41581211  1
  O  O214  1  0.24494014  0.37193050  0.66769283  1
  O  O215  1  0.25118229  0.37753048  0.92035691  1
  O  O216  1  0.25951011  0.62835610  0.15792198  1
  O  O217  1  0.24833043  0.63065739  0.41953963  1
  O  O218  1  0.25121288  0.62494319  0.67228577  1
  O  O219  1  0.25986826  0.62171236  0.91265502  1
  O  O220  1  0.25793974  0.87179574  0.15201727  1
  O  O221  1  0.24846833  0.87305275  0.42050211  1
  O  O222  1  0.24474528  0.87652731  0.67293103  1
  O  O223  1  0.25593582  0.87533421  0.91534170  1
  O  O224  1  0.50706733  0.11818973  0.16728590  1
  O  O225  1  0.49541761  0.12079351  0.40648531  1
  O  O226  1  0.49615416  0.12509692  0.66485124  1
  O  O227  1  0.49800701  0.12670414  0.91829207  1
  O  O228  1  0.49848184  0.37647054  0.16515288  1
  O  O229  1  0.49682005  0.38163257  0.40851300  1
  O  O230  1  0.50397911  0.37509485  0.66533946  1
  O  O231  1  0.50240104  0.37668470  0.91865786  1
  O  O232  1  0.49221446  0.63144388  0.16235333  1
  O  O233  1  0.48844323  0.62821235  0.41300710  1
  O  O234  1  0.49885831  0.62308782  0.66744396  1
  O  O235  1  0.49972059  0.62495193  0.91663079  1
  O  O236  1  0.49834189  0.87153517  0.16526222  1
  O  O237  1  0.48655106  0.86932734  0.41680944  1
  O  O238  1  0.49885935  0.87511624  0.66768366  1
  O  O239  1  0.50666566  0.87189833  0.90940440  1
  O  O240  1  0.74152460  0.11848055  0.16127084  1
  O  O241  1  0.75057934  0.12343719  0.40837245  1
  O  O242  1  0.75225228  0.12636077  0.66346154  1
  O  O243  1  0.74392743  0.12535641  0.92088678  1
  O  O244  1  0.75027801  0.37893572  0.16138861  1
  O  O245  1  0.75002180  0.38058250  0.40634291  1
  O  O246  1  0.74519832  0.37493877  0.66393887  1
  O  O247  1  0.74235549  0.37690410  0.91357303  1
  O  O248  1  0.75491833  0.62749375  0.15884282  1
  O  O249  1  0.74630471  0.62727091  0.40295080  1
  O  O250  1  0.75240022  0.62325071  0.66557412  1
  O  O251  1  0.74494322  0.62452701  0.91752653  1
  O  O252  1  0.74259244  0.87103183  0.15692537  1
  O  O253  1  0.75047599  0.86945656  0.40976695  1
  O  O254  1  0.74955671  0.87368877  0.66628821  1
  O  O255  1  0.74895226  0.87376395  0.91358019  1
  O  O256  1  0.13655083  0.13091539  0.01950661  1
  O  O257  1  0.12769750  0.12008697  0.29419273  1
  O  O258  1  0.12639898  0.11919636  0.53883041  1
  O  O259  1  0.13000344  0.13443996  0.81374193  1
  O  O260  1  0.12608724  0.37996991  0.04188644  1
  O  O261  1  0.12683893  0.38525778  0.27883251  1
  O  O262  1  0.12440211  0.37240454  0.55049984  1
  O  O263  1  0.12976832  0.37110817  0.80403611  1
  O  O264  1  0.13390006  0.62379606  0.02408922  1
  O  O265  1  0.13175037  0.63061735  0.29826813  1
  O  O266  1  0.12959346  0.62615948  0.54121168  1
  O  O267  1  0.12706909  0.61661502  0.80568741  1
  O  O268  1  0.12274408  0.86546265  0.01943705  1
  O  O269  1  0.13085673  0.87147914  0.29747205  1
  O  O270  1  0.12247952  0.87814240  0.55793278  1
  O  O271  1  0.12696615  0.88043402  0.79645186  1
  O  O272  1  0.38030806  0.11414923  0.04324764  1
  O  O273  1  0.36436254  0.11996660  0.27525159  1
  O  O274  1  0.37072405  0.12149396  0.55037191  1
  O  O275  1  0.37931990  0.12961984  0.80097483  1
  O  O276  1  0.38466482  0.37506338  0.03261014  1
  O  O277  1  0.36765851  0.38101849  0.28025714  1
  O  O278  1  0.37214944  0.37678122  0.53651036  1
  O  O279  1  0.37585196  0.37358171  0.80593784  1
  O  O280  1  0.37943683  0.63063887  0.04287853  1
  O  O281  1  0.37019734  0.63186030  0.29961221  1
  O  O282  1  0.37093380  0.62508513  0.55135893  1
  O  O283  1  0.37848132  0.62011990  0.79876901  1
  O  O284  1  0.38505806  0.87473025  0.04383853  1
  O  O285  1  0.36659435  0.87022869  0.30105389  1
  O  O286  1  0.36875231  0.87673595  0.55775723  1
  O  O287  1  0.37301302  0.87683284  0.78356522  1
  O  O288  1  0.61954063  0.11858432  0.05227532  1
  O  O289  1  0.62827560  0.11335132  0.27688340  1
  O  O290  1  0.62264784  0.12748800  0.54792647  1
  O  O291  1  0.62598947  0.13116230  0.78618238  1
  O  O292  1  0.61834484  0.37872085  0.03886203  1
  O  O293  1  0.62044782  0.38227077  0.27698387  1
  O  O294  1  0.62407360  0.37706568  0.54562602  1
  O  O295  1  0.62134290  0.37453504  0.80205304  1
  O  O296  1  0.62104146  0.63358019  0.03262252  1
  O  O297  1  0.62180620  0.63007484  0.29585707  1
  O  O298  1  0.62436655  0.62045872  0.54767894  1
  O  O299  1  0.62367147  0.62323744  0.80381630  1
  O  O300  1  0.61988478  0.87465587  0.04801024  1
  O  O301  1  0.61366251  0.87003040  0.29020327  1
  O  O302  1  0.61912157  0.86847949  0.53391022  1
  O  O303  1  0.62544065  0.87415509  0.79650144  1
  O  O304  1  0.87380987  0.12039579  0.03173399  1
  O  O305  1  0.87376874  0.12554643  0.27495780  1
  O  O306  1  0.88001186  0.12267276  0.54941903  1
  O  O307  1  0.86892387  0.13100007  0.79361555  1
  O  O308  1  0.87913494  0.37784509  0.03506139  1
  O  O309  1  0.88293836  0.37825938  0.27670086  1
  O  O310  1  0.87808869  0.38137263  0.53870150  1
  O  O311  1  0.87970476  0.37772675  0.78859356  1
  O  O312  1  0.87145164  0.62628867  0.04264127  1
  O  O313  1  0.87745178  0.63578169  0.28089574  1
  O  O314  1  0.87711426  0.62595022  0.55346249  1
  O  O315  1  0.87223195  0.62016129  0.78682483  1
  O  O316  1  0.87761148  0.87345128  0.03366855  1
  O  O317  1  0.87904501  0.86376122  0.27898829  1
  O  O318  1  0.87871048  0.86730540  0.53939606  1
  O  O319  1  0.87347848  0.87407220  0.79955075  1
