# generated using pymatgen
data_VFe(PbO3)2
_symmetry_space_group_name_H-M   'P 1'
_cell_length_a   15.38206424
_cell_length_b   15.38094459
_cell_length_c   18.54509108
_cell_angle_alpha   90.00363865
_cell_angle_beta   89.98846872
_cell_angle_gamma   90.02644144
_symmetry_Int_Tables_number   1
_chemical_formula_structural   VFe(PbO3)2
_chemical_formula_sum   'V32 Fe32 Pb64 O192'
_cell_volume   4387.59510227
_cell_formula_units_Z   32
loop_
 _symmetry_equiv_pos_site_id
 _symmetry_equiv_pos_as_xyz
  1  'x, y, z'
loop_
 _atom_site_type_symbol
 _atom_site_label
 _atom_site_symmetry_multiplicity
 _atom_site_fract_x
 _atom_site_fract_y
 _atom_site_fract_z
 _atom_site_occupancy
  V  V0  1  0.12816230  0.87074251  0.89063091  1
  V  V1  1  0.62689873  0.87869567  0.38875897  1
  V  V2  1  0.12807386  0.87403433  0.64099327  1
  V  V3  1  0.37297890  0.62417593  0.63898241  1
  V  V4  1  0.37990818  0.87752027  0.38542778  1
  V  V5  1  0.62588767  0.12212212  0.38889052  1
  V  V6  1  0.37555201  0.12587651  0.89546146  1
  V  V7  1  0.12449682  0.12570844  0.88932961  1
  V  V8  1  0.12897870  0.87878265  0.38904260  1
  V  V9  1  0.12682681  0.12255583  0.64088508  1
  V  V10  1  0.12355320  0.62170813  0.88893908  1
  V  V11  1  0.36950188  0.37714268  0.89126053  1
  V  V12  1  0.62968425  0.87259381  0.13088465  1
  V  V13  1  0.87632773  0.12588468  0.13290250  1
  V  V14  1  0.87029956  0.62185595  0.88797394  1
  V  V15  1  0.87620855  0.37632569  0.14113112  1
  V  V16  1  0.12101379  0.87295133  0.13494787  1
  V  V17  1  0.62325175  0.37730985  0.89206617  1
  V  V18  1  0.12317348  0.62885768  0.63600909  1
  V  V19  1  0.62478060  0.12477996  0.64711596  1
  V  V20  1  0.37595734  0.37478943  0.14011376  1
  V  V21  1  0.87607503  0.62718870  0.14095133  1
  V  V22  1  0.62024845  0.62383793  0.88975091  1
  V  V23  1  0.37773873  0.37548546  0.38657762  1
  V  V24  1  0.37565150  0.87702106  0.64403008  1
  V  V25  1  0.87330725  0.12309188  0.39142580  1
  V  V26  1  0.87595148  0.12382877  0.65212727  1
  V  V27  1  0.87456452  0.87731396  0.39269582  1
  V  V28  1  0.87322848  0.37412613  0.63885068  1
  V  V29  1  0.12593891  0.37571621  0.14438259  1
  V  V30  1  0.37636364  0.12296613  0.38894293  1
  V  V31  1  0.62127968  0.37538758  0.63848239  1
  Fe  Fe32  1  0.87654905  0.12847105  0.87721364  1
  Fe  Fe33  1  0.12383743  0.11973278  0.38468625  1
  Fe  Fe34  1  0.12615878  0.37525552  0.63372480  1
  Fe  Fe35  1  0.37324751  0.12835901  0.13073659  1
  Fe  Fe36  1  0.87678255  0.87424900  0.12884640  1
  Fe  Fe37  1  0.37296455  0.87593547  0.12589976  1
  Fe  Fe38  1  0.37593737  0.37230601  0.63134671  1
  Fe  Fe39  1  0.62681040  0.37590372  0.14003493  1
  Fe  Fe40  1  0.87249355  0.37212350  0.38443571  1
  Fe  Fe41  1  0.37505902  0.62884431  0.37959651  1
  Fe  Fe42  1  0.37336336  0.87305949  0.89805426  1
  Fe  Fe43  1  0.12539495  0.62665023  0.37983165  1
  Fe  Fe44  1  0.87429359  0.62691106  0.39036557  1
  Fe  Fe45  1  0.62434582  0.87279655  0.88111763  1
  Fe  Fe46  1  0.62335096  0.62424650  0.63446153  1
  Fe  Fe47  1  0.62756507  0.12670211  0.12414230  1
  Fe  Fe48  1  0.37273137  0.61970208  0.89249700  1
  Fe  Fe49  1  0.87735944  0.37977785  0.88537786  1
  Fe  Fe50  1  0.37480935  0.12381630  0.63683623  1
  Fe  Fe51  1  0.12160578  0.62375827  0.14760897  1
  Fe  Fe52  1  0.12247013  0.12670232  0.13638174  1
  Fe  Fe53  1  0.62356695  0.87392144  0.64460648  1
  Fe  Fe54  1  0.87683354  0.87376779  0.63983970  1
  Fe  Fe55  1  0.62420839  0.12700847  0.89183048  1
  Fe  Fe56  1  0.12332636  0.37052659  0.38644290  1
  Fe  Fe57  1  0.37348502  0.62501823  0.14021238  1
  Fe  Fe58  1  0.62287102  0.62735140  0.38354207  1
  Fe  Fe59  1  0.87334885  0.62410042  0.62882957  1
  Fe  Fe60  1  0.87786924  0.87316887  0.88812540  1
  Fe  Fe61  1  0.62792982  0.62487777  0.13692811  1
  Fe  Fe62  1  0.12567423  0.37639475  0.88165929  1
  Fe  Fe63  1  0.62454548  0.36979120  0.38024181  1
  Pb  Pb64  1  -0.00412558  0.00010350  -0.00430555  1
  Pb  Pb65  1  0.00402159  0.00299754  0.24635462  1
  Pb  Pb66  1  -0.00766527  -0.00558432  0.50566400  1
  Pb  Pb67  1  -0.00508325  -0.00430560  0.75446151  1
  Pb  Pb68  1  -0.00070029  0.25456899  -0.00662965  1
  Pb  Pb69  1  -0.00167850  0.25578931  0.25569552  1
  Pb  Pb70  1  0.00764139  0.25370337  0.49868272  1
  Pb  Pb71  1  -0.00227026  0.25400445  0.75156856  1
  Pb  Pb72  1  0.00794280  0.50393109  0.00295499  1
  Pb  Pb73  1  -0.00540869  0.49130258  0.25950396  1
  Pb  Pb74  1  -0.00027352  0.50205693  0.48898158  1
  Pb  Pb75  1  0.00022697  0.48759026  0.74928524  1
  Pb  Pb76  1  0.00170243  0.75000807  0.00265871  1
  Pb  Pb77  1  -0.00438145  0.74114362  0.25576331  1
  Pb  Pb78  1  -0.00779194  0.74918841  0.50103418  1
  Pb  Pb79  1  -0.00761357  0.75133815  0.74923168  1
  Pb  Pb80  1  0.24666449  0.01158103  0.00667016  1
  Pb  Pb81  1  0.24728654  0.00570540  0.24205829  1
  Pb  Pb82  1  0.25533675  0.00770707  0.50121400  1
  Pb  Pb83  1  0.25721562  -0.00826949  0.75691979  1
  Pb  Pb84  1  0.24744761  0.24559813  0.00374290  1
  Pb  Pb85  1  0.24028334  0.24755303  0.25205096  1
  Pb  Pb86  1  0.24933401  0.25533967  0.49988746  1
  Pb  Pb87  1  0.25046970  0.25517412  0.74457077  1
  Pb  Pb88  1  0.24785419  0.51559369  0.01164705  1
  Pb  Pb89  1  0.24760239  0.50663593  0.25402824  1
  Pb  Pb90  1  0.24632117  0.49241134  0.49286333  1
  Pb  Pb91  1  0.24736805  0.49760837  0.74635376  1
  Pb  Pb92  1  0.25754289  0.74572134  0.00691476  1
  Pb  Pb93  1  0.25222749  0.74689588  0.24494798  1
  Pb  Pb94  1  0.25081801  0.74626182  0.49432612  1
  Pb  Pb95  1  0.26271874  0.74792348  0.75884045  1
  Pb  Pb96  1  0.50307773  -0.00443634  -0.00364903  1
  Pb  Pb97  1  0.49880032  0.00215517  0.23353233  1
  Pb  Pb98  1  0.50317080  -0.00187869  0.50432858  1
  Pb  Pb99  1  0.51079886  0.00255741  0.76215652  1
  Pb  Pb100  1  0.50308411  0.25071979  0.00457713  1
  Pb  Pb101  1  0.50739955  0.24923437  0.24308348  1
  Pb  Pb102  1  0.48870990  0.24670163  0.50091977  1
  Pb  Pb103  1  0.50237978  0.24605183  0.75320641  1
  Pb  Pb104  1  0.50880157  0.50060205  0.00994375  1
  Pb  Pb105  1  0.50567969  0.50902257  0.24934026  1
  Pb  Pb106  1  0.50442407  0.50493179  0.49154531  1
  Pb  Pb107  1  0.48865133  0.50899611  0.75259502  1
  Pb  Pb108  1  0.49199172  0.74871126  0.00028311  1
  Pb  Pb109  1  0.49826633  0.74454996  0.24243971  1
  Pb  Pb110  1  0.51215507  0.74950484  0.50227564  1
  Pb  Pb111  1  0.49880702  0.75511300  0.75418610  1
  Pb  Pb112  1  0.75069350  0.00247174  -0.01378235  1
  Pb  Pb113  1  0.74878012  -0.00136784  0.23921075  1
  Pb  Pb114  1  0.74769614  -0.01263164  0.51063325  1
  Pb  Pb115  1  0.75111826  -0.01071722  0.75686504  1
  Pb  Pb116  1  0.75016835  0.24928295  -0.00551637  1
  Pb  Pb117  1  0.74892670  0.25489884  0.24756177  1
  Pb  Pb118  1  0.74742809  0.25045047  0.49833098  1
  Pb  Pb119  1  0.75059922  0.24531111  0.75705065  1
  Pb  Pb120  1  0.73994218  0.49905499  0.00803574  1
  Pb  Pb121  1  0.74439452  0.50055241  0.25470265  1
  Pb  Pb122  1  0.74727154  0.50456385  0.49000439  1
  Pb  Pb123  1  0.75340219  0.49780723  0.74508836  1
  Pb  Pb124  1  0.75256744  0.75555696  -0.00376135  1
  Pb  Pb125  1  0.75181591  0.73926876  0.25504020  1
  Pb  Pb126  1  0.74781121  0.74245183  0.50426791  1
  Pb  Pb127  1  0.74962478  0.75155545  0.74315968  1
  O  O128  1  0.12072961  -0.00529102  0.16114350  1
  O  O129  1  0.12238890  -0.00629482  0.42009934  1
  O  O130  1  0.12731730  -0.00208462  0.66823298  1
  O  O131  1  0.12751017  0.00334035  0.91277257  1
  O  O132  1  0.12142159  0.25625868  0.16458288  1
  O  O133  1  0.12459971  0.24269183  0.41458926  1
  O  O134  1  0.12528169  0.24191582  0.66025084  1
  O  O135  1  0.12717624  0.24533337  0.90965951  1
  O  O136  1  0.12005368  0.49139670  0.17048796  1
  O  O137  1  0.12733923  0.49970542  0.40707532  1
  O  O138  1  0.12999804  0.51061714  0.65748960  1
  O  O139  1  0.12536351  0.50540584  0.91205278  1
  O  O140  1  0.12081359  0.75728822  0.16147363  1
  O  O141  1  0.12381434  0.76366151  0.41381966  1
  O  O142  1  0.13176175  0.74628272  0.66713225  1
  O  O143  1  0.12462921  0.75061222  0.91117038  1
  O  O144  1  0.37503425  -0.00067461  0.15670476  1
  O  O145  1  0.37498582  -0.00528730  0.41753450  1
  O  O146  1  0.37211911  -0.00529940  0.66602213  1
  O  O147  1  0.37262406  0.00889695  0.91333969  1
  O  O148  1  0.37021307  0.25799939  0.16659205  1
  O  O149  1  0.37711926  0.24677901  0.41138297  1
  O  O150  1  0.37383838  0.24796044  0.66604252  1
  O  O151  1  0.37657472  0.25718377  0.91683795  1
  O  O152  1  0.37071594  0.49029529  0.16673786  1
  O  O153  1  0.37444607  0.49372762  0.40491606  1
  O  O154  1  0.37404017  0.50480134  0.65869077  1
  O  O155  1  0.37469302  0.49118598  0.91919322  1
  O  O156  1  0.37460478  0.75485597  0.16015064  1
  O  O157  1  0.37420895  0.76294027  0.40926315  1
  O  O158  1  0.37342310  0.75031551  0.66728444  1
  O  O159  1  0.37161011  0.74411413  0.91815213  1
  O  O160  1  0.63049776  -0.00335961  0.15386145  1
  O  O161  1  0.62537816  0.00008510  0.42349804  1
  O  O162  1  0.62436027  0.00784328  0.66920370  1
  O  O163  1  0.62346207  -0.00089278  0.90966608  1
  O  O164  1  0.62831457  0.24873853  0.16071450  1
  O  O165  1  0.62305946  0.24067545  0.41434082  1
  O  O166  1  0.62707895  0.25224433  0.66912990  1
  O  O167  1  0.62252082  0.26034116  0.91213031  1
  O  O168  1  0.62934261  0.49996502  0.16848442  1
  O  O169  1  0.62168628  0.49751964  0.40699652  1
  O  O170  1  0.62465646  0.49120496  0.66033928  1
  O  O171  1  0.62623547  0.50222596  0.91888406  1
  O  O172  1  0.62985396  0.75678884  0.15785800  1
  O  O173  1  0.62264470  0.75973836  0.41240279  1
  O  O174  1  0.62033831  0.74727176  0.66737209  1
  O  O175  1  0.62701063  0.73945218  0.90789276  1
  O  O176  1  0.87577922  0.00652688  0.15470257  1
  O  O177  1  0.87232685  0.00000507  0.42154301  1
  O  O178  1  0.87834879  0.00112757  0.66960988  1
  O  O179  1  0.87954821  0.00218975  0.90680441  1
  O  O180  1  0.87697457  0.25032670  0.16018672  1
  O  O181  1  0.87263918  0.23846554  0.41524790  1
  O  O182  1  0.87537701  0.25642630  0.66863703  1
  O  O183  1  0.87795846  0.25342421  0.91143295  1
  O  O184  1  0.87707444  0.49669770  0.16357406  1
  O  O185  1  0.87371707  0.49886031  0.40993496  1
  O  O186  1  0.87489607  0.49386518  0.65762691  1
  O  O187  1  0.88014906  0.50892755  0.91686054  1
  O  O188  1  0.87551365  0.74514113  0.16030193  1
  O  O189  1  0.87399726  0.76197507  0.41381320  1
  O  O190  1  0.87717542  0.74660394  0.66403162  1
  O  O191  1  0.88065742  0.73828008  0.91442993  1
  O  O192  1  -0.00726071  0.12667276  0.16151996  1
  O  O193  1  -0.00920081  0.11842608  0.41429163  1
  O  O194  1  0.00777870  0.12250980  0.66727105  1
  O  O195  1  0.00698708  0.12608109  0.90842439  1
  O  O196  1  -0.00229245  0.37379835  0.16722432  1
  O  O197  1  -0.00346468  0.36996075  0.41670340  1
  O  O198  1  -0.00383499  0.37492475  0.65794933  1
  O  O199  1  0.00387256  0.37811876  0.91661551  1
  O  O200  1  -0.00833478  0.62268548  0.16836854  1
  O  O201  1  0.00262660  0.63147669  0.41296231  1
  O  O202  1  0.00797337  0.62799775  0.65267430  1
  O  O203  1  0.00546497  0.62528082  0.91420451  1
  O  O204  1  0.00179159  0.87606358  0.16232708  1
  O  O205  1  -0.00351020  0.88030754  0.41406324  1
  O  O206  1  0.00809200  0.87215989  0.66723643  1
  O  O207  1  0.01001017  0.87513035  0.91552291  1
  O  O208  1  0.24820229  0.12712589  0.16486143  1
  O  O209  1  0.25475404  0.11796097  0.41183317  1
  O  O210  1  0.24392183  0.12116347  0.66598008  1
  O  O211  1  0.25029640  0.12880851  0.91590437  1
  O  O212  1  0.24498612  0.37458484  0.16520710  1
  O  O213  1  0.25720242  0.36895619  0.41023560  1
  O  O214  1  0.25028149  0.37600229  0.66373006  1
  O  O215  1  0.25389035  0.37315091  0.90829882  1
  O  O216  1  0.24797718  0.62289522  0.16761884  1
  O  O217  1  0.25116685  0.63117536  0.41139225  1
  O  O218  1  0.25459548  0.62714516  0.66502144  1
  O  O219  1  0.24093335  0.62472296  0.91587234  1
  O  O220  1  0.24070972  0.87659722  0.15536531  1
  O  O221  1  0.24883204  0.88006881  0.40830463  1
  O  O222  1  0.25320476  0.87298191  0.67144940  1
  O  O223  1  0.23997963  0.87680997  0.91914689  1
  O  O224  1  0.50110693  0.12714583  0.15491598  1
  O  O225  1  0.50022859  0.11814233  0.41602169  1
  O  O226  1  0.50489610  0.12714675  0.66807962  1
  O  O227  1  0.49208744  0.13089287  0.91626902  1
  O  O228  1  0.49328155  0.37366436  0.15949871  1
  O  O229  1  0.49501081  0.36941894  0.40980146  1
  O  O230  1  0.50582627  0.37139305  0.66041435  1
  O  O231  1  0.50274263  0.37965569  0.91737790  1
  O  O232  1  0.50065096  0.62412513  0.16086419  1
  O  O233  1  0.49651336  0.62871115  0.41346482  1
  O  O234  1  0.49116137  0.62499423  0.66458673  1
  O  O235  1  0.50527155  0.61990372  0.91327772  1
  O  O236  1  0.51072070  0.87692825  0.15281072  1
  O  O237  1  0.49741192  0.88136674  0.41036175  1
  O  O238  1  0.49069595  0.87517313  0.66709243  1
  O  O239  1  0.50170620  0.87150832  0.91482427  1
  O  O240  1  0.75865996  0.12709301  0.15707836  1
  O  O241  1  0.75168648  0.11946456  0.41925127  1
  O  O242  1  0.74621833  0.12808535  0.67100052  1
  O  O243  1  0.75217232  0.13012568  0.90714609  1
  O  O244  1  0.75931901  0.37418315  0.16232270  1
  O  O245  1  0.74782919  0.36799992  0.41441037  1
  O  O246  1  0.74949912  0.37295719  0.66497043  1
  O  O247  1  0.74402979  0.38061996  0.91192167  1
  O  O248  1  0.75862496  0.62302040  0.16542086  1
  O  O249  1  0.74686367  0.63134577  0.41398596  1
  O  O250  1  0.74935712  0.62115407  0.66188914  1
  O  O251  1  0.75281588  0.62195626  0.90741723  1
  O  O252  1  0.74882172  0.87659151  0.15904675  1
  O  O253  1  0.75226117  0.88054205  0.41630501  1
  O  O254  1  0.75056754  0.87743352  0.66618243  1
  O  O255  1  0.75066756  0.86932594  0.90882029  1
  O  O256  1  0.13161571  0.12586657  0.03639523  1
  O  O257  1  0.12347182  0.11527998  0.28474223  1
  O  O258  1  0.12722719  0.11769127  0.54998208  1
  O  O259  1  0.12900052  0.12367167  0.79900342  1
  O  O260  1  0.12328433  0.37858983  0.05314964  1
  O  O261  1  0.11661438  0.36607071  0.28618086  1
  O  O262  1  0.13229029  0.37049541  0.53350691  1
  O  O263  1  0.11944952  0.38101649  0.78152451  1
  O  O264  1  0.12339487  0.61577187  0.04619675  1
  O  O265  1  0.12281031  0.63264920  0.27883267  1
  O  O266  1  0.13280545  0.63436027  0.54533258  1
  O  O267  1  0.12370649  0.62316184  0.79820813  1
  O  O268  1  0.11754962  0.87340181  0.04375126  1
  O  O269  1  0.12266821  0.88124217  0.29856176  1
  O  O270  1  0.12926632  0.87433214  0.55031465  1
  O  O271  1  0.13014117  0.87323275  0.79954917  1
  O  O272  1  0.36467020  0.13416135  0.03095162  1
  O  O273  1  0.37962023  0.12029673  0.29820672  1
  O  O274  1  0.37716612  0.12026996  0.53723689  1
  O  O275  1  0.37391759  0.13030824  0.80425977  1
  O  O276  1  0.37107829  0.37492046  0.04932238  1
  O  O277  1  0.37681365  0.37109036  0.29619073  1
  O  O278  1  0.37456078  0.36845416  0.53201316  1
  O  O279  1  0.37668603  0.37907727  0.79996478  1
  O  O280  1  0.36348499  0.62239158  0.03778720  1
  O  O281  1  0.37683575  0.63017874  0.27939139  1
  O  O282  1  0.37155791  0.63037579  0.54850622  1
  O  O283  1  0.37478622  0.61642032  0.79214580  1
  O  O284  1  0.37558799  0.87081499  0.02509340  1
  O  O285  1  0.37908493  0.88136877  0.29492517  1
  O  O286  1  0.37352199  0.87397305  0.55340997  1
  O  O287  1  0.36558344  0.87192181  0.79639493  1
  O  O288  1  0.62710729  0.13199515  0.02376674  1
  O  O289  1  0.62865750  0.11785958  0.29807389  1
  O  O290  1  0.62467055  0.12573656  0.55647807  1
  O  O291  1  0.61372663  0.13088050  0.79059377  1
  O  O292  1  0.62570171  0.38610014  0.03882396  1
  O  O293  1  0.62885206  0.36557419  0.27975346  1
  O  O294  1  0.62491947  0.36999466  0.54801759  1
  O  O295  1  0.62016465  0.38219232  0.80135953  1
  O  O296  1  0.62948441  0.61600079  0.03663767  1
  O  O297  1  0.62846051  0.63018210  0.28222853  1
  O  O298  1  0.61813047  0.62932283  0.53419245  1
  O  O299  1  0.61887099  0.61538618  0.79894951  1
  O  O300  1  0.63279064  0.87052509  0.03974439  1
  O  O301  1  0.63012045  0.88428126  0.29827204  1
  O  O302  1  0.62028322  0.87954921  0.54356403  1
  O  O303  1  0.62009077  0.87904099  0.77961499  1
  O  O304  1  0.87846074  0.12934830  0.04195472  1
  O  O305  1  0.87040093  0.12041976  0.30088622  1
  O  O306  1  0.87504274  0.12785720  0.56116222  1
  O  O307  1  0.87998344  0.13280427  0.77596032  1
  O  O308  1  0.87944620  0.37648204  0.05019171  1
  O  O309  1  0.87949990  0.36740274  0.28409699  1
  O  O310  1  0.86841846  0.36731331  0.54868397  1
  O  O311  1  0.88160656  0.38478758  0.78547033  1
  O  O312  1  0.87758995  0.62408964  0.04988483  1
  O  O313  1  0.87303121  0.63754852  0.28940890  1
  O  O314  1  0.87324326  0.63247508  0.52855765  1
  O  O315  1  0.87644294  0.62074629  0.79703071  1
  O  O316  1  0.88007678  0.86790610  0.02916676  1
  O  O317  1  0.87327145  0.88072800  0.30198226  1
  O  O318  1  0.87853849  0.87993736  0.53932690  1
  O  O319  1  0.88517778  0.86961209  0.78731638  1
