# generated using pymatgen
data_VFe(PbO3)2
_symmetry_space_group_name_H-M   'P 1'
_cell_length_a   15.37846091
_cell_length_b   15.39563821
_cell_length_c   18.50348965
_cell_angle_alpha   90.02708033
_cell_angle_beta   90.03606663
_cell_angle_gamma   89.99873058
_symmetry_Int_Tables_number   1
_chemical_formula_structural   VFe(PbO3)2
_chemical_formula_sum   'V32 Fe32 Pb64 O192'
_cell_volume   4380.90743515
_cell_formula_units_Z   32
loop_
 _symmetry_equiv_pos_site_id
 _symmetry_equiv_pos_as_xyz
  1  'x, y, z'
loop_
 _atom_site_type_symbol
 _atom_site_label
 _atom_site_symmetry_multiplicity
 _atom_site_fract_x
 _atom_site_fract_y
 _atom_site_fract_z
 _atom_site_occupancy
  V  V0  1  0.87837535  0.37445838  0.13821157  1
  V  V1  1  0.37131217  0.12256312  0.13563055  1
  V  V2  1  0.87535575  0.12239972  0.39250132  1
  V  V3  1  0.62582938  0.37709308  0.64067515  1
  V  V4  1  0.87506879  0.37418945  0.64349278  1
  V  V5  1  0.12517404  0.37451831  0.63950589  1
  V  V6  1  0.62464793  0.88571765  0.63841265  1
  V  V7  1  0.12488941  0.87498931  0.13656259  1
  V  V8  1  0.87519313  0.62280255  0.64462858  1
  V  V9  1  0.62676666  0.62576891  0.63799228  1
  V  V10  1  0.62113443  0.87465905  0.89005640  1
  V  V11  1  0.37798125  0.87752822  0.38875569  1
  V  V12  1  0.87160952  0.87480204  0.39342422  1
  V  V13  1  0.37286835  0.37785440  0.89687332  1
  V  V14  1  0.11960534  0.12669835  0.65272526  1
  V  V15  1  0.13007436  0.62456808  0.88786389  1
  V  V16  1  0.62869896  0.63308276  0.38685946  1
  V  V17  1  0.87862675  0.12097822  0.13007563  1
  V  V18  1  0.62451248  0.62536758  0.89503644  1
  V  V19  1  0.12854159  0.37444269  0.13946162  1
  V  V20  1  0.37625682  0.37409584  0.63493251  1
  V  V21  1  0.37648773  0.12421985  0.64120408  1
  V  V22  1  0.87382364  0.62615757  0.38816474  1
  V  V23  1  0.63014001  0.37452597  0.38574078  1
  V  V24  1  0.62331906  0.37864087  0.89388243  1
  V  V25  1  0.12622938  0.62185276  0.63623272  1
  V  V26  1  0.12666499  0.37896357  0.88699671  1
  V  V27  1  0.37808363  0.62262273  0.89239585  1
  V  V28  1  0.87781349  0.63018650  0.13506664  1
  V  V29  1  0.62570239  0.12168794  0.39074308  1
  V  V30  1  0.12115923  0.37231973  0.38827632  1
  V  V31  1  0.37315164  0.62795466  0.14186267  1
  Fe  Fe32  1  0.62642469  0.62242636  0.13367371  1
  Fe  Fe33  1  0.37769501  0.62171713  0.62775858  1
  Fe  Fe34  1  0.61951505  0.12911704  0.89696315  1
  Fe  Fe35  1  0.87424305  0.87113355  0.88279466  1
  Fe  Fe36  1  0.37361431  0.12416817  0.38417162  1
  Fe  Fe37  1  0.12356632  0.12128895  0.38710332  1
  Fe  Fe38  1  0.62154526  0.13189826  0.63679052  1
  Fe  Fe39  1  0.87653642  0.37935986  0.88517486  1
  Fe  Fe40  1  0.37008850  0.87464893  0.13138745  1
  Fe  Fe41  1  0.88027654  0.87584481  0.12479826  1
  Fe  Fe42  1  0.12257771  0.87705676  0.39243417  1
  Fe  Fe43  1  0.62506566  0.37516855  0.13396091  1
  Fe  Fe44  1  0.37658992  0.37172840  0.37960724  1
  Fe  Fe45  1  0.87439217  0.12865548  0.87881273  1
  Fe  Fe46  1  0.37410244  0.62620897  0.39175649  1
  Fe  Fe47  1  0.12048746  0.62841385  0.38554785  1
  Fe  Fe48  1  0.37561374  0.12617507  0.88653025  1
  Fe  Fe49  1  0.87012648  0.87371110  0.65032796  1
  Fe  Fe50  1  0.12535485  0.87445559  0.64742505  1
  Fe  Fe51  1  0.37533297  0.87122979  0.88580020  1
  Fe  Fe52  1  0.62772797  0.87817466  0.38439238  1
  Fe  Fe53  1  0.87040444  0.12687666  0.64943167  1
  Fe  Fe54  1  0.12840970  0.87222213  0.87200942  1
  Fe  Fe55  1  0.12913996  0.12598801  0.87461269  1
  Fe  Fe56  1  0.37967273  0.87404120  0.64169948  1
  Fe  Fe57  1  0.12297330  0.62340284  0.14172849  1
  Fe  Fe58  1  0.87541318  0.62069208  0.88343150  1
  Fe  Fe59  1  0.62690372  0.12677795  0.12413181  1
  Fe  Fe60  1  0.62612511  0.87522467  0.13119422  1
  Fe  Fe61  1  0.37355640  0.37522311  0.14118140  1
  Fe  Fe62  1  0.12267542  0.12667627  0.13500301  1
  Fe  Fe63  1  0.87356831  0.37239591  0.38552254  1
  Pb  Pb64  1  0.00246313  -0.00165305  -0.01999922  1
  Pb  Pb65  1  0.01152140  -0.00207394  0.25173312  1
  Pb  Pb66  1  0.00324299  -0.00680781  0.51334376  1
  Pb  Pb67  1  -0.01094725  -0.00599735  0.75486375  1
  Pb  Pb68  1  0.00465359  0.24008032  -0.00705785  1
  Pb  Pb69  1  -0.00234711  0.25106235  0.25040330  1
  Pb  Pb70  1  -0.00566637  0.24297838  0.50248603  1
  Pb  Pb71  1  -0.00814832  0.25442852  0.75631980  1
  Pb  Pb72  1  0.00543292  0.50787956  0.00080810  1
  Pb  Pb73  1  -0.00031464  0.49790970  0.25139586  1
  Pb  Pb74  1  -0.00197877  0.50070773  0.49683846  1
  Pb  Pb75  1  -0.00650707  0.50049995  0.75412960  1
  Pb  Pb76  1  -0.00297255  0.75482870  -0.00824632  1
  Pb  Pb77  1  0.01089270  0.75478105  0.25380823  1
  Pb  Pb78  1  0.00354090  0.76029299  0.50869539  1
  Pb  Pb79  1  -0.00033695  0.75483539  0.75113426  1
  Pb  Pb80  1  0.24798090  -0.00270143  -0.01365571  1
  Pb  Pb81  1  0.24644335  0.00663153  0.25077553  1
  Pb  Pb82  1  0.24599928  -0.00454056  0.50306651  1
  Pb  Pb83  1  0.24996796  -0.00117063  0.75125367  1
  Pb  Pb84  1  0.24540137  0.24228372  0.00164348  1
  Pb  Pb85  1  0.25762717  0.24454258  0.25346080  1
  Pb  Pb86  1  0.25165150  0.24597441  0.49456507  1
  Pb  Pb87  1  0.25313106  0.24630296  0.75260809  1
  Pb  Pb88  1  0.24961392  0.50271408  0.00932817  1
  Pb  Pb89  1  0.26031624  0.50756954  0.25862614  1
  Pb  Pb90  1  0.25218669  0.50332723  0.49250576  1
  Pb  Pb91  1  0.25174614  0.50025686  0.74499858  1
  Pb  Pb92  1  0.25008879  0.75481356  -0.00007062  1
  Pb  Pb93  1  0.24652906  0.74538575  0.25472694  1
  Pb  Pb94  1  0.24676858  0.75554362  0.49943928  1
  Pb  Pb95  1  0.25864089  0.75878069  0.74758671  1
  Pb  Pb96  1  0.49614034  0.00316300  -0.00228361  1
  Pb  Pb97  1  0.50316242  -0.00157917  0.23967612  1
  Pb  Pb98  1  0.49759529  -0.00391320  0.50136581  1
  Pb  Pb99  1  0.49711925  0.01556087  0.76156876  1
  Pb  Pb100  1  0.49654836  0.26092501  0.00723297  1
  Pb  Pb101  1  0.49717998  0.24802269  0.24266753  1
  Pb  Pb102  1  0.50656945  0.24651657  0.49572923  1
  Pb  Pb103  1  0.49846963  0.24441672  0.75878058  1
  Pb  Pb104  1  0.50227194  0.49760649  0.01182680  1
  Pb  Pb105  1  0.49628657  0.49836983  0.24806662  1
  Pb  Pb106  1  0.49700082  0.50141790  0.49342890  1
  Pb  Pb107  1  0.49994126  0.49839558  0.74764155  1
  Pb  Pb108  1  0.50297359  0.75752642  0.00861570  1
  Pb  Pb109  1  0.50230699  0.75489919  0.24498215  1
  Pb  Pb110  1  0.48714828  0.75596816  0.50608622  1
  Pb  Pb111  1  0.49509447  0.75285305  0.75087310  1
  Pb  Pb112  1  0.74868190  0.00194172  -0.00852172  1
  Pb  Pb113  1  0.74563675  -0.00504069  0.24031361  1
  Pb  Pb114  1  0.76307715  0.00530691  0.51310995  1
  Pb  Pb115  1  0.75230783  0.00913409  0.75664416  1
  Pb  Pb116  1  0.75088197  0.24690843  -0.00583989  1
  Pb  Pb117  1  0.75288745  0.25010875  0.24311484  1
  Pb  Pb118  1  0.74998315  0.23884084  0.50696268  1
  Pb  Pb119  1  0.74626622  0.24442480  0.75679213  1
  Pb  Pb120  1  0.74343637  0.50110823  0.00334359  1
  Pb  Pb121  1  0.75323872  0.49651622  0.24587592  1
  Pb  Pb122  1  0.74902024  0.49940194  0.49747075  1
  Pb  Pb123  1  0.75645305  0.49831167  0.75649635  1
  Pb  Pb124  1  0.75205109  0.75730952  0.00091915  1
  Pb  Pb125  1  0.74546723  0.75846764  0.24302387  1
  Pb  Pb126  1  0.75537712  0.76088468  0.50756946  1
  Pb  Pb127  1  0.75536858  0.74637529  0.75698229  1
  O  O128  1  0.12253537  -0.00460785  0.15982460  1
  O  O129  1  0.12102701  -0.00030373  0.42607073  1
  O  O130  1  0.12948655  0.00907206  0.66566910  1
  O  O131  1  0.12842996  -0.00089101  0.89671061  1
  O  O132  1  0.12063954  0.25730648  0.16473010  1
  O  O133  1  0.12031841  0.25236468  0.41503009  1
  O  O134  1  0.12829314  0.25307122  0.66951292  1
  O  O135  1  0.13096695  0.26212658  0.90603459  1
  O  O136  1  0.11951757  0.49132764  0.16737586  1
  O  O137  1  0.11887774  0.49354147  0.41138540  1
  O  O138  1  0.12384440  0.50011768  0.66650786  1
  O  O139  1  0.13266751  0.49935660  0.91770867  1
  O  O140  1  0.12233484  0.75501733  0.16386124  1
  O  O141  1  0.12072336  0.75299808  0.42163571  1
  O  O142  1  0.12297586  0.73571048  0.65887604  1
  O  O143  1  0.12899576  0.73992623  0.90531085  1
  O  O144  1  0.37155028  0.00454495  0.15827425  1
  O  O145  1  0.37881919  -0.00432746  0.41571250  1
  O  O146  1  0.38053461  0.00747405  0.66225290  1
  O  O147  1  0.37536048  -0.00196634  0.90779015  1
  O  O148  1  0.37095482  0.24288513  0.16221555  1
  O  O149  1  0.37509545  0.25027427  0.41359949  1
  O  O150  1  0.37766328  0.25339210  0.66467089  1
  O  O151  1  0.37597755  0.26190641  0.91427503  1
  O  O152  1  0.37145520  0.50678950  0.16602246  1
  O  O153  1  0.37700654  0.49517678  0.41220221  1
  O  O154  1  0.37565433  0.49646665  0.66214614  1
  O  O155  1  0.37306494  0.50337384  0.92298257  1
  O  O156  1  0.37210536  0.74611748  0.16509678  1
  O  O157  1  0.37892375  0.75753555  0.41394872  1
  O  O158  1  0.38087935  0.74314559  0.66104973  1
  O  O159  1  0.37462444  0.73732988  0.91442137  1
  O  O160  1  0.62742681  0.00436293  0.15843639  1
  O  O161  1  0.62779827  0.00677101  0.41254420  1
  O  O162  1  0.62119858  -0.00083202  0.65291834  1
  O  O163  1  0.62121998  -0.00846310  0.90808489  1
  O  O164  1  0.62770566  0.24789571  0.16025922  1
  O  O165  1  0.62889120  0.24959709  0.41274904  1
  O  O166  1  0.62170915  0.26172273  0.66656718  1
  O  O167  1  0.61774417  0.26258043  0.91346887  1
  O  O168  1  0.62823029  0.50003691  0.16806590  1
  O  O169  1  0.63158754  0.49474635  0.40931766  1
  O  O170  1  0.62641174  0.49585844  0.66869029  1
  O  O171  1  0.61896721  0.50167594  0.91860881  1
  O  O172  1  0.62737348  0.74719381  0.16262494  1
  O  O173  1  0.63142542  0.74687664  0.40715405  1
  O  O174  1  0.62749456  0.73800085  0.65864211  1
  O  O175  1  0.61981433  0.74389664  0.91349543  1
  O  O176  1  0.87795195  0.00629345  0.14739988  1
  O  O177  1  0.87028060  0.00166909  0.41916144  1
  O  O178  1  0.86904485  0.00016556  0.67155159  1
  O  O179  1  0.87481219  -0.00025519  0.90245539  1
  O  O180  1  0.87831369  0.25245638  0.16052755  1
  O  O181  1  0.87436014  0.24199771  0.41562763  1
  O  O182  1  0.87377206  0.25687259  0.66904553  1
  O  O183  1  0.87439785  0.25540165  0.91055375  1
  O  O184  1  0.87851205  0.49479592  0.16054752  1
  O  O185  1  0.87212136  0.50232657  0.41292800  1
  O  O186  1  0.87392585  0.49746348  0.66838564  1
  O  O187  1  0.87438532  0.50049243  0.91897950  1
  O  O188  1  0.87721210  0.74491001  0.15261258  1
  O  O189  1  0.87035732  0.75458929  0.41624543  1
  O  O190  1  0.86858730  0.74247575  0.66801326  1
  O  O191  1  0.87481104  0.74391670  0.91034036  1
  O  O192  1  -0.00683480  0.12895785  0.16151104  1
  O  O193  1  -0.00790772  0.12193397  0.41684231  1
  O  O194  1  0.00352400  0.12936608  0.66667696  1
  O  O195  1  0.00360507  0.13114816  0.90166072  1
  O  O196  1  -0.00159949  0.37356133  0.16640923  1
  O  O197  1  0.00109940  0.37195994  0.41766567  1
  O  O198  1  0.00167743  0.37530556  0.66721549  1
  O  O199  1  0.01155378  0.38199981  0.90710760  1
  O  O200  1  -0.00814438  0.62068163  0.16620965  1
  O  O201  1  -0.00741095  0.62659981  0.41695685  1
  O  O202  1  0.00075357  0.61933274  0.66467460  1
  O  O203  1  0.01091079  0.61754983  0.90628843  1
  O  O204  1  0.00449067  0.87504440  0.16085453  1
  O  O205  1  -0.01269750  0.87798946  0.42178991  1
  O  O206  1  -0.00189288  0.87284691  0.66791176  1
  O  O207  1  0.00434647  0.86942629  0.90194903  1
  O  O208  1  0.25083271  0.12419010  0.16244992  1
  O  O209  1  0.24880285  0.12237963  0.41867983  1
  O  O210  1  0.26002357  0.12977692  0.66444413  1
  O  O211  1  0.25082808  0.13146590  0.91213690  1
  O  O212  1  0.24248146  0.37503782  0.16074515  1
  O  O213  1  0.24022024  0.37392089  0.40894768  1
  O  O214  1  0.25138027  0.37652262  0.66384966  1
  O  O215  1  0.25201964  0.38104535  0.91756009  1
  O  O216  1  0.25206004  0.62605095  0.16785616  1
  O  O217  1  0.24592506  0.62524505  0.41543868  1
  O  O218  1  0.24446755  0.61762446  0.65248810  1
  O  O219  1  0.25150189  0.62052661  0.91688873  1
  O  O220  1  0.24213597  0.87432992  0.16183617  1
  O  O221  1  0.25733607  0.87652157  0.41346997  1
  O  O222  1  0.25421076  0.87396032  0.66160296  1
  O  O223  1  0.24920668  0.86719540  0.90887558  1
  O  O224  1  0.49308459  0.12504622  0.15300221  1
  O  O225  1  0.50713286  0.12715212  0.41058044  1
  O  O226  1  0.49595459  0.13100860  0.66779587  1
  O  O227  1  0.49499075  0.12822979  0.92321224  1
  O  O228  1  0.49979674  0.37479985  0.16557567  1
  O  O229  1  0.51146565  0.37291536  0.40649581  1
  O  O230  1  0.50233700  0.38023791  0.66284181  1
  O  O231  1  0.49563479  0.38313079  0.91894217  1
  O  O232  1  0.49328611  0.62502735  0.16187663  1
  O  O233  1  0.51377190  0.62125753  0.40968083  1
  O  O234  1  0.50875231  0.61554776  0.65924815  1
  O  O235  1  0.49548798  0.62066304  0.91690459  1
  O  O236  1  0.49739522  0.87499339  0.16054932  1
  O  O237  1  0.49967249  0.87714217  0.41229840  1
  O  O238  1  0.51257550  0.86789866  0.66691252  1
  O  O239  1  0.50342325  0.86718443  0.91554701  1
  O  O240  1  0.76195072  0.12893947  0.15461586  1
  O  O241  1  0.75074457  0.12615065  0.41736034  1
  O  O242  1  0.74202521  0.13011700  0.67102760  1
  O  O243  1  0.74859559  0.12826813  0.90887277  1
  O  O244  1  0.75836374  0.37394325  0.15993949  1
  O  O245  1  0.74651084  0.37112411  0.41673016  1
  O  O246  1  0.74531961  0.37667313  0.66507617  1
  O  O247  1  0.74070756  0.38115930  0.91019578  1
  O  O248  1  0.76187735  0.61999926  0.16012806  1
  O  O249  1  0.74749822  0.62341360  0.41854421  1
  O  O250  1  0.74534903  0.61633807  0.66772363  1
  O  O251  1  0.74093290  0.62124266  0.91126247  1
  O  O252  1  0.75607676  0.87595149  0.15854109  1
  O  O253  1  0.75428628  0.87737329  0.41895601  1
  O  O254  1  0.73395663  0.87125588  0.67218854  1
  O  O255  1  0.74093544  0.86751952  0.90831792  1
  O  O256  1  0.12369166  0.13411019  0.03519501  1
  O  O257  1  0.12334329  0.11262752  0.28675232  1
  O  O258  1  0.12636800  0.13141786  0.56101373  1
  O  O259  1  0.13894881  0.13111664  0.77291963  1
  O  O260  1  0.12389856  0.37590484  0.04785254  1
  O  O261  1  0.11632794  0.37066390  0.29741537  1
  O  O262  1  0.12357439  0.37441003  0.54887047  1
  O  O263  1  0.13295101  0.38461217  0.79593519  1
  O  O264  1  0.12255089  0.61888709  0.04193198  1
  O  O265  1  0.12065454  0.63491544  0.28481428  1
  O  O266  1  0.11804512  0.61704357  0.54519328  1
  O  O267  1  0.13636232  0.61857696  0.79710913  1
  O  O268  1  0.12458147  0.87216585  0.04518023  1
  O  O269  1  0.11198371  0.87738459  0.29228424  1
  O  O270  1  0.11802578  0.87554336  0.54404432  1
  O  O271  1  0.13168035  0.86659609  0.77040886  1
  O  O272  1  0.36589309  0.12538644  0.04436099  1
  O  O273  1  0.36745269  0.12473552  0.28464524  1
  O  O274  1  0.37850545  0.12668789  0.54986179  1
  O  O275  1  0.38515233  0.13011727  0.78552715  1
  O  O276  1  0.37736157  0.37677183  0.04052723  1
  O  O277  1  0.37110494  0.37258538  0.27902943  1
  O  O278  1  0.37678792  0.37412258  0.54396732  1
  O  O279  1  0.37408170  0.38342899  0.80571816  1
  O  O280  1  0.36906914  0.62724761  0.05055607  1
  O  O281  1  0.36886774  0.62427661  0.29137520  1
  O  O282  1  0.38414096  0.62391444  0.52692285  1
  O  O283  1  0.37632729  0.61828359  0.80115869  1
  O  O284  1  0.36977201  0.86580201  0.03165917  1
  O  O285  1  0.37714983  0.87778846  0.29780939  1
  O  O286  1  0.39108790  0.87482881  0.54079862  1
  O  O287  1  0.38037101  0.86241961  0.78347865  1
  O  O288  1  0.63130626  0.12244033  0.02333047  1
  O  O289  1  0.62954970  0.12414454  0.29987310  1
  O  O290  1  0.62437517  0.13670254  0.53660875  1
  O  O291  1  0.60925793  0.12976869  0.79384652  1
  O  O292  1  0.62083202  0.38240687  0.03367604  1
  O  O293  1  0.63627898  0.37231134  0.29489441  1
  O  O294  1  0.62650481  0.37786579  0.54960065  1
  O  O295  1  0.61687209  0.38271537  0.80259953  1
  O  O296  1  0.62495889  0.61843137  0.03389023  1
  O  O297  1  0.63307978  0.62770483  0.29589535  1
  O  O298  1  0.63151312  0.62022685  0.54668952  1
  O  O299  1  0.61948989  0.62159139  0.80389752  1
  O  O300  1  0.62658663  0.86798939  0.03090290  1
  O  O301  1  0.63440717  0.87843698  0.28483326  1
  O  O302  1  0.62832442  0.87371365  0.54648954  1
  O  O303  1  0.61676814  0.86968590  0.79910524  1
  O  O304  1  0.88178736  0.13037852  0.03847689  1
  O  O305  1  0.87364525  0.11923011  0.30189742  1
  O  O306  1  0.86801529  0.12601576  0.54719769  1
  O  O307  1  0.87034764  0.13113954  0.77670598  1
  O  O308  1  0.88144896  0.37353243  0.04751132  1
  O  O309  1  0.87579086  0.36999585  0.28647993  1
  O  O310  1  0.87554244  0.37466151  0.55194648  1
  O  O311  1  0.87817142  0.38207515  0.78438348  1
  O  O312  1  0.88133956  0.62302665  0.04355063  1
  O  O313  1  0.87284888  0.62958488  0.29741836  1
  O  O314  1  0.87242215  0.62187817  0.55335343  1
  O  O315  1  0.87082306  0.61595360  0.78257761  1
  O  O316  1  0.87968417  0.86790551  0.02470088  1
  O  O317  1  0.87461433  0.87747787  0.30275887  1
  O  O318  1  0.86276055  0.87478924  0.54845334  1
  O  O319  1  0.86921223  0.86747371  0.77986142  1
