# generated using pymatgen
data_VFe(PbO3)2
_symmetry_space_group_name_H-M   'P 1'
_cell_length_a   15.38589796
_cell_length_b   15.38285924
_cell_length_c   18.45402150
_cell_angle_alpha   90.05504214
_cell_angle_beta   89.99621623
_cell_angle_gamma   90.00442173
_symmetry_Int_Tables_number   1
_chemical_formula_structural   VFe(PbO3)2
_chemical_formula_sum   'V32 Fe32 Pb64 O192'
_cell_volume   4367.67920854
_cell_formula_units_Z   32
loop_
 _symmetry_equiv_pos_site_id
 _symmetry_equiv_pos_as_xyz
  1  'x, y, z'
loop_
 _atom_site_type_symbol
 _atom_site_label
 _atom_site_symmetry_multiplicity
 _atom_site_fract_x
 _atom_site_fract_y
 _atom_site_fract_z
 _atom_site_occupancy
  V  V0  1  0.62679037  0.62330949  0.14012714  1
  V  V1  1  0.12583845  0.12897679  0.64032989  1
  V  V2  1  0.12559537  0.62493091  0.38875640  1
  V  V3  1  0.36705262  0.62567668  0.88899655  1
  V  V4  1  0.87580898  0.87584669  0.89680799  1
  V  V5  1  0.87182784  0.62465023  0.89286157  1
  V  V6  1  0.62464793  0.12634570  0.64530370  1
  V  V7  1  0.37548464  0.37575815  0.39245593  1
  V  V8  1  0.12710603  0.62778012  0.64330793  1
  V  V9  1  0.37599923  0.62396023  0.13332894  1
  V  V10  1  0.87847388  0.37564647  0.63966021  1
  V  V11  1  0.87261040  0.37621361  0.13804609  1
  V  V12  1  0.12300648  0.12410011  0.89217117  1
  V  V13  1  0.87441389  0.12360840  0.88956256  1
  V  V14  1  0.87821994  0.12821570  0.39204093  1
  V  V15  1  0.37597801  0.62693932  0.64209973  1
  V  V16  1  0.62486737  0.87369026  0.63820681  1
  V  V17  1  0.37245012  0.62307714  0.38970311  1
  V  V18  1  0.37745683  0.12583927  0.13015903  1
  V  V19  1  0.87310966  0.12574077  0.13612043  1
  V  V20  1  0.12446596  0.37489912  0.39575960  1
  V  V21  1  0.11969958  0.37819608  0.89004307  1
  V  V22  1  0.37658653  0.12690407  0.38931630  1
  V  V23  1  0.37420319  0.87305961  0.64480059  1
  V  V24  1  0.12652150  0.87788596  0.64094130  1
  V  V25  1  0.62320244  0.62720042  0.88706107  1
  V  V26  1  0.87155266  0.62197538  0.38766966  1
  V  V27  1  0.37493298  0.87531120  0.38687269  1
  V  V28  1  0.62589213  0.12529856  0.39179011  1
  V  V29  1  0.62704501  0.87298118  0.89355821  1
  V  V30  1  0.12822539  0.12585702  0.38638507  1
  V  V31  1  0.12210745  0.87221951  0.89675420  1
  Fe  Fe32  1  0.62998125  0.37638300  0.87748946  1
  Fe  Fe33  1  0.87724005  0.87490356  0.63270704  1
  Fe  Fe34  1  0.62445782  0.37472738  0.13214144  1
  Fe  Fe35  1  0.62653465  0.12729561  0.12811226  1
  Fe  Fe36  1  0.12606730  0.37379579  0.13045608  1
  Fe  Fe37  1  0.62460198  0.37308143  0.39060805  1
  Fe  Fe38  1  0.37773651  0.87483060  0.12663125  1
  Fe  Fe39  1  0.62510666  0.37747599  0.64486130  1
  Fe  Fe40  1  0.87300096  0.87503832  0.13475155  1
  Fe  Fe41  1  0.12500984  0.37634967  0.63402202  1
  Fe  Fe42  1  0.37730265  0.37614608  0.12655163  1
  Fe  Fe43  1  0.87622805  0.87595915  0.38420633  1
  Fe  Fe44  1  0.87248625  0.62286210  0.13422363  1
  Fe  Fe45  1  0.62415883  0.87662615  0.13495758  1
  Fe  Fe46  1  0.37509010  0.87341344  0.89750017  1
  Fe  Fe47  1  0.87662070  0.62754638  0.63114964  1
  Fe  Fe48  1  0.12761670  0.87824821  0.38213577  1
  Fe  Fe49  1  0.62834417  0.12191276  0.88476044  1
  Fe  Fe50  1  0.87574653  0.12181698  0.63503558  1
  Fe  Fe51  1  0.12330188  0.62235055  0.12624865  1
  Fe  Fe52  1  0.12042494  0.62663958  0.89570143  1
  Fe  Fe53  1  0.37379071  0.12288485  0.88011613  1
  Fe  Fe54  1  0.62087437  0.62424398  0.38890862  1
  Fe  Fe55  1  0.37404272  0.37565788  0.88632306  1
  Fe  Fe56  1  0.37368107  0.12115901  0.65005316  1
  Fe  Fe57  1  0.62440865  0.62862624  0.63361239  1
  Fe  Fe58  1  0.62279293  0.87814887  0.38478640  1
  Fe  Fe59  1  0.87667376  0.37279805  0.88408394  1
  Fe  Fe60  1  0.12674914  0.87636681  0.13426748  1
  Fe  Fe61  1  0.37153442  0.37503708  0.64252555  1
  Fe  Fe62  1  0.12367714  0.12798063  0.13349197  1
  Fe  Fe63  1  0.87547570  0.37503694  0.38723240  1
  Pb  Pb64  1  0.00551811  -0.00127347  0.00824573  1
  Pb  Pb65  1  0.00160028  -0.00921911  0.24588066  1
  Pb  Pb66  1  -0.00564452  -0.00301045  0.49840128  1
  Pb  Pb67  1  -0.00333678  -0.00107824  0.74959796  1
  Pb  Pb68  1  0.00597505  0.24742562  0.00288751  1
  Pb  Pb69  1  -0.00467431  0.25560044  0.24814194  1
  Pb  Pb70  1  0.00304312  0.25032587  0.50176054  1
  Pb  Pb71  1  -0.00576278  0.25636105  0.75143403  1
  Pb  Pb72  1  -0.00243353  0.50847404  0.00414149  1
  Pb  Pb73  1  -0.00125367  0.50006050  0.24363494  1
  Pb  Pb74  1  -0.00301450  0.50698003  0.50217949  1
  Pb  Pb75  1  0.00392778  0.50738923  0.75258147  1
  Pb  Pb76  1  -0.00829368  0.74742182  0.00951625  1
  Pb  Pb77  1  -0.00013422  0.75321607  0.23945802  1
  Pb  Pb78  1  -0.00616032  0.75425363  0.49785336  1
  Pb  Pb79  1  0.00406244  0.74525538  0.75375729  1
  Pb  Pb80  1  0.24634907  -0.00126707  0.00194224  1
  Pb  Pb81  1  0.24766854  -0.00307233  0.24167702  1
  Pb  Pb82  1  0.25522715  0.01038797  0.50089682  1
  Pb  Pb83  1  0.25816167  -0.00341211  0.76032459  1
  Pb  Pb84  1  0.24892687  0.25353518  -0.00356109  1
  Pb  Pb85  1  0.25188015  0.25174168  0.24006195  1
  Pb  Pb86  1  0.25492287  0.25646162  0.50778531  1
  Pb  Pb87  1  0.26017513  0.25614077  0.75427247  1
  Pb  Pb88  1  0.24650053  0.49043037  0.00211146  1
  Pb  Pb89  1  0.24889488  0.49793099  0.24035906  1
  Pb  Pb90  1  0.25152540  0.49191263  0.50607378  1
  Pb  Pb91  1  0.24905765  0.49723598  0.75440793  1
  Pb  Pb92  1  0.24606935  0.75941995  0.00759568  1
  Pb  Pb93  1  0.24537133  0.75480505  0.24087058  1
  Pb  Pb94  1  0.25103085  0.75289603  0.49750890  1
  Pb  Pb95  1  0.24915846  0.75180980  0.76039530  1
  Pb  Pb96  1  0.50073723  0.00721810  -0.00442373  1
  Pb  Pb97  1  0.50534681  -0.00388165  0.24140285  1
  Pb  Pb98  1  0.49254980  0.00932837  0.50471482  1
  Pb  Pb99  1  0.50137539  0.00535251  0.75989606  1
  Pb  Pb100  1  0.50301581  0.24987683  -0.01560046  1
  Pb  Pb101  1  0.50500407  0.25658362  0.24097414  1
  Pb  Pb102  1  0.49145666  0.25529475  0.50852597  1
  Pb  Pb103  1  0.49789701  0.25579811  0.75280188  1
  Pb  Pb104  1  0.50273018  0.48623490  -0.00418363  1
  Pb  Pb105  1  0.50576256  0.49985784  0.25092330  1
  Pb  Pb106  1  0.51087501  0.49527056  0.50835299  1
  Pb  Pb107  1  0.50227884  0.49364240  0.74993611  1
  Pb  Pb108  1  0.50331492  0.75376262  0.00440307  1
  Pb  Pb109  1  0.50769553  0.74935611  0.24861577  1
  Pb  Pb110  1  0.50712512  0.74874106  0.49799297  1
  Pb  Pb111  1  0.49287009  0.75928394  0.75693745  1
  Pb  Pb112  1  0.74711492  -0.00671456  0.00647603  1
  Pb  Pb113  1  0.74830025  -0.00611656  0.24811250  1
  Pb  Pb114  1  0.75718364  -0.00105107  0.50066326  1
  Pb  Pb115  1  0.74600457  0.00164189  0.75088635  1
  Pb  Pb116  1  0.73645570  0.25301800  -0.00377468  1
  Pb  Pb117  1  0.74740838  0.25882982  0.25019477  1
  Pb  Pb118  1  0.74598922  0.25487474  0.50355731  1
  Pb  Pb119  1  0.75196174  0.25713415  0.75353420  1
  Pb  Pb120  1  0.74864929  0.49530786  -0.00264071  1
  Pb  Pb121  1  0.73825922  0.49759064  0.25567630  1
  Pb  Pb122  1  0.73877077  0.49683039  0.50423218  1
  Pb  Pb123  1  0.74940552  0.49861816  0.74533456  1
  Pb  Pb124  1  0.75370901  0.75457060  0.00862126  1
  Pb  Pb125  1  0.75353189  0.75940275  0.24977321  1
  Pb  Pb126  1  0.75298061  0.75244033  0.49310444  1
  Pb  Pb127  1  0.75596398  0.74643244  0.74322957  1
  O  O128  1  0.12606336  0.00430904  0.16255136  1
  O  O129  1  0.12736332  0.00770018  0.41203057  1
  O  O130  1  0.12678562  -0.00722161  0.66529187  1
  O  O131  1  0.12206311  -0.00016024  0.91621457  1
  O  O132  1  0.12523262  0.25122450  0.16525229  1
  O  O133  1  0.12601678  0.24751173  0.41801589  1
  O  O134  1  0.12381299  0.24417124  0.65840071  1
  O  O135  1  0.12069592  0.24717289  0.91054577  1
  O  O136  1  0.12591155  0.49847442  0.16122412  1
  O  O137  1  0.12889884  0.50466246  0.41789438  1
  O  O138  1  0.12379667  0.50799516  0.66359747  1
  O  O139  1  0.12091942  0.49402335  0.90949124  1
  O  O140  1  0.12705088  0.74727852  0.15594484  1
  O  O141  1  0.12988048  0.74286660  0.41045922  1
  O  O142  1  0.12617139  0.75044034  0.66842011  1
  O  O143  1  0.12036907  0.75600400  0.91695495  1
  O  O144  1  0.37639448  0.00649914  0.15246767  1
  O  O145  1  0.37458907  0.00213115  0.41535604  1
  O  O146  1  0.37075926  -0.00921460  0.67043189  1
  O  O147  1  0.37262799  -0.00028667  0.91304658  1
  O  O148  1  0.37590742  0.24565567  0.15605940  1
  O  O149  1  0.37516036  0.25014351  0.41916281  1
  O  O150  1  0.37250979  0.24770409  0.66794385  1
  O  O151  1  0.37212326  0.24872161  0.90496821  1
  O  O152  1  0.37785387  0.50709092  0.16093804  1
  O  O153  1  0.36932568  0.50341486  0.41382005  1
  O  O154  1  0.36979227  0.51129880  0.66424844  1
  O  O155  1  0.37713202  0.51000873  0.91236241  1
  O  O156  1  0.37863772  0.74079332  0.15854421  1
  O  O157  1  0.37087839  0.74745512  0.41329507  1
  O  O158  1  0.36933233  0.74754262  0.67334042  1
  O  O159  1  0.37893845  0.73926383  0.91776952  1
  O  O160  1  0.62508321  0.00471770  0.16048253  1
  O  O161  1  0.62213406  0.00906047  0.41657457  1
  O  O162  1  0.62178610  -0.00872955  0.66726982  1
  O  O163  1  0.62927761  -0.00950548  0.91183685  1
  O  O164  1  0.62613971  0.24980680  0.16216449  1
  O  O165  1  0.62236678  0.24247204  0.42083015  1
  O  O166  1  0.62511935  0.24278078  0.66176558  1
  O  O167  1  0.62968235  0.24951840  0.90282411  1
  O  O168  1  0.62376474  0.50291819  0.16499653  1
  O  O169  1  0.62252881  0.49960044  0.41915350  1
  O  O170  1  0.62408920  0.50568620  0.66575283  1
  O  O171  1  0.63240216  0.50994758  0.90636742  1
  O  O172  1  0.62355599  0.74213028  0.16202993  1
  O  O173  1  0.62126392  0.75108017  0.41336489  1
  O  O174  1  0.62123409  0.75712971  0.66394244  1
  O  O175  1  0.63040591  0.74745546  0.91751923  1
  O  O176  1  0.87394053  0.00858570  0.15742312  1
  O  O177  1  0.87447566  0.00854034  0.41281047  1
  O  O178  1  0.87783775  -0.00275940  0.66717101  1
  O  O179  1  0.87838334  0.00182482  0.91870736  1
  O  O180  1  0.87411865  0.25264123  0.16362974  1
  O  O181  1  0.87480893  0.24439877  0.41833759  1
  O  O182  1  0.87812663  0.25113057  0.66275791  1
  O  O183  1  0.87999335  0.23978834  0.91025347  1
  O  O184  1  0.87318810  0.49271123  0.16134477  1
  O  O185  1  0.88171579  0.50607664  0.41337471  1
  O  O186  1  0.87886229  0.49545036  0.66002806  1
  O  O187  1  0.87459000  0.50596426  0.90899588  1
  O  O188  1  0.87197387  0.74798182  0.16190271  1
  O  O189  1  0.88069121  0.74230817  0.40913825  1
  O  O190  1  0.87788988  0.75242308  0.66479633  1
  O  O191  1  0.87513014  0.74985771  0.91860540  1
  O  O192  1  -0.00915717  0.12975553  0.16338408  1
  O  O193  1  -0.00124993  0.12733262  0.41037738  1
  O  O194  1  0.00878706  0.11866132  0.66600883  1
  O  O195  1  0.00059778  0.12109354  0.91855831  1
  O  O196  1  -0.00625532  0.37324926  0.15956356  1
  O  O197  1  0.00301500  0.37412117  0.41850074  1
  O  O198  1  -0.00143337  0.37416207  0.66405042  1
  O  O199  1  0.00266722  0.37202099  0.91451608  1
  O  O200  1  -0.00102850  0.62116857  0.16189792  1
  O  O201  1  0.00802624  0.62375128  0.41094330  1
  O  O202  1  0.00617569  0.62818097  0.66572240  1
  O  O203  1  -0.00966826  0.62711533  0.91621870  1
  O  O204  1  -0.00059389  0.87739554  0.15747449  1
  O  O205  1  0.00308745  0.87670130  0.41064087  1
  O  O206  1  0.00974775  0.87235398  0.66321042  1
  O  O207  1  0.00162975  0.87647424  0.92073814  1
  O  O208  1  0.25820383  0.12704871  0.15774035  1
  O  O209  1  0.25237436  0.12681957  0.41556420  1
  O  O210  1  0.23828286  0.11853088  0.66926807  1
  O  O211  1  0.24039334  0.12324673  0.90911274  1
  O  O212  1  0.25419141  0.37599874  0.16065718  1
  O  O213  1  0.25119198  0.37413732  0.42075568  1
  O  O214  1  0.24511867  0.37829032  0.66996614  1
  O  O215  1  0.24085681  0.37473851  0.90973227  1
  O  O216  1  0.25686174  0.62306866  0.15374502  1
  O  O217  1  0.25069633  0.62465972  0.41799581  1
  O  O218  1  0.24704949  0.62889822  0.66906560  1
  O  O219  1  0.25266338  0.62610495  0.90699605  1
  O  O220  1  0.25569411  0.87445580  0.16018732  1
  O  O221  1  0.25447812  0.87657219  0.41640638  1
  O  O222  1  0.24537771  0.87009432  0.67129399  1
  O  O223  1  0.24189242  0.87308923  0.91440167  1
  O  O224  1  0.49412727  0.12716041  0.15718057  1
  O  O225  1  0.50030144  0.12630676  0.41994061  1
  O  O226  1  0.50676764  0.11829366  0.66984055  1
  O  O227  1  0.50097980  0.12085412  0.90619377  1
  O  O228  1  0.49897914  0.37631613  0.15987130  1
  O  O229  1  0.49460150  0.37391701  0.41783032  1
  O  O230  1  0.49754560  0.37597359  0.66645392  1
  O  O231  1  0.50345610  0.38067008  0.90220283  1
  O  O232  1  0.50114054  0.62299706  0.16320233  1
  O  O233  1  0.48736440  0.62436172  0.41400072  1
  O  O234  1  0.49064578  0.63034810  0.66299019  1
  O  O235  1  0.50910815  0.62749408  0.91014633  1
  O  O236  1  0.49830350  0.87305687  0.16112525  1
  O  O237  1  0.49255738  0.87678914  0.41553547  1
  O  O238  1  0.49910557  0.87215714  0.66787872  1
  O  O239  1  0.50910394  0.86873849  0.91327392  1
  O  O240  1  0.75740666  0.12972449  0.16185331  1
  O  O241  1  0.74683384  0.12639240  0.41378703  1
  O  O242  1  0.74469634  0.11749420  0.66367897  1
  O  O243  1  0.75954851  0.11952724  0.90899506  1
  O  O244  1  0.75409100  0.37454930  0.16262577  1
  O  O245  1  0.75151231  0.37355604  0.42019124  1
  O  O246  1  0.75872924  0.37293269  0.66195131  1
  O  O247  1  0.75356187  0.37619976  0.91148694  1
  O  O248  1  0.74286603  0.62137477  0.16309548  1
  O  O249  1  0.75601816  0.62479588  0.40559310  1
  O  O250  1  0.75113213  0.62833517  0.66061380  1
  O  O251  1  0.75158020  0.62918663  0.91483031  1
  O  O252  1  0.74843971  0.87608893  0.16465682  1
  O  O253  1  0.74996135  0.87626211  0.41330052  1
  O  O254  1  0.74255517  0.87481627  0.65761299  1
  O  O255  1  0.74913113  0.87234260  0.91789419  1
  O  O256  1  0.12095325  0.12761753  0.03296580  1
  O  O257  1  0.12864677  0.12825698  0.29533799  1
  O  O258  1  0.12704944  0.12159986  0.54865445  1
  O  O259  1  0.11699273  0.12077055  0.80128093  1
  O  O260  1  0.13048232  0.37095139  0.02987752  1
  O  O261  1  0.12791464  0.37635600  0.30445368  1
  O  O262  1  0.13124550  0.37425191  0.53409920  1
  O  O263  1  0.11789298  0.37493189  0.79792402  1
  O  O264  1  0.11798499  0.61846913  0.02409650  1
  O  O265  1  0.12940295  0.62037784  0.29802189  1
  O  O266  1  0.12851681  0.63112438  0.55226259  1
  O  O267  1  0.11364737  0.62719981  0.79420677  1
  O  O268  1  0.13306815  0.88071928  0.03243971  1
  O  O269  1  0.13092024  0.87770467  0.28186063  1
  O  O270  1  0.13065903  0.87576846  0.54972297  1
  O  O271  1  0.11991686  0.87437222  0.80489477  1
  O  O272  1  0.37760489  0.12705010  0.03855501  1
  O  O273  1  0.37948507  0.12698113  0.29871406  1
  O  O274  1  0.37561170  0.11613524  0.54801174  1
  O  O275  1  0.37044326  0.11605450  0.77769358  1
  O  O276  1  0.37250444  0.38250869  0.02514651  1
  O  O277  1  0.37331740  0.37427194  0.30135995  1
  O  O278  1  0.36808192  0.37188714  0.54032791  1
  O  O279  1  0.36710265  0.38035868  0.78423637  1
  O  O280  1  0.38030278  0.62262328  0.04227488  1
  O  O281  1  0.37068421  0.62461926  0.29892297  1
  O  O282  1  0.37073560  0.63181338  0.55113374  1
  O  O283  1  0.37435518  0.62779351  0.79705224  1
  O  O284  1  0.37355267  0.86639771  0.02488212  1
  O  O285  1  0.37419081  0.87495286  0.29565343  1
  O  O286  1  0.37226999  0.87028264  0.55348742  1
  O  O287  1  0.37269779  0.86486923  0.79529644  1
  O  O288  1  0.62747976  0.12598933  0.02695164  1
  O  O289  1  0.62267230  0.12711352  0.30093978  1
  O  O290  1  0.62101904  0.11954568  0.55391912  1
  O  O291  1  0.62998718  0.11135071  0.78364188  1
  O  O292  1  0.62973689  0.37819090  0.03124393  1
  O  O293  1  0.62721607  0.37587668  0.28974057  1
  O  O294  1  0.62664301  0.38090876  0.54222152  1
  O  O295  1  0.63354567  0.37597222  0.77462914  1
  O  O296  1  0.62444490  0.62108686  0.04864400  1
  O  O297  1  0.61709768  0.61658865  0.28809869  1
  O  O298  1  0.61811515  0.62439164  0.53271573  1
  O  O299  1  0.62618567  0.63244693  0.79581372  1
  O  O300  1  0.63040544  0.87094823  0.03407799  1
  O  O301  1  0.62142689  0.87952814  0.28432699  1
  O  O302  1  0.61910943  0.87514588  0.54691457  1
  O  O303  1  0.62889014  0.86899659  0.80206531  1
  O  O304  1  0.87400006  0.13019050  0.04487675  1
  O  O305  1  0.87413447  0.12941206  0.30129157  1
  O  O306  1  0.87723101  0.11749451  0.53548484  1
  O  O307  1  0.88044199  0.11941269  0.79767656  1
  O  O308  1  0.87162023  0.37365199  0.04648335  1
  O  O309  1  0.87560835  0.36933843  0.28796627  1
  O  O310  1  0.87968602  0.37326934  0.54807335  1
  O  O311  1  0.87725998  0.36682295  0.78387384  1
  O  O312  1  0.87713471  0.62248034  0.03389048  1
  O  O313  1  0.87811542  0.61991991  0.29642042  1
  O  O314  1  0.88483989  0.62772361  0.53142335  1
  O  O315  1  0.87232548  0.63058733  0.80095412  1
  O  O316  1  0.86746758  0.87306192  0.03283054  1
  O  O317  1  0.87225727  0.87869060  0.28325102  1
  O  O318  1  0.88027979  0.87658250  0.53160418  1
  O  O319  1  0.87601449  0.87513185  0.80528904  1
