# generated using pymatgen
data_VFe(PbO3)2
_symmetry_space_group_name_H-M   'P 1'
_cell_length_a   15.38044762
_cell_length_b   15.38909062
_cell_length_c   18.48335254
_cell_angle_alpha   89.95604886
_cell_angle_beta   89.99270083
_cell_angle_gamma   89.99177347
_symmetry_Int_Tables_number   1
_chemical_formula_structural   VFe(PbO3)2
_chemical_formula_sum   'V32 Fe32 Pb64 O192'
_cell_volume   4374.84371726
_cell_formula_units_Z   32
loop_
 _symmetry_equiv_pos_site_id
 _symmetry_equiv_pos_as_xyz
  1  'x, y, z'
loop_
 _atom_site_type_symbol
 _atom_site_label
 _atom_site_symmetry_multiplicity
 _atom_site_fract_x
 _atom_site_fract_y
 _atom_site_fract_z
 _atom_site_occupancy
  V  V0  1  0.62495629  0.37638956  0.63730207  1
  V  V1  1  0.12389688  0.37248690  0.89101533  1
  V  V2  1  0.37545294  0.37450723  0.14114176  1
  V  V3  1  0.12599573  0.12467086  0.38631915  1
  V  V4  1  0.12712789  0.12360503  0.89247174  1
  V  V5  1  0.62391807  0.62491779  0.88918747  1
  V  V6  1  0.12864706  0.87222834  0.38433060  1
  V  V7  1  0.87179806  0.62346758  0.89209902  1
  V  V8  1  0.62303459  0.37382281  0.89111336  1
  V  V9  1  0.12530446  0.62665943  0.64322922  1
  V  V10  1  0.87583217  0.62738619  0.63928472  1
  V  V11  1  0.37247837  0.62042439  0.13688163  1
  V  V12  1  0.37334587  0.62494996  0.38785882  1
  V  V13  1  0.37402826  0.37296658  0.89366909  1
  V  V14  1  0.37818318  0.62409062  0.89319381  1
  V  V15  1  0.37635395  0.37381878  0.38471843  1
  V  V16  1  0.87524617  0.37418146  0.14085221  1
  V  V17  1  0.12465441  0.87600038  0.64237999  1
  V  V18  1  0.37730642  0.12596355  0.89283041  1
  V  V19  1  0.62152215  0.12477751  0.89119471  1
  V  V20  1  0.62489737  0.87473229  0.89145612  1
  V  V21  1  0.87681157  0.12408902  0.14194750  1
  V  V22  1  0.87366117  0.62147402  0.14268528  1
  V  V23  1  0.62385013  0.62547082  0.14149922  1
  V  V24  1  0.87472191  0.87286730  0.13909817  1
  V  V25  1  0.37379226  0.11984073  0.14592449  1
  V  V26  1  0.62724092  0.62452199  0.38758628  1
  V  V27  1  0.87423730  0.37663405  0.38673041  1
  V  V28  1  0.12394123  0.37282183  0.14276836  1
  V  V29  1  0.37176141  0.37684919  0.63595063  1
  V  V30  1  0.37353648  0.87191746  0.63800553  1
  V  V31  1  0.87670985  0.37846989  0.63937920  1
  Fe  Fe32  1  0.87729663  0.12651850  0.38918361  1
  Fe  Fe33  1  0.12204688  0.87663648  0.13028043  1
  Fe  Fe34  1  0.62394024  0.12793657  0.38064426  1
  Fe  Fe35  1  0.12752173  0.12661089  0.63446972  1
  Fe  Fe36  1  0.87778044  0.62482878  0.37991809  1
  Fe  Fe37  1  0.62404707  0.12451796  0.62933602  1
  Fe  Fe38  1  0.37301947  0.12371923  0.37596229  1
  Fe  Fe39  1  0.62345943  0.87397735  0.38239922  1
  Fe  Fe40  1  0.12451064  0.37774082  0.63013683  1
  Fe  Fe41  1  0.62599061  0.87341289  0.62688201  1
  Fe  Fe42  1  0.12190385  0.62401433  0.13522983  1
  Fe  Fe43  1  0.37275777  0.62559865  0.63612470  1
  Fe  Fe44  1  0.37204416  0.87363984  0.37668655  1
  Fe  Fe45  1  0.12617102  0.62083078  0.89387098  1
  Fe  Fe46  1  0.87270236  0.87723458  0.88631312  1
  Fe  Fe47  1  0.87650295  0.12610466  0.62781664  1
  Fe  Fe48  1  0.87833192  0.87256437  0.63089063  1
  Fe  Fe49  1  0.37596683  0.87101433  0.14047121  1
  Fe  Fe50  1  0.62548864  0.62526799  0.63472356  1
  Fe  Fe51  1  0.87783760  0.87452926  0.38655656  1
  Fe  Fe52  1  0.37666165  0.87714702  0.89197112  1
  Fe  Fe53  1  0.12409884  0.12577185  0.13574161  1
  Fe  Fe54  1  0.87138037  0.12638356  0.88586769  1
  Fe  Fe55  1  0.12644471  0.37575372  0.39004185  1
  Fe  Fe56  1  0.12545979  0.62577030  0.37869226  1
  Fe  Fe57  1  0.62586728  0.12598533  0.14514849  1
  Fe  Fe58  1  0.37263395  0.12342812  0.63319747  1
  Fe  Fe59  1  0.12522165  0.87357934  0.89332027  1
  Fe  Fe60  1  0.62749492  0.87345647  0.14585009  1
  Fe  Fe61  1  0.87221224  0.37309011  0.88735720  1
  Fe  Fe62  1  0.62602369  0.37568855  0.14764023  1
  Fe  Fe63  1  0.62348662  0.37910841  0.38032764  1
  Pb  Pb64  1  -0.00044135  -0.00400079  -0.00344971  1
  Pb  Pb65  1  -0.00961308  -0.00034365  0.25219895  1
  Pb  Pb66  1  -0.00801955  0.00185471  0.50000725  1
  Pb  Pb67  1  -0.01113947  0.00399285  0.74683868  1
  Pb  Pb68  1  -0.00171407  0.24508109  -0.00001345  1
  Pb  Pb69  1  -0.00438057  0.24773948  0.25574181  1
  Pb  Pb70  1  0.00295942  0.24405694  0.50062844  1
  Pb  Pb71  1  -0.00558074  0.24633351  0.74631201  1
  Pb  Pb72  1  0.00214149  0.50408788  0.00365370  1
  Pb  Pb73  1  0.00952948  0.50018867  0.25521110  1
  Pb  Pb74  1  0.00699000  0.49939825  0.49384543  1
  Pb  Pb75  1  0.00430305  0.50487998  0.75373319  1
  Pb  Pb76  1  0.00610379  0.75017553  -0.00079722  1
  Pb  Pb77  1  -0.00316038  0.74802858  0.24830727  1
  Pb  Pb78  1  -0.00409531  0.75092603  0.49397911  1
  Pb  Pb79  1  0.00576070  0.76179538  0.76017813  1
  Pb  Pb80  1  0.25024430  -0.00854143  0.00548792  1
  Pb  Pb81  1  0.24740829  -0.00755524  0.24453127  1
  Pb  Pb82  1  0.25269033  0.00817457  0.49571514  1
  Pb  Pb83  1  0.25166043  -0.00873132  0.75424680  1
  Pb  Pb84  1  0.24779623  0.24208449  0.00668999  1
  Pb  Pb85  1  0.25210859  0.24822910  0.25343064  1
  Pb  Pb86  1  0.24868477  0.24054065  0.50130556  1
  Pb  Pb87  1  0.24564610  0.24833411  0.74463763  1
  Pb  Pb88  1  0.24699103  0.50171642  0.00410884  1
  Pb  Pb89  1  0.23850844  0.49800718  0.25521027  1
  Pb  Pb90  1  0.24704106  0.49815644  0.49810587  1
  Pb  Pb91  1  0.24260739  0.50762530  0.75333867  1
  Pb  Pb92  1  0.24625287  0.75606235  0.00265582  1
  Pb  Pb93  1  0.24543705  0.75109659  0.24112356  1
  Pb  Pb94  1  0.25717414  0.74485117  0.49820562  1
  Pb  Pb95  1  0.24716820  0.75732279  0.76078074  1
  Pb  Pb96  1  0.50134254  -0.00882792  0.01070072  1
  Pb  Pb97  1  0.50997659  -0.00613268  0.25356503  1
  Pb  Pb98  1  0.50065232  0.00058216  0.48500815  1
  Pb  Pb99  1  0.50131871  -0.00040293  0.74098227  1
  Pb  Pb100  1  0.50931632  0.24539141  0.01004025  1
  Pb  Pb101  1  0.50438047  0.24135904  0.25511460  1
  Pb  Pb102  1  0.50175115  0.23940713  0.49291410  1
  Pb  Pb103  1  0.50052997  0.24789789  0.74435689  1
  Pb  Pb104  1  0.50480287  0.49272922  0.00468749  1
  Pb  Pb105  1  0.50345452  0.49819503  0.25349161  1
  Pb  Pb106  1  0.49820280  0.51162869  0.50127334  1
  Pb  Pb107  1  0.49883471  0.50243843  0.74687242  1
  Pb  Pb108  1  0.50027908  0.76088512  0.00987008  1
  Pb  Pb109  1  0.49991646  0.75950318  0.25306092  1
  Pb  Pb110  1  0.50706664  0.75368808  0.49739632  1
  Pb  Pb111  1  0.49942540  0.75083809  0.74519374  1
  Pb  Pb112  1  0.74165926  0.00480961  0.00243547  1
  Pb  Pb113  1  0.74495890  -0.00028372  0.25646485  1
  Pb  Pb114  1  0.74443945  0.00016099  0.48850581  1
  Pb  Pb115  1  0.75540193  0.00059344  0.73589148  1
  Pb  Pb116  1  0.74103573  0.24773179  0.00510517  1
  Pb  Pb117  1  0.74636748  0.24216245  0.25561758  1
  Pb  Pb118  1  0.74478995  0.24166534  0.49346582  1
  Pb  Pb119  1  0.75826343  0.24427582  0.74796560  1
  Pb  Pb120  1  0.74284330  0.49269188  0.00390629  1
  Pb  Pb121  1  0.75217607  0.49922558  0.25326509  1
  Pb  Pb122  1  0.74640165  0.50498785  0.49711312  1
  Pb  Pb123  1  0.75563587  0.49386760  0.75229801  1
  Pb  Pb124  1  0.74352894  0.75337320  0.00370348  1
  Pb  Pb125  1  0.76125033  0.75277197  0.25740861  1
  Pb  Pb126  1  0.75295427  0.76205407  0.49736440  1
  Pb  Pb127  1  0.75180710  0.75832533  0.74440024  1
  O  O128  1  0.12391736  0.00115521  0.16301393  1
  O  O129  1  0.12923266  0.00289372  0.40780104  1
  O  O130  1  0.12707576  -0.00811747  0.66319921  1
  O  O131  1  0.12887711  0.00786523  0.91058747  1
  O  O132  1  0.12490835  0.25378925  0.16837477  1
  O  O133  1  0.12729263  0.24590244  0.40825552  1
  O  O134  1  0.12671989  0.25524970  0.66349599  1
  O  O135  1  0.12796804  0.25372360  0.91648111  1
  O  O136  1  0.12282426  0.49521632  0.16554145  1
  O  O137  1  0.12873711  0.50267738  0.41446871  1
  O  O138  1  0.12375232  0.50196618  0.66821774  1
  O  O139  1  0.12639049  0.49033616  0.91842989  1
  O  O140  1  0.12179423  0.74960582  0.15609726  1
  O  O141  1  0.12771361  0.75520848  0.40519368  1
  O  O142  1  0.12532538  0.75029958  0.67025066  1
  O  O143  1  0.12605694  0.74495806  0.91620461  1
  O  O144  1  0.37355408  0.00414514  0.15733719  1
  O  O145  1  0.37012503  -0.00094723  0.40286290  1
  O  O146  1  0.37045669  -0.00903256  0.66105847  1
  O  O147  1  0.37691332  0.00730700  0.91910289  1
  O  O148  1  0.37308718  0.26031899  0.16324778  1
  O  O149  1  0.37400936  0.25839982  0.40328581  1
  O  O150  1  0.37747518  0.26012955  0.66298065  1
  O  O151  1  0.37707127  0.24930351  0.92209228  1
  O  O152  1  0.37617199  0.50331952  0.16623478  1
  O  O153  1  0.37516562  0.50522774  0.41172664  1
  O  O154  1  0.37784950  0.49317839  0.66445747  1
  O  O155  1  0.37804318  0.49802190  0.92008556  1
  O  O156  1  0.37858463  0.73639694  0.16062296  1
  O  O157  1  0.37335174  0.74362599  0.41081463  1
  O  O158  1  0.37092325  0.75489735  0.66628499  1
  O  O159  1  0.37796894  0.73959929  0.91498346  1
  O  O160  1  0.62671747  0.00077611  0.16641200  1
  O  O161  1  0.62357446  0.00094899  0.40369352  1
  O  O162  1  0.62209803  -0.00212233  0.65983819  1
  O  O163  1  0.62308950  -0.00441342  0.91494072  1
  O  O164  1  0.62591583  0.25150884  0.16781808  1
  O  O165  1  0.62191875  0.25607299  0.40621820  1
  O  O166  1  0.62410725  0.25968022  0.66215067  1
  O  O167  1  0.62172768  0.25003357  0.91870346  1
  O  O168  1  0.62897602  0.50800128  0.16762456  1
  O  O169  1  0.62257010  0.50495865  0.41481398  1
  O  O170  1  0.62601588  0.49410625  0.66601003  1
  O  O171  1  0.62353481  0.49997418  0.91725753  1
  O  O172  1  0.62849417  0.73996912  0.16746525  1
  O  O173  1  0.62189845  0.74099778  0.40721687  1
  O  O174  1  0.62348809  0.75022497  0.66490966  1
  O  O175  1  0.62361487  0.75125660  0.91566328  1
  O  O176  1  0.87705661  0.00275406  0.16036133  1
  O  O177  1  0.88039837  -0.00015745  0.41221777  1
  O  O178  1  0.87981549  -0.00084820  0.65586869  1
  O  O179  1  0.87205763  0.00238835  0.91722942  1
  O  O180  1  0.87725016  0.25232207  0.16460868  1
  O  O181  1  0.87762052  0.25993432  0.41258617  1
  O  O182  1  0.87280560  0.25911931  0.65932049  1
  O  O183  1  0.87393238  0.24947965  0.91931890  1
  O  O184  1  0.87480189  0.49445579  0.16354654  1
  O  O185  1  0.87362098  0.49661397  0.41105531  1
  O  O186  1  0.87259991  0.50018131  0.66671842  1
  O  O187  1  0.86988675  0.50376652  0.91762827  1
  O  O188  1  0.87380537  0.75296748  0.16039294  1
  O  O189  1  0.87832631  0.74768732  0.41287874  1
  O  O190  1  0.87944381  0.74206458  0.66235436  1
  O  O191  1  0.87042485  0.74053000  0.91665479  1
  O  O192  1  -0.00554085  0.12844186  0.16555156  1
  O  O193  1  0.00955086  0.12674017  0.41209569  1
  O  O194  1  0.00148375  0.12811298  0.66290878  1
  O  O195  1  0.00858138  0.12904607  0.91202543  1
  O  O196  1  -0.00427375  0.37427931  0.16619231  1
  O  O197  1  -0.00576294  0.37840543  0.41199137  1
  O  O198  1  -0.00691437  0.37927448  0.65891225  1
  O  O199  1  0.00663419  0.37369242  0.91301084  1
  O  O200  1  -0.00620521  0.62274566  0.16142963  1
  O  O201  1  0.00203203  0.62350095  0.40796900  1
  O  O202  1  -0.00425186  0.62039416  0.66781524  1
  O  O203  1  -0.00899217  0.62012961  0.91476752  1
  O  O204  1  -0.00810304  0.87622464  0.16063726  1
  O  O205  1  0.01383981  0.87733135  0.41182396  1
  O  O206  1  0.00697915  0.87058886  0.66424213  1
  O  O207  1  -0.00289246  0.87399458  0.91594175  1
  O  O208  1  0.25430183  0.13152813  0.16533009  1
  O  O209  1  0.24647781  0.12783405  0.40965603  1
  O  O210  1  0.25167006  0.12533765  0.66943168  1
  O  O211  1  0.24947151  0.12996862  0.91790367  1
  O  O212  1  0.25318083  0.37977326  0.16430085  1
  O  O213  1  0.25997565  0.38134007  0.41128946  1
  O  O214  1  0.25624897  0.37812242  0.65837326  1
  O  O215  1  0.24897053  0.37361299  0.91826501  1
  O  O216  1  0.25585102  0.62087782  0.15470055  1
  O  O217  1  0.25476641  0.62531135  0.40971925  1
  O  O218  1  0.24708696  0.62307998  0.66917264  1
  O  O219  1  0.25968503  0.61818816  0.91590256  1
  O  O220  1  0.24910526  0.87229459  0.15806258  1
  O  O221  1  0.24388441  0.87443431  0.41243066  1
  O  O222  1  0.24833888  0.87124292  0.66841356  1
  O  O223  1  0.25298594  0.87499371  0.92049693  1
  O  O224  1  0.49158072  0.13139634  0.16319649  1
  O  O225  1  0.49646684  0.12805776  0.40441920  1
  O  O226  1  0.49753464  0.12657962  0.66435209  1
  O  O227  1  0.50117428  0.12593988  0.92273075  1
  O  O228  1  0.49184840  0.38193909  0.16473606  1
  O  O229  1  0.49184827  0.38321044  0.41054324  1
  O  O230  1  0.50261161  0.37729445  0.66131608  1
  O  O231  1  0.49987104  0.37422102  0.92098202  1
  O  O232  1  0.50417704  0.62107921  0.16168562  1
  O  O233  1  0.49846730  0.62363543  0.41087881  1
  O  O234  1  0.49825803  0.62343236  0.66742766  1
  O  O235  1  0.49994847  0.62068759  0.91782238  1
  O  O236  1  0.50014389  0.87132515  0.16624324  1
  O  O237  1  0.49648637  0.87053338  0.40610136  1
  O  O238  1  0.49151565  0.87265096  0.65646170  1
  O  O239  1  0.50590905  0.87400668  0.91867686  1
  O  O240  1  0.76071664  0.12687308  0.16688089  1
  O  O241  1  0.75026664  0.12903449  0.40684259  1
  O  O242  1  0.75005239  0.12802060  0.65734347  1
  O  O243  1  0.74135482  0.12522331  0.91543536  1
  O  O244  1  0.75963519  0.37469194  0.16632493  1
  O  O245  1  0.75447896  0.37868426  0.41011853  1
  O  O246  1  0.74838773  0.37782632  0.66327426  1
  O  O247  1  0.74331156  0.37491277  0.91739303  1
  O  O248  1  0.74950422  0.62416599  0.16703756  1
  O  O249  1  0.74441219  0.62275030  0.40717026  1
  O  O250  1  0.75822210  0.62329957  0.66336268  1
  O  O251  1  0.74652948  0.62339160  0.91858284  1
  O  O252  1  0.75925043  0.87676038  0.16615858  1
  O  O253  1  0.74951926  0.87182371  0.40731411  1
  O  O254  1  0.75243690  0.87129486  0.65732009  1
  O  O255  1  0.74238181  0.87309267  0.91616270  1
  O  O256  1  0.12597673  0.13296036  0.03599937  1
  O  O257  1  0.12539743  0.12525728  0.29487141  1
  O  O258  1  0.13392661  0.12798875  0.53409315  1
  O  O259  1  0.13118835  0.13056140  0.80155766  1
  O  O260  1  0.12298271  0.37313598  0.05111654  1
  O  O261  1  0.12520099  0.38554410  0.28860251  1
  O  O262  1  0.12634294  0.38317910  0.53001109  1
  O  O263  1  0.12666243  0.37344524  0.79993237  1
  O  O264  1  0.12090189  0.61305071  0.03320585  1
  O  O265  1  0.12660756  0.61782848  0.27781407  1
  O  O266  1  0.12524970  0.62799330  0.55201062  1
  O  O267  1  0.12431231  0.61275701  0.79325820  1
  O  O268  1  0.12424044  0.87821730  0.02840432  1
  O  O269  1  0.12941533  0.87554252  0.29246870  1
  O  O270  1  0.12838658  0.87147097  0.55181993  1
  O  O271  1  0.12947751  0.86900498  0.79136624  1
  O  O272  1  0.37185107  0.13058512  0.05418899  1
  O  O273  1  0.37204762  0.13436172  0.27505073  1
  O  O274  1  0.36654725  0.12885347  0.53327373  1
  O  O275  1  0.37859428  0.12768971  0.80180940  1
  O  O276  1  0.37540797  0.37704293  0.04975399  1
  O  O277  1  0.37631396  0.37933024  0.29294990  1
  O  O278  1  0.37491519  0.37655080  0.54505900  1
  O  O279  1  0.37471535  0.37346290  0.80302989  1
  O  O280  1  0.37840764  0.61774094  0.04585854  1
  O  O281  1  0.37458567  0.62414065  0.29674567  1
  O  O282  1  0.37188967  0.62653524  0.53676251  1
  O  O283  1  0.37980571  0.62037685  0.80189332  1
  O  O284  1  0.38451304  0.87370474  0.03740939  1
  O  O285  1  0.36860720  0.86607367  0.27590779  1
  O  O286  1  0.36601298  0.86818754  0.54712313  1
  O  O287  1  0.36929876  0.87492679  0.79209157  1
  O  O288  1  0.62914658  0.12940816  0.04257738  1
  O  O289  1  0.62546023  0.12785729  0.27699228  1
  O  O290  1  0.62037075  0.13212173  0.52913390  1
  O  O291  1  0.61793353  0.12681876  0.80017703  1
  O  O292  1  0.62555443  0.37932078  0.04595196  1
  O  O293  1  0.62467589  0.38765335  0.27933052  1
  O  O294  1  0.62616547  0.37903176  0.54653712  1
  O  O295  1  0.62250393  0.37346240  0.80013226  1
  O  O296  1  0.62691620  0.62534467  0.04975786  1
  O  O297  1  0.62336587  0.61999106  0.29636430  1
  O  O298  1  0.62249441  0.62221597  0.53504924  1
  O  O299  1  0.62524609  0.62509149  0.79890517  1
  O  O300  1  0.62366180  0.86842614  0.04363838  1
  O  O301  1  0.62292108  0.87533857  0.27874713  1
  O  O302  1  0.62309587  0.86844726  0.52616788  1
  O  O303  1  0.62384339  0.87405641  0.80072547  1
  O  O304  1  0.87625805  0.12732223  0.05061359  1
  O  O305  1  0.88444735  0.12890937  0.28774242  1
  O  O306  1  0.88449831  0.13171123  0.52684855  1
  O  O307  1  0.87594268  0.13078297  0.78515655  1
  O  O308  1  0.87539658  0.37369805  0.04955202  1
  O  O309  1  0.87549028  0.37536251  0.29512277  1
  O  O310  1  0.87207932  0.38248275  0.54903530  1
  O  O311  1  0.86742275  0.37483140  0.78753467  1
  O  O312  1  0.87012555  0.62188505  0.05119970  1
  O  O313  1  0.87288506  0.63199767  0.27922238  1
  O  O314  1  0.87752138  0.62477360  0.54822142  1
  O  O315  1  0.86977104  0.62272954  0.80102877  1
  O  O316  1  0.87162301  0.87450551  0.04777248  1
  O  O317  1  0.88327211  0.87029339  0.28507703  1
  O  O318  1  0.88338026  0.86632099  0.53026243  1
  O  O319  1  0.87697783  0.87175017  0.78611049  1
