# generated using pymatgen
data_VFe(PbO3)2
_symmetry_space_group_name_H-M   'P 1'
_cell_length_a   15.38377703
_cell_length_b   15.38160783
_cell_length_c   18.52217303
_cell_angle_alpha   90.01570510
_cell_angle_beta   89.97544553
_cell_angle_gamma   89.98963656
_symmetry_Int_Tables_number   1
_chemical_formula_structural   VFe(PbO3)2
_chemical_formula_sum   'V32 Fe32 Pb64 O192'
_cell_volume   4382.84976829
_cell_formula_units_Z   32
loop_
 _symmetry_equiv_pos_site_id
 _symmetry_equiv_pos_as_xyz
  1  'x, y, z'
loop_
 _atom_site_type_symbol
 _atom_site_label
 _atom_site_symmetry_multiplicity
 _atom_site_fract_x
 _atom_site_fract_y
 _atom_site_fract_z
 _atom_site_occupancy
  V  V0  1  0.87511295  0.87619319  0.13951075  1
  V  V1  1  0.62658314  0.37366516  0.63298134  1
  V  V2  1  0.62606204  0.12389524  0.38608680  1
  V  V3  1  0.87790857  0.62616106  0.38419101  1
  V  V4  1  0.62218770  0.12673301  0.89037314  1
  V  V5  1  0.12161990  0.87334851  0.63986707  1
  V  V6  1  0.62510658  0.62527092  0.14192603  1
  V  V7  1  0.62465258  0.62390817  0.63992383  1
  V  V8  1  0.12433439  0.37442502  0.14098807  1
  V  V9  1  0.62864883  0.12654146  0.14605266  1
  V  V10  1  0.12549101  0.12545090  0.88614324  1
  V  V11  1  0.37638158  0.62560377  0.38217116  1
  V  V12  1  0.62670924  0.37303543  0.89239444  1
  V  V13  1  0.87887379  0.62662432  0.64088181  1
  V  V14  1  0.12364935  0.87642281  0.14158985  1
  V  V15  1  0.37562923  0.87805189  0.89228992  1
  V  V16  1  0.62398115  0.37337716  0.15062506  1
  V  V17  1  0.37430166  0.12388138  0.38872612  1
  V  V18  1  0.87311907  0.37313675  0.88762926  1
  V  V19  1  0.12864506  0.62547747  0.64155086  1
  V  V20  1  0.12627621  0.62781038  0.38788657  1
  V  V21  1  0.62329506  0.87247877  0.63633708  1
  V  V22  1  0.87564417  0.37538776  0.14648256  1
  V  V23  1  0.87152531  0.62601354  0.89342092  1
  V  V24  1  0.12628080  0.12610691  0.14569979  1
  V  V25  1  0.37311295  0.87336733  0.14603504  1
  V  V26  1  0.37599685  0.12510089  0.14676151  1
  V  V27  1  0.62532854  0.87513623  0.89606135  1
  V  V28  1  0.37770287  0.12338469  0.88884230  1
  V  V29  1  0.37368500  0.86933656  0.63836978  1
  V  V30  1  0.12459578  0.62329564  0.13777764  1
  V  V31  1  0.87535669  0.87534126  0.38681553  1
  Fe  Fe32  1  0.87906616  0.12701019  0.14771108  1
  Fe  Fe33  1  0.87141587  0.12463727  0.88549999  1
  Fe  Fe34  1  0.87146293  0.87024735  0.64012257  1
  Fe  Fe35  1  0.12511586  0.37800880  0.39182138  1
  Fe  Fe36  1  0.12331797  0.37703378  0.62877057  1
  Fe  Fe37  1  0.87339262  0.87799229  0.88238184  1
  Fe  Fe38  1  0.37183295  0.37290397  0.14380865  1
  Fe  Fe39  1  0.87475514  0.37699548  0.38887707  1
  Fe  Fe40  1  0.12689294  0.87102071  0.38498409  1
  Fe  Fe41  1  0.12245582  0.37404490  0.88281760  1
  Fe  Fe42  1  0.62792729  0.62663073  0.37909056  1
  Fe  Fe43  1  0.12489977  0.87653946  0.88471759  1
  Fe  Fe44  1  0.87765033  0.62515031  0.13709189  1
  Fe  Fe45  1  0.37581377  0.37189613  0.88471747  1
  Fe  Fe46  1  0.37470755  0.87432518  0.38065904  1
  Fe  Fe47  1  0.62451557  0.37770566  0.37850932  1
  Fe  Fe48  1  0.62352186  0.87334334  0.37773105  1
  Fe  Fe49  1  0.62300468  0.12309781  0.62825006  1
  Fe  Fe50  1  0.37676531  0.12479289  0.62851347  1
  Fe  Fe51  1  0.12597895  0.12336496  0.62421337  1
  Fe  Fe52  1  0.87243806  0.12322023  0.62732268  1
  Fe  Fe53  1  0.37918653  0.62439330  0.88918390  1
  Fe  Fe54  1  0.37581404  0.62752562  0.63677765  1
  Fe  Fe55  1  0.62563573  0.62177645  0.88944579  1
  Fe  Fe56  1  0.87130745  0.37921594  0.62931069  1
  Fe  Fe57  1  0.37250755  0.62474197  0.13586376  1
  Fe  Fe58  1  0.37617766  0.37514027  0.38482457  1
  Fe  Fe59  1  0.12492437  0.12206747  0.39350419  1
  Fe  Fe60  1  0.37712088  0.37956213  0.63018696  1
  Fe  Fe61  1  0.12610017  0.62463139  0.88388064  1
  Fe  Fe62  1  0.62579491  0.87872806  0.14518150  1
  Fe  Fe63  1  0.87427647  0.12361945  0.38342046  1
  Pb  Pb64  1  -0.00824542  0.00270821  -0.00259224  1
  Pb  Pb65  1  0.00513890  0.01214608  0.25993441  1
  Pb  Pb66  1  -0.00184783  0.00702364  0.49759967  1
  Pb  Pb67  1  -0.01267758  0.00503263  0.74531181  1
  Pb  Pb68  1  -0.00704005  0.24294720  0.00040138  1
  Pb  Pb69  1  0.00099973  0.26004934  0.26529166  1
  Pb  Pb70  1  0.00114763  0.24944079  0.49312118  1
  Pb  Pb71  1  0.00093792  0.25003686  0.73222028  1
  Pb  Pb72  1  -0.00101854  0.50078063  -0.00344142  1
  Pb  Pb73  1  0.00116645  0.49014870  0.25709071  1
  Pb  Pb74  1  -0.00006012  0.49169853  0.50148798  1
  Pb  Pb75  1  0.00880987  0.49304582  0.75030040  1
  Pb  Pb76  1  0.00150923  0.75405677  -0.00519972  1
  Pb  Pb77  1  0.00503877  0.75567914  0.24884713  1
  Pb  Pb78  1  -0.00758382  0.75661674  0.50210445  1
  Pb  Pb79  1  0.00768496  0.75117854  0.75685259  1
  Pb  Pb80  1  0.24877316  0.00373773  -0.00013284  1
  Pb  Pb81  1  0.24168305  0.00116731  0.25923812  1
  Pb  Pb82  1  0.24817218  -0.00015887  0.49574933  1
  Pb  Pb83  1  0.24560683  0.00041123  0.74313164  1
  Pb  Pb84  1  0.25447583  0.25817605  -0.00117276  1
  Pb  Pb85  1  0.23752073  0.24983534  0.26044000  1
  Pb  Pb86  1  0.24460310  0.25366290  0.49718032  1
  Pb  Pb87  1  0.24837847  0.25558406  0.73489093  1
  Pb  Pb88  1  0.25360256  0.49769604  -0.00734593  1
  Pb  Pb89  1  0.25252147  0.49414128  0.25048422  1
  Pb  Pb90  1  0.25501862  0.49073450  0.50139073  1
  Pb  Pb91  1  0.25525537  0.48896421  0.74992857  1
  Pb  Pb92  1  0.25091400  0.74253242  -0.00222502  1
  Pb  Pb93  1  0.24847048  0.75807308  0.25258134  1
  Pb  Pb94  1  0.25819623  0.74398845  0.49881608  1
  Pb  Pb95  1  0.24234525  0.74705375  0.75734655  1
  Pb  Pb96  1  0.50809099  -0.00438522  0.00958562  1
  Pb  Pb97  1  0.49644238  -0.00526264  0.25595739  1
  Pb  Pb98  1  0.50121349  0.00433055  0.49686128  1
  Pb  Pb99  1  0.50034388  0.00076690  0.74361702  1
  Pb  Pb100  1  0.49455328  0.25631631  0.00500748  1
  Pb  Pb101  1  0.49501866  0.25718528  0.25740896  1
  Pb  Pb102  1  0.49789988  0.24730082  0.49588642  1
  Pb  Pb103  1  0.49386524  0.25392098  0.74106653  1
  Pb  Pb104  1  0.48846945  0.50146335  0.00356458  1
  Pb  Pb105  1  0.49600687  0.49585398  0.25043216  1
  Pb  Pb106  1  0.49568614  0.49800299  0.49342798  1
  Pb  Pb107  1  0.48777743  0.50285598  0.75339830  1
  Pb  Pb108  1  0.49884917  0.74569200  0.00567587  1
  Pb  Pb109  1  0.50468041  0.75279473  0.25129704  1
  Pb  Pb110  1  0.50105761  0.74883368  0.49111626  1
  Pb  Pb111  1  0.49967048  0.74061751  0.75573481  1
  Pb  Pb112  1  0.74947928  -0.00068012  0.00363013  1
  Pb  Pb113  1  0.75769538  0.00361414  0.25348941  1
  Pb  Pb114  1  0.74967502  0.00544071  0.50008982  1
  Pb  Pb115  1  0.75818585  0.00295126  0.74838925  1
  Pb  Pb116  1  0.75456413  0.24308691  0.00420235  1
  Pb  Pb117  1  0.75899531  0.25800960  0.26031349  1
  Pb  Pb118  1  0.75736132  0.24877932  0.49361217  1
  Pb  Pb119  1  0.75665808  0.24150382  0.74066998  1
  Pb  Pb120  1  0.75320722  0.50184044  0.00637771  1
  Pb  Pb121  1  0.74373473  0.50225141  0.25415952  1
  Pb  Pb122  1  0.74914662  0.49591208  0.49240190  1
  Pb  Pb123  1  0.74312789  0.50615781  0.75031604  1
  Pb  Pb124  1  0.75179728  0.74840670  0.00552875  1
  Pb  Pb125  1  0.74265806  0.74825752  0.25060109  1
  Pb  Pb126  1  0.75214424  0.75621743  0.49636305  1
  Pb  Pb127  1  0.74527870  0.74826313  0.75341904  1
  O  O128  1  0.12867866  0.00227820  0.16756892  1
  O  O129  1  0.12643717  -0.00619695  0.41397643  1
  O  O130  1  0.12862838  -0.00991407  0.65775520  1
  O  O131  1  0.12849633  0.00665333  0.91532603  1
  O  O132  1  0.12595642  0.24653169  0.16750192  1
  O  O133  1  0.12646552  0.25007911  0.41210673  1
  O  O134  1  0.12514574  0.24973566  0.65224323  1
  O  O135  1  0.12600696  0.24075593  0.91152331  1
  O  O136  1  0.12342429  0.50307996  0.16055885  1
  O  O137  1  0.12239851  0.51369651  0.41367090  1
  O  O138  1  0.12106575  0.50959800  0.66097507  1
  O  O139  1  0.12139651  0.50000767  0.91444420  1
  O  O140  1  0.12546748  0.74989707  0.16237535  1
  O  O141  1  0.12277361  0.74299715  0.41655377  1
  O  O142  1  0.12496248  0.75001894  0.66860941  1
  O  O143  1  0.12472316  0.75075079  0.91714046  1
  O  O144  1  0.37162901  0.00399693  0.16996546  1
  O  O145  1  0.37739584  0.00424804  0.40860380  1
  O  O146  1  0.37788955  -0.01305819  0.66220493  1
  O  O147  1  0.37799952  -0.00151262  0.92161284  1
  O  O148  1  0.37129946  0.24110416  0.17119959  1
  O  O149  1  0.37909048  0.24358355  0.40905753  1
  O  O150  1  0.37877146  0.25256468  0.65681408  1
  O  O151  1  0.37789574  0.24428595  0.91591379  1
  O  O152  1  0.37253432  0.50117034  0.16515761  1
  O  O153  1  0.37278439  0.51006005  0.40736105  1
  O  O154  1  0.37867299  0.50347519  0.66479273  1
  O  O155  1  0.37931159  0.49626007  0.91456022  1
  O  O156  1  0.37312862  0.75492529  0.16165736  1
  O  O157  1  0.37258923  0.74241801  0.40956887  1
  O  O158  1  0.37667658  0.75518664  0.66910285  1
  O  O159  1  0.38055980  0.76141159  0.91534568  1
  O  O160  1  0.62191321  0.00964296  0.16962112  1
  O  O161  1  0.62422689  0.00206827  0.40667721  1
  O  O162  1  0.61956601  -0.01116547  0.65674645  1
  O  O163  1  0.62308294  0.00006699  0.91987029  1
  O  O164  1  0.62318060  0.24329163  0.17203336  1
  O  O165  1  0.62443406  0.24285734  0.40685925  1
  O  O166  1  0.62500289  0.25718214  0.65282693  1
  O  O167  1  0.62616277  0.25125509  0.92073488  1
  O  O168  1  0.62791327  0.50163692  0.16492041  1
  O  O169  1  0.62581469  0.50388834  0.40797534  1
  O  O170  1  0.62734359  0.50561520  0.66036290  1
  O  O171  1  0.62894940  0.49015489  0.91515440  1
  O  O172  1  0.62607819  0.74624509  0.15998378  1
  O  O173  1  0.62563479  0.74958114  0.41092364  1
  O  O174  1  0.62462384  0.74865346  0.66589762  1
  O  O175  1  0.62475458  0.75789042  0.91769143  1
  O  O176  1  0.87804360  -0.00644262  0.16673465  1
  O  O177  1  0.87235668  -0.00886880  0.40757445  1
  O  O178  1  0.87155869  -0.00360550  0.66137199  1
  O  O179  1  0.87255819  0.00161134  0.91777599  1
  O  O180  1  0.87877853  0.25630786  0.17144173  1
  O  O181  1  0.87185222  0.24859889  0.40699076  1
  O  O182  1  0.87032494  0.25222157  0.65514104  1
  O  O183  1  0.87362284  0.25031103  0.91732753  1
  O  O184  1  0.87838094  0.49453917  0.16538772  1
  O  O185  1  0.87731077  0.51080957  0.40793352  1
  O  O186  1  0.87053583  0.51134695  0.66548868  1
  O  O187  1  0.87045820  0.49954839  0.91739017  1
  O  O188  1  0.87830032  0.75735786  0.16209461  1
  O  O189  1  0.87683851  0.74975362  0.41282050  1
  O  O190  1  0.87115693  0.74184360  0.67041083  1
  O  O191  1  0.86898037  0.74597036  0.91211606  1
  O  O192  1  0.00961579  0.12286404  0.16753663  1
  O  O193  1  -0.00278917  0.11984922  0.40930251  1
  O  O194  1  0.00037148  0.12069535  0.65391148  1
  O  O195  1  0.00656581  0.12365857  0.90997801  1
  O  O196  1  0.00132476  0.37403792  0.16971413  1
  O  O197  1  -0.00065866  0.37967234  0.41525411  1
  O  O198  1  -0.00334647  0.38140070  0.65774356  1
  O  O199  1  -0.00672104  0.37354467  0.91460167  1
  O  O200  1  0.00755181  0.62763019  0.16345795  1
  O  O201  1  -0.00290392  0.63000341  0.41145679  1
  O  O202  1  -0.00295018  0.62974435  0.66346775  1
  O  O203  1  -0.00990917  0.62446534  0.91258345  1
  O  O204  1  -0.00013330  0.87638253  0.16478341  1
  O  O205  1  -0.00619172  0.87140107  0.41306926  1
  O  O206  1  0.00587399  0.86995767  0.66017611  1
  O  O207  1  -0.00134636  0.87585081  0.91368219  1
  O  O208  1  0.24880828  0.12437938  0.17128252  1
  O  O209  1  0.25848581  0.12426463  0.41092456  1
  O  O210  1  0.25166225  0.11963689  0.65791002  1
  O  O211  1  0.25158403  0.12290703  0.91450383  1
  O  O212  1  0.24292237  0.37330116  0.16730267  1
  O  O213  1  0.25174882  0.37923256  0.41175417  1
  O  O214  1  0.24926061  0.38122360  0.65740146  1
  O  O215  1  0.24871575  0.37134516  0.91337049  1
  O  O216  1  0.24103069  0.62660104  0.16375872  1
  O  O217  1  0.24721076  0.62793480  0.40703750  1
  O  O218  1  0.24411751  0.62937464  0.66054070  1
  O  O219  1  0.25253064  0.62752945  0.91242870  1
  O  O220  1  0.25101818  0.87711203  0.16672542  1
  O  O221  1  0.25225507  0.87062531  0.41419519  1
  O  O222  1  0.25277968  0.86988861  0.66177514  1
  O  O223  1  0.25821710  0.87864044  0.91482129  1
  O  O224  1  0.49489583  0.12494803  0.16893218  1
  O  O225  1  0.50154831  0.12274538  0.40920044  1
  O  O226  1  0.50074320  0.12226342  0.66474424  1
  O  O227  1  0.50083932  0.12444135  0.92106893  1
  O  O228  1  0.50104617  0.37198138  0.16719502  1
  O  O229  1  0.50138151  0.37693959  0.40961679  1
  O  O230  1  0.51145737  0.38033211  0.66021492  1
  O  O231  1  0.50881531  0.37053744  0.91612271  1
  O  O232  1  0.50612792  0.62471365  0.16095766  1
  O  O233  1  0.49356047  0.62693522  0.40123599  1
  O  O234  1  0.50802688  0.62855622  0.66328795  1
  O  O235  1  0.50439954  0.62622416  0.92203378  1
  O  O236  1  0.49270388  0.87903501  0.16416944  1
  O  O237  1  0.49884864  0.87223363  0.40913412  1
  O  O238  1  0.50100143  0.86845261  0.66286153  1
  O  O239  1  0.50080811  0.87970836  0.92119319  1
  O  O240  1  0.74560975  0.12566051  0.16489264  1
  O  O241  1  0.74431818  0.12024752  0.40716345  1
  O  O242  1  0.74507285  0.12230469  0.66035674  1
  O  O243  1  0.74288115  0.12549142  0.91806360  1
  O  O244  1  0.75637675  0.37323368  0.16822619  1
  O  O245  1  0.74790980  0.37794364  0.40940222  1
  O  O246  1  0.74179508  0.38141139  0.66195380  1
  O  O247  1  0.74892839  0.37096054  0.92119692  1
  O  O248  1  0.74781456  0.62467683  0.16411689  1
  O  O249  1  0.76032881  0.62965012  0.40755808  1
  O  O250  1  0.74710610  0.62795907  0.66615916  1
  O  O251  1  0.75112957  0.62372207  0.92248343  1
  O  O252  1  0.75785572  0.87712273  0.16258818  1
  O  O253  1  0.75544943  0.86994601  0.40733840  1
  O  O254  1  0.73861105  0.86974447  0.66203387  1
  O  O255  1  0.74375598  0.87826442  0.91681586  1
  O  O256  1  0.12972670  0.12587374  0.05490843  1
  O  O257  1  0.13029593  0.11982421  0.29050306  1
  O  O258  1  0.12747313  0.11943055  0.52340166  1
  O  O259  1  0.12872212  0.12192813  0.79553574  1
  O  O260  1  0.12202674  0.37057316  0.05014781  1
  O  O261  1  0.11825045  0.37682281  0.28881045  1
  O  O262  1  0.12535440  0.38365825  0.52755080  1
  O  O263  1  0.12209737  0.37885985  0.78293110  1
  O  O264  1  0.12466546  0.62553004  0.04660528  1
  O  O265  1  0.12388950  0.62885542  0.29683510  1
  O  O266  1  0.12315538  0.62960866  0.55104997  1
  O  O267  1  0.12048873  0.63267283  0.78371207  1
  O  O268  1  0.12553659  0.87840144  0.05068291  1
  O  O269  1  0.12766679  0.86793938  0.28392981  1
  O  O270  1  0.12500721  0.86660487  0.54928352  1
  O  O271  1  0.13091220  0.86911979  0.78505777  1
  O  O272  1  0.37429018  0.12465179  0.05590708  1
  O  O273  1  0.37559904  0.12392453  0.29711132  1
  O  O274  1  0.38617804  0.12065509  0.52919592  1
  O  O275  1  0.38025679  0.11956071  0.79826084  1
  O  O276  1  0.37491651  0.36456020  0.04300567  1
  O  O277  1  0.37723695  0.37839029  0.28276560  1
  O  O278  1  0.37941123  0.38620189  0.52938780  1
  O  O279  1  0.37818773  0.37691229  0.78449970  1
  O  O280  1  0.37781798  0.62723422  0.03566783  1
  O  O281  1  0.37128810  0.62637414  0.29081590  1
  O  O282  1  0.37600879  0.63214482  0.53727882  1
  O  O283  1  0.38745288  0.62606593  0.78826158  1
  O  O284  1  0.37132060  0.87967024  0.05504117  1
  O  O285  1  0.37468677  0.87144214  0.28039518  1
  O  O286  1  0.37476013  0.86675181  0.54748061  1
  O  O287  1  0.37905997  0.88106184  0.80179972  1
  O  O288  1  0.62364515  0.12756005  0.05484990  1
  O  O289  1  0.62468501  0.12343670  0.29486339  1
  O  O290  1  0.62252376  0.11712468  0.52863780  1
  O  O291  1  0.62127778  0.12682615  0.79962614  1
  O  O292  1  0.62885992  0.36912543  0.05962596  1
  O  O293  1  0.62828373  0.37651460  0.27641485  1
  O  O294  1  0.62739752  0.37980122  0.54198826  1
  O  O295  1  0.62963022  0.36859100  0.80211301  1
  O  O296  1  0.62886336  0.62303007  0.05023652  1
  O  O297  1  0.63127254  0.62981656  0.27869143  1
  O  O298  1  0.62628937  0.62659136  0.54914993  1
  O  O299  1  0.62967551  0.62672395  0.78979082  1
  O  O300  1  0.62438705  0.88532595  0.04500879  1
  O  O301  1  0.62200528  0.86887142  0.27519104  1
  O  O302  1  0.62389686  0.86786844  0.54525668  1
  O  O303  1  0.62199996  0.87695095  0.80544426  1
  O  O304  1  0.88110986  0.13071458  0.04673308  1
  O  O305  1  0.87371977  0.11704457  0.27976132  1
  O  O306  1  0.86524143  0.11771128  0.52638560  1
  O  O307  1  0.86828403  0.12085125  0.78547256  1
  O  O308  1  0.87768082  0.37128650  0.05535937  1
  O  O309  1  0.88367118  0.37536738  0.28673162  1
  O  O310  1  0.86826614  0.38491404  0.52916650  1
  O  O311  1  0.87005298  0.37438713  0.79695956  1
  O  O312  1  0.87057667  0.62259678  0.03795088  1
  O  O313  1  0.87971556  0.62919347  0.29294419  1
  O  O314  1  0.87628794  0.62869774  0.54997889  1
  O  O315  1  0.86583867  0.62190893  0.80277546  1
  O  O316  1  0.87639649  0.87836218  0.04790786  1
  O  O317  1  0.87849834  0.87238433  0.29564174  1
  O  O318  1  0.87114270  0.86269232  0.53993123  1
  O  O319  1  0.87083383  0.88281027  0.78247716  1
