# generated using pymatgen
data_VFe(PbO3)2
_symmetry_space_group_name_H-M   'P 1'
_cell_length_a   15.37482303
_cell_length_b   15.37826744
_cell_length_c   18.52894752
_cell_angle_alpha   89.98069495
_cell_angle_beta   90.02329480
_cell_angle_gamma   90.00143276
_symmetry_Int_Tables_number   1
_chemical_formula_structural   VFe(PbO3)2
_chemical_formula_sum   'V32 Fe32 Pb64 O192'
_cell_volume   4380.94928361
_cell_formula_units_Z   32
loop_
 _symmetry_equiv_pos_site_id
 _symmetry_equiv_pos_as_xyz
  1  'x, y, z'
loop_
 _atom_site_type_symbol
 _atom_site_label
 _atom_site_symmetry_multiplicity
 _atom_site_fract_x
 _atom_site_fract_y
 _atom_site_fract_z
 _atom_site_occupancy
  V  V0  1  0.37457414  0.62508333  0.13509615  1
  V  V1  1  0.62615907  0.12721532  0.88366189  1
  V  V2  1  0.12619987  0.12337359  0.13676967  1
  V  V3  1  0.37443792  0.87121355  0.64972823  1
  V  V4  1  0.62992349  0.12246953  0.38932506  1
  V  V5  1  0.37836465  0.12458515  0.64489028  1
  V  V6  1  0.62782198  0.37603184  0.88723197  1
  V  V7  1  0.12179138  0.37562647  0.88369333  1
  V  V8  1  0.12968405  0.12734033  0.64883062  1
  V  V9  1  0.87474964  0.87481066  0.13629958  1
  V  V10  1  0.12812508  0.12201762  0.39280113  1
  V  V11  1  0.87503947  0.37616727  0.63806015  1
  V  V12  1  0.37893363  0.12350307  0.39272183  1
  V  V13  1  0.62762879  0.12801008  0.64058720  1
  V  V14  1  0.37578859  0.37530925  0.64094191  1
  V  V15  1  0.87746161  0.87620127  0.39271747  1
  V  V16  1  0.62180867  0.12443896  0.14132808  1
  V  V17  1  0.12535378  0.37538406  0.39468906  1
  V  V18  1  0.37383751  0.62533774  0.39105216  1
  V  V19  1  0.87354357  0.62288025  0.88465720  1
  V  V20  1  0.62632990  0.87775068  0.13889770  1
  V  V21  1  0.87342530  0.12449010  0.14363119  1
  V  V22  1  0.37573360  0.87569262  0.13576142  1
  V  V23  1  0.87606661  0.62379418  0.39465706  1
  V  V24  1  0.12706992  0.62589516  0.38925784  1
  V  V25  1  0.87655081  0.87144839  0.64417244  1
  V  V26  1  0.87577871  0.12397694  0.64000412  1
  V  V27  1  0.12360953  0.62190399  0.64588675  1
  V  V28  1  0.87427804  0.37568292  0.14410226  1
  V  V29  1  0.37494505  0.62452353  0.64854280  1
  V  V30  1  0.62726783  0.62409747  0.64021336  1
  V  V31  1  0.12386776  0.37280655  0.13850428  1
  Fe  Fe32  1  0.37440317  0.37214594  0.13188813  1
  Fe  Fe33  1  0.37490545  0.37550214  0.88722009  1
  Fe  Fe34  1  0.87581648  0.62735665  0.13572181  1
  Fe  Fe35  1  0.62639379  0.62707468  0.13827458  1
  Fe  Fe36  1  0.62678653  0.87465274  0.87520897  1
  Fe  Fe37  1  0.37594433  0.12773087  0.88231945  1
  Fe  Fe38  1  0.12654659  0.87343291  0.38934112  1
  Fe  Fe39  1  0.87727203  0.37233372  0.38428103  1
  Fe  Fe40  1  0.12311616  0.12947834  0.87702879  1
  Fe  Fe41  1  0.87276015  0.13003221  0.88117217  1
  Fe  Fe42  1  0.62482711  0.37283442  0.13875984  1
  Fe  Fe43  1  0.62287232  0.62801942  0.38347679  1
  Fe  Fe44  1  0.62350823  0.37531467  0.38546721  1
  Fe  Fe45  1  0.62425133  0.87804303  0.64685467  1
  Fe  Fe46  1  0.87499754  0.62473184  0.63230267  1
  Fe  Fe47  1  0.37802613  0.87381499  0.87601858  1
  Fe  Fe48  1  0.12507268  0.62540197  0.13235833  1
  Fe  Fe49  1  0.87131733  0.87398453  0.87842948  1
  Fe  Fe50  1  0.37126776  0.37463208  0.38674456  1
  Fe  Fe51  1  0.37235040  0.87508103  0.39061547  1
  Fe  Fe52  1  0.12394036  0.87674863  0.12958966  1
  Fe  Fe53  1  0.12276957  0.87477669  0.87656262  1
  Fe  Fe54  1  0.37518270  0.12166389  0.13152016  1
  Fe  Fe55  1  0.12365314  0.62155259  0.88225931  1
  Fe  Fe56  1  0.88013692  0.12127202  0.38735900  1
  Fe  Fe57  1  0.12594244  0.37393925  0.63652376  1
  Fe  Fe58  1  0.62308586  0.87478143  0.39058238  1
  Fe  Fe59  1  0.37690301  0.62285081  0.87619459  1
  Fe  Fe60  1  0.62588283  0.62231889  0.88021337  1
  Fe  Fe61  1  0.87365534  0.37730738  0.88341418  1
  Fe  Fe62  1  0.12486656  0.87658554  0.65029676  1
  Fe  Fe63  1  0.62404037  0.37324960  0.63361222  1
  Pb  Pb64  1  0.00273852  -0.00356387  -0.01566753  1
  Pb  Pb65  1  -0.00137417  0.00285468  0.24967906  1
  Pb  Pb66  1  0.00821405  -0.00786068  0.50818529  1
  Pb  Pb67  1  0.00159672  0.00678283  0.75573373  1
  Pb  Pb68  1  -0.00320312  0.24913967  -0.00818596  1
  Pb  Pb69  1  -0.00534611  0.24824676  0.25488655  1
  Pb  Pb70  1  0.00142231  0.25101308  0.50116739  1
  Pb  Pb71  1  -0.00312424  0.24600591  0.75168044  1
  Pb  Pb72  1  -0.00228818  0.51104344  0.00052394  1
  Pb  Pb73  1  -0.00104564  0.49896770  0.24887104  1
  Pb  Pb74  1  0.00058054  0.50095525  0.50303677  1
  Pb  Pb75  1  -0.00072654  0.49831302  0.75032327  1
  Pb  Pb76  1  0.00881678  0.75239027  -0.00622304  1
  Pb  Pb77  1  0.00800019  0.75258328  0.24392346  1
  Pb  Pb78  1  -0.00130951  0.74713674  0.50582005  1
  Pb  Pb79  1  0.00689965  0.74844225  0.75533357  1
  Pb  Pb80  1  0.24774505  -0.00100201  -0.01679947  1
  Pb  Pb81  1  0.25077781  -0.01237144  0.25200570  1
  Pb  Pb82  1  0.24576811  -0.00813888  0.50986078  1
  Pb  Pb83  1  0.25371077  -0.00255418  0.75808854  1
  Pb  Pb84  1  0.26018135  0.24630613  -0.00530051  1
  Pb  Pb85  1  0.25647629  0.25114841  0.24735297  1
  Pb  Pb86  1  0.24476834  0.25158400  0.50530671  1
  Pb  Pb87  1  0.25895526  0.25209269  0.75665426  1
  Pb  Pb88  1  0.25223213  0.50259510  -0.00879429  1
  Pb  Pb89  1  0.25706679  0.49628356  0.24641646  1
  Pb  Pb90  1  0.24607775  0.49771376  0.50478940  1
  Pb  Pb91  1  0.25849244  0.49806045  0.75485851  1
  Pb  Pb92  1  0.24567609  0.75111317  -0.01518421  1
  Pb  Pb93  1  0.24751503  0.75769560  0.24648381  1
  Pb  Pb94  1  0.24529340  0.75423689  0.50568571  1
  Pb  Pb95  1  0.24155158  0.74713859  0.75822752  1
  Pb  Pb96  1  0.49419181  0.00175163  -0.01019939  1
  Pb  Pb97  1  0.49790289  -0.01190301  0.25420904  1
  Pb  Pb98  1  0.50409500  -0.00875339  0.50833361  1
  Pb  Pb99  1  0.49487356  -0.00063134  0.75457516  1
  Pb  Pb100  1  0.49687817  0.25624360  0.00118498  1
  Pb  Pb101  1  0.49553097  0.25852502  0.24898067  1
  Pb  Pb102  1  0.50307069  0.25502711  0.49965048  1
  Pb  Pb103  1  0.49265921  0.25234024  0.75416093  1
  Pb  Pb104  1  0.50143407  0.49759709  -0.00402882  1
  Pb  Pb105  1  0.50626895  0.49519615  0.24690539  1
  Pb  Pb106  1  0.50434488  0.49579456  0.49687812  1
  Pb  Pb107  1  0.50320336  0.50654419  0.75334835  1
  Pb  Pb108  1  0.50483144  0.74620779  -0.01539666  1
  Pb  Pb109  1  0.50447760  0.75153796  0.25129928  1
  Pb  Pb110  1  0.50404866  0.75342897  0.50227794  1
  Pb  Pb111  1  0.50421617  0.74797481  0.75365422  1
  Pb  Pb112  1  0.75307689  -0.00236496  -0.01033230  1
  Pb  Pb113  1  0.75016786  0.00071114  0.25248986  1
  Pb  Pb114  1  0.74596375  -0.01005715  0.50698857  1
  Pb  Pb115  1  0.75626956  -0.00298251  0.75287259  1
  Pb  Pb116  1  0.74428198  0.25705968  0.00069904  1
  Pb  Pb117  1  0.75246358  0.25640035  0.25622900  1
  Pb  Pb118  1  0.75210219  0.25472975  0.49633754  1
  Pb  Pb119  1  0.75891666  0.25292907  0.75090455  1
  Pb  Pb120  1  0.74755142  0.50974429  0.00444670  1
  Pb  Pb121  1  0.74129965  0.50282773  0.25045279  1
  Pb  Pb122  1  0.74484358  0.49538290  0.49576793  1
  Pb  Pb123  1  0.74928399  0.49972955  0.74795402  1
  Pb  Pb124  1  0.74618190  0.74287219  -0.00576222  1
  Pb  Pb125  1  0.74315468  0.74754946  0.25130412  1
  Pb  Pb126  1  0.74970639  0.74779339  0.50284921  1
  Pb  Pb127  1  0.74925276  0.75725521  0.75140942  1
  O  O128  1  0.12252015  0.00623771  0.15882221  1
  O  O129  1  0.12665360  0.00381835  0.41818759  1
  O  O130  1  0.12405477  0.00859654  0.66958194  1
  O  O131  1  0.12248234  0.00154811  0.90136441  1
  O  O132  1  0.12231616  0.25044806  0.16481819  1
  O  O133  1  0.12612426  0.24659834  0.41799399  1
  O  O134  1  0.12354496  0.24694056  0.66486363  1
  O  O135  1  0.12274915  0.25861341  0.90902260  1
  O  O136  1  0.12465104  0.49131678  0.16307752  1
  O  O137  1  0.12481088  0.50240906  0.41996141  1
  O  O138  1  0.12498278  0.50191032  0.66616981  1
  O  O139  1  0.12155728  0.49357935  0.91067045  1
  O  O140  1  0.12570304  0.75219184  0.16268013  1
  O  O141  1  0.12556064  0.74562767  0.41866939  1
  O  O142  1  0.12518136  0.74343163  0.66550431  1
  O  O143  1  0.12174701  0.74827274  0.90643764  1
  O  O144  1  0.37559492  -0.00596260  0.16158779  1
  O  O145  1  0.37045517  0.00927061  0.42065271  1
  O  O146  1  0.37515487  0.00254731  0.66709067  1
  O  O147  1  0.37875608  0.00163471  0.90620070  1
  O  O148  1  0.37308812  0.24533493  0.16409612  1
  O  O149  1  0.37002418  0.24093869  0.41793822  1
  O  O150  1  0.37445167  0.25276175  0.66576076  1
  O  O151  1  0.37755675  0.25119015  0.91328893  1
  O  O152  1  0.37259836  0.50602759  0.15802345  1
  O  O153  1  0.37130271  0.50623676  0.41618823  1
  O  O154  1  0.37390961  0.49445244  0.66282207  1
  O  O155  1  0.37714434  0.49926040  0.91300150  1
  O  O156  1  0.37566914  0.75498432  0.16023454  1
  O  O157  1  0.37090621  0.74293835  0.41883772  1
  O  O158  1  0.37584561  0.75241043  0.66666824  1
  O  O159  1  0.37766507  0.74821315  0.90258085  1
  O  O160  1  0.62767388  0.00177478  0.16908268  1
  O  O161  1  0.62219168  0.00590967  0.41995265  1
  O  O162  1  0.62463839  0.01178825  0.66656215  1
  O  O163  1  0.62685755  0.00897494  0.90326891  1
  O  O164  1  0.62775836  0.23999750  0.16591484  1
  O  O165  1  0.62270434  0.23949817  0.41306920  1
  O  O166  1  0.62476399  0.24574173  0.66432301  1
  O  O167  1  0.62704398  0.25148158  0.91268316  1
  O  O168  1  0.62561070  0.50039155  0.16506077  1
  O  O169  1  0.62458394  0.50347307  0.41284370  1
  O  O170  1  0.62427731  0.50202046  0.66116560  1
  O  O171  1  0.62712649  0.49282795  0.90946013  1
  O  O172  1  0.62426024  0.75712789  0.16556765  1
  O  O173  1  0.62455658  0.74944523  0.42029324  1
  O  O174  1  0.62285646  0.74337673  0.66090747  1
  O  O175  1  0.62850744  0.74860480  0.90503584  1
  O  O176  1  0.87544433  -0.00258013  0.16747753  1
  O  O177  1  0.87755504  -0.00674193  0.41804625  1
  O  O178  1  0.87304366  0.00190092  0.66519101  1
  O  O179  1  0.87108582  0.00308881  0.90723904  1
  O  O180  1  0.87809646  0.25062896  0.16878749  1
  O  O181  1  0.87814711  0.24601833  0.41641157  1
  O  O182  1  0.87376494  0.25266736  0.66090559  1
  O  O183  1  0.87210458  0.25370045  0.91591166  1
  O  O184  1  0.87770342  0.49234344  0.16477370  1
  O  O185  1  0.87819057  0.50575805  0.41157092  1
  O  O186  1  0.87487793  0.49555509  0.65919814  1
  O  O187  1  0.87287648  0.50370787  0.91349368  1
  O  O188  1  0.87528721  0.75979182  0.16101263  1
  O  O189  1  0.87812744  0.75378230  0.41940625  1
  O  O190  1  0.87383147  0.75335738  0.66003309  1
  O  O191  1  0.87081194  0.74050024  0.90439051  1
  O  O192  1  0.00292128  0.12547984  0.16713644  1
  O  O193  1  0.00995601  0.12315044  0.41894880  1
  O  O194  1  -0.00203182  0.12701336  0.66393542  1
  O  O195  1  -0.00103976  0.12940669  0.91080380  1
  O  O196  1  0.00206584  0.37236038  0.16691484  1
  O  O197  1  0.00334740  0.37545425  0.41837708  1
  O  O198  1  -0.00600393  0.37447672  0.66057652  1
  O  O199  1  0.00373402  0.37644863  0.91155624  1
  O  O200  1  0.00050315  0.62414953  0.16814533  1
  O  O201  1  0.00064225  0.62679726  0.41861778  1
  O  O202  1  0.00286570  0.62327515  0.66365606  1
  O  O203  1  -0.00770044  0.62153234  0.90801482  1
  O  O204  1  -0.00652241  0.87871722  0.15916536  1
  O  O205  1  -0.00287969  0.87465394  0.41812124  1
  O  O206  1  -0.00732648  0.87804852  0.66585028  1
  O  O207  1  -0.00419442  0.87327108  0.90428204  1
  O  O208  1  0.24148520  0.12575330  0.15902726  1
  O  O209  1  0.24492873  0.12503685  0.41978529  1
  O  O210  1  0.24872435  0.12734555  0.66619644  1
  O  O211  1  0.24816749  0.12848186  0.90460603  1
  O  O212  1  0.24345878  0.37200805  0.16165890  1
  O  O213  1  0.24743366  0.37473010  0.42158801  1
  O  O214  1  0.25548438  0.37373671  0.66422948  1
  O  O215  1  0.24096516  0.37627665  0.90864398  1
  O  O216  1  0.25665586  0.62779969  0.16188787  1
  O  O217  1  0.24960460  0.62425950  0.41995566  1
  O  O218  1  0.24695398  0.62339937  0.66778450  1
  O  O219  1  0.25039466  0.62113550  0.90413269  1
  O  O220  1  0.25556173  0.87649905  0.15846745  1
  O  O221  1  0.25009544  0.87532365  0.42514283  1
  O  O222  1  0.25610423  0.87741671  0.66883929  1
  O  O223  1  0.25075006  0.87512929  0.90205274  1
  O  O224  1  0.50658140  0.12080528  0.16279160  1
  O  O225  1  0.49673007  0.12428854  0.41231855  1
  O  O226  1  0.50228887  0.12863543  0.66545302  1
  O  O227  1  0.50982603  0.12973488  0.90914497  1
  O  O228  1  0.49813458  0.37259782  0.16458637  1
  O  O229  1  0.49631687  0.37221737  0.41436712  1
  O  O230  1  0.49429819  0.37318434  0.66199559  1
  O  O231  1  0.50927226  0.37299872  0.91036261  1
  O  O232  1  0.49046805  0.62867301  0.16254453  1
  O  O233  1  0.49167070  0.62619301  0.41267460  1
  O  O234  1  0.50302386  0.62275075  0.66507476  1
  O  O235  1  0.50161949  0.62088823  0.90909288  1
  O  O236  1  0.49818205  0.87732540  0.16348037  1
  O  O237  1  0.49611581  0.87666069  0.42221640  1
  O  O238  1  0.49454988  0.87780249  0.66578682  1
  O  O239  1  0.50423935  0.87727573  0.90650577  1
  O  O240  1  0.74957100  0.12251618  0.16983055  1
  O  O241  1  0.74542989  0.12127515  0.41074586  1
  O  O242  1  0.74755079  0.12830855  0.66165607  1
  O  O243  1  0.74255454  0.13025596  0.91271895  1
  O  O244  1  0.75690793  0.37036975  0.16433880  1
  O  O245  1  0.75101404  0.37322348  0.41303807  1
  O  O246  1  0.75454838  0.37455979  0.66007068  1
  O  O247  1  0.74435874  0.37409465  0.91508528  1
  O  O248  1  0.75358757  0.62738449  0.16986052  1
  O  O249  1  0.75755840  0.62923422  0.41259806  1
  O  O250  1  0.74590494  0.62333611  0.65885793  1
  O  O251  1  0.75379579  0.62004260  0.91147026  1
  O  O252  1  0.75331263  0.87893093  0.16412108  1
  O  O253  1  0.75648321  0.87517531  0.41794755  1
  O  O254  1  0.75497893  0.87728974  0.66297910  1
  O  O255  1  0.74805211  0.87659810  0.91198357  1
  O  O256  1  0.12217697  0.12757750  0.04644341  1
  O  O257  1  0.12865057  0.12270863  0.30203686  1
  O  O258  1  0.12641860  0.12483463  0.55679074  1
  O  O259  1  0.11399937  0.13005248  0.77669185  1
  O  O260  1  0.12095398  0.37229178  0.04867251  1
  O  O261  1  0.12774065  0.37603513  0.30363787  1
  O  O262  1  0.12803308  0.37516555  0.53689456  1
  O  O263  1  0.11988942  0.37719125  0.79203184  1
  O  O264  1  0.11915197  0.62428065  0.03282483  1
  O  O265  1  0.12779741  0.62455292  0.29839717  1
  O  O266  1  0.12527056  0.62143878  0.55424203  1
  O  O267  1  0.11803195  0.62727451  0.78141666  1
  O  O268  1  0.12220244  0.87219349  0.03067060  1
  O  O269  1  0.13474435  0.87589141  0.28957601  1
  O  O270  1  0.12626866  0.88191479  0.54857680  1
  O  O271  1  0.12332692  0.86885603  0.77346088  1
  O  O272  1  0.37660024  0.12448089  0.03233693  1
  O  O273  1  0.37328754  0.12220302  0.30172290  1
  O  O274  1  0.37631435  0.12577492  0.55389499  1
  O  O275  1  0.37908009  0.13363976  0.78029718  1
  O  O276  1  0.37770299  0.37042852  0.03185129  1
  O  O277  1  0.36548230  0.37293450  0.28701013  1
  O  O278  1  0.37462555  0.37286800  0.54948984  1
  O  O279  1  0.37185287  0.37065113  0.78593314  1
  O  O280  1  0.37481341  0.62703824  0.04468243  1
  O  O281  1  0.36992501  0.62580967  0.30037339  1
  O  O282  1  0.37499058  0.62530853  0.55743130  1
  O  O283  1  0.37997881  0.61494403  0.77325689  1
  O  O284  1  0.37930551  0.87607718  0.04551131  1
  O  O285  1  0.37030522  0.88206712  0.29071314  1
  O  O286  1  0.37286586  0.87546242  0.55746171  1
  O  O287  1  0.37859151  0.88237265  0.77532800  1
  O  O288  1  0.62578995  0.12241332  0.05080257  1
  O  O289  1  0.62660172  0.11916517  0.29870286  1
  O  O290  1  0.62538078  0.12626611  0.54927860  1
  O  O291  1  0.62780340  0.13266536  0.79299528  1
  O  O292  1  0.62548121  0.36755622  0.03943338  1
  O  O293  1  0.62388122  0.37197297  0.28463887  1
  O  O294  1  0.62282341  0.37219830  0.53368562  1
  O  O295  1  0.63065277  0.37360333  0.79568607  1
  O  O296  1  0.63392574  0.62658138  0.03812616  1
  O  O297  1  0.62362400  0.63305848  0.28312460  1
  O  O298  1  0.62358397  0.62350433  0.54858809  1
  O  O299  1  0.62329049  0.61681186  0.78008821  1
  O  O300  1  0.62533010  0.87947327  0.04783248  1
  O  O301  1  0.61806837  0.87745442  0.29085134  1
  O  O302  1  0.62403466  0.88481109  0.54493922  1
  O  O303  1  0.62987529  0.87240014  0.77278149  1
  O  O304  1  0.87263812  0.12560094  0.05326769  1
  O  O305  1  0.88431135  0.11964714  0.28743393  1
  O  O306  1  0.87529315  0.12261431  0.54894071  1
  O  O307  1  0.87271868  0.13376585  0.78036268  1
  O  O308  1  0.87734798  0.37365682  0.05346572  1
  O  O309  1  0.87884676  0.36955658  0.28479534  1
  O  O310  1  0.87434334  0.37366366  0.54640237  1
  O  O311  1  0.87024838  0.37590176  0.78371420  1
  O  O312  1  0.87247347  0.62038642  0.03663275  1
  O  O313  1  0.88069882  0.63050277  0.30427927  1
  O  O314  1  0.87895197  0.62831206  0.53314388  1
  O  O315  1  0.87217184  0.61785848  0.79291283  1
  O  O316  1  0.87082878  0.87764375  0.04578230  1
  O  O317  1  0.87713486  0.87425129  0.30218347  1
  O  O318  1  0.87627867  0.87757575  0.55213224  1
  O  O319  1  0.86270634  0.87339942  0.77819005  1
