# generated using pymatgen
data_VFe(PbO3)2
_symmetry_space_group_name_H-M   'P 1'
_cell_length_a   15.36594245
_cell_length_b   15.37230535
_cell_length_c   18.56588941
_cell_angle_alpha   89.93328069
_cell_angle_beta   90.04021954
_cell_angle_gamma   90.00539006
_symmetry_Int_Tables_number   1
_chemical_formula_structural   VFe(PbO3)2
_chemical_formula_sum   'V32 Fe32 Pb64 O192'
_cell_volume   4385.44390941
_cell_formula_units_Z   32
loop_
 _symmetry_equiv_pos_site_id
 _symmetry_equiv_pos_as_xyz
  1  'x, y, z'
loop_
 _atom_site_type_symbol
 _atom_site_label
 _atom_site_symmetry_multiplicity
 _atom_site_fract_x
 _atom_site_fract_y
 _atom_site_fract_z
 _atom_site_occupancy
  V  V0  1  0.37545443  0.12500497  0.64454908  1
  V  V1  1  0.37613710  0.62237496  0.13605188  1
  V  V2  1  0.37350445  0.37848941  0.64436594  1
  V  V3  1  0.37608589  0.62219407  0.38913836  1
  V  V4  1  0.62632243  0.37274819  0.13682034  1
  V  V5  1  0.62530072  0.12301482  0.88382707  1
  V  V6  1  0.37613695  0.87376297  0.13877177  1
  V  V7  1  0.12489703  0.37457271  0.64145150  1
  V  V8  1  0.62327356  0.62354743  0.63962560  1
  V  V9  1  0.87628214  0.37361669  0.39366425  1
  V  V10  1  0.12518546  0.37575589  0.39125605  1
  V  V11  1  0.12580413  0.37278583  0.13708754  1
  V  V12  1  0.87576510  0.62202814  0.39075240  1
  V  V13  1  0.37367814  0.87263402  0.64097522  1
  V  V14  1  0.87727187  0.87135595  0.88921899  1
  V  V15  1  0.12591945  0.12679824  0.39005336  1
  V  V16  1  0.37591644  0.12877425  0.38948788  1
  V  V17  1  0.62634585  0.62355017  0.38741512  1
  V  V18  1  0.87640246  0.37380764  0.13812213  1
  V  V19  1  0.87480849  0.12050416  0.88820527  1
  V  V20  1  0.12322442  0.87477359  0.88982544  1
  V  V21  1  0.62622660  0.12670736  0.39148942  1
  V  V22  1  0.87411145  0.87591743  0.14080121  1
  V  V23  1  0.62467044  0.12317283  0.14085306  1
  V  V24  1  0.37386247  0.62949153  0.88675462  1
  V  V25  1  0.11928705  0.37555224  0.88582674  1
  V  V26  1  0.12549623  0.62300222  0.38790960  1
  V  V27  1  0.12588270  0.87602968  0.63488923  1
  V  V28  1  0.62248468  0.87656672  0.63774889  1
  V  V29  1  0.87692198  0.62388251  0.88847266  1
  V  V30  1  0.87348766  0.37645201  0.63850416  1
  V  V31  1  0.37635570  0.12429175  0.13778058  1
  Fe  Fe32  1  0.62609068  0.62705055  0.88642900  1
  Fe  Fe33  1  0.87374127  0.12278249  0.62710966  1
  Fe  Fe34  1  0.12587196  0.62581541  0.13579545  1
  Fe  Fe35  1  0.62571865  0.62539946  0.13471903  1
  Fe  Fe36  1  0.12778156  0.87313599  0.38376909  1
  Fe  Fe37  1  0.87400299  0.12575736  0.13892151  1
  Fe  Fe38  1  0.87512961  0.87440311  0.39069320  1
  Fe  Fe39  1  0.12551253  0.87701402  0.13862278  1
  Fe  Fe40  1  0.12797277  0.62464168  0.63854500  1
  Fe  Fe41  1  0.37350249  0.87645047  0.38618963  1
  Fe  Fe42  1  0.37529392  0.87535365  0.88369711  1
  Fe  Fe43  1  0.62604177  0.87634071  0.14169779  1
  Fe  Fe44  1  0.87490163  0.12900245  0.39464221  1
  Fe  Fe45  1  0.37653266  0.62668982  0.63654773  1
  Fe  Fe46  1  0.87658929  0.37375921  0.88216318  1
  Fe  Fe47  1  0.62066714  0.87383042  0.38297431  1
  Fe  Fe48  1  0.62253792  0.12566690  0.63315289  1
  Fe  Fe49  1  0.87555649  0.62488232  0.13606822  1
  Fe  Fe50  1  0.37067823  0.37389562  0.38738491  1
  Fe  Fe51  1  0.87532974  0.87109154  0.62769968  1
  Fe  Fe52  1  0.37545296  0.37496108  0.88785819  1
  Fe  Fe53  1  0.37361635  0.12045975  0.88284219  1
  Fe  Fe54  1  0.87346950  0.62555796  0.63156313  1
  Fe  Fe55  1  0.12516355  0.62518770  0.88631584  1
  Fe  Fe56  1  0.62280172  0.37711034  0.39107149  1
  Fe  Fe57  1  0.12689398  0.12583790  0.64595345  1
  Fe  Fe58  1  0.12477669  0.12562749  0.13587895  1
  Fe  Fe59  1  0.62941081  0.87555060  0.88431410  1
  Fe  Fe60  1  0.37624430  0.37270241  0.12861792  1
  Fe  Fe61  1  0.63101696  0.37500812  0.88063890  1
  Fe  Fe62  1  0.62209796  0.37379398  0.63897669  1
  Fe  Fe63  1  0.12150214  0.12459270  0.87776549  1
  Pb  Pb64  1  0.00655508  0.00289924  0.00440053  1
  Pb  Pb65  1  0.00064375  -0.00173199  0.25131778  1
  Pb  Pb66  1  -0.00652559  -0.00047809  0.49782649  1
  Pb  Pb67  1  0.00002608  0.00334711  0.74157822  1
  Pb  Pb68  1  0.00040440  0.23729926  0.00015954  1
  Pb  Pb69  1  -0.00402345  0.24042115  0.25281225  1
  Pb  Pb70  1  0.00191703  0.23943347  0.50861323  1
  Pb  Pb71  1  0.00016329  0.24450723  0.74817654  1
  Pb  Pb72  1  -0.00048118  0.50973424  0.00203122  1
  Pb  Pb73  1  0.00201799  0.50223473  0.24701743  1
  Pb  Pb74  1  0.00168273  0.50873160  0.50453661  1
  Pb  Pb75  1  -0.00245087  0.50089735  0.74876703  1
  Pb  Pb76  1  0.00149227  0.74632078  0.00565214  1
  Pb  Pb77  1  0.00304355  0.75573179  0.24860859  1
  Pb  Pb78  1  -0.00251255  0.75121533  0.49705232  1
  Pb  Pb79  1  -0.00027737  0.74269657  0.74223442  1
  Pb  Pb80  1  0.24355587  0.00271580  -0.00429619  1
  Pb  Pb81  1  0.24748769  -0.00550390  0.25086213  1
  Pb  Pb82  1  0.24539163  -0.00066146  0.49984567  1
  Pb  Pb83  1  0.25735205  -0.00143034  0.75433617  1
  Pb  Pb84  1  0.24905586  0.24628789  -0.00931219  1
  Pb  Pb85  1  0.25896971  0.25463153  0.24747346  1
  Pb  Pb86  1  0.24227614  0.24590520  0.50616510  1
  Pb  Pb87  1  0.25982897  0.25059644  0.75869694  1
  Pb  Pb88  1  0.25235661  0.49717071  -0.00450787  1
  Pb  Pb89  1  0.25847675  0.49471760  0.24692288  1
  Pb  Pb90  1  0.24873239  0.50881657  0.50483859  1
  Pb  Pb91  1  0.25088338  0.50386267  0.75393162  1
  Pb  Pb92  1  0.23884758  0.75244450  0.00188735  1
  Pb  Pb93  1  0.24826809  0.75686280  0.25045554  1
  Pb  Pb94  1  0.24952136  0.74181331  0.50052412  1
  Pb  Pb95  1  0.24795807  0.74546644  0.75010457  1
  Pb  Pb96  1  0.50347266  -0.00839224  -0.00481385  1
  Pb  Pb97  1  0.49954790  -0.00615711  0.25397664  1
  Pb  Pb98  1  0.50244393  0.00269633  0.49901902  1
  Pb  Pb99  1  0.49282795  -0.00365268  0.75391388  1
  Pb  Pb100  1  0.49531694  0.25545602  -0.00732711  1
  Pb  Pb101  1  0.50379228  0.25746601  0.25109118  1
  Pb  Pb102  1  0.50517323  0.25413000  0.50505796  1
  Pb  Pb103  1  0.49700506  0.25311143  0.75338152  1
  Pb  Pb104  1  0.50428797  0.49874070  -0.00779349  1
  Pb  Pb105  1  0.50265024  0.48867174  0.24926776  1
  Pb  Pb106  1  0.49818231  0.49499544  0.50099718  1
  Pb  Pb107  1  0.50956840  0.49981880  0.75470968  1
  Pb  Pb108  1  0.51043848  0.75302399  -0.00145164  1
  Pb  Pb109  1  0.50229382  0.75540825  0.24961700  1
  Pb  Pb110  1  0.49392701  0.74693899  0.49764674  1
  Pb  Pb111  1  0.50910186  0.75184308  0.75493557  1
  Pb  Pb112  1  0.75224166  -0.00313034  0.00241576  1
  Pb  Pb113  1  0.76542147  -0.00521101  0.26116707  1
  Pb  Pb114  1  0.75454533  -0.00233434  0.49680893  1
  Pb  Pb115  1  0.75120705  -0.00161885  0.73915671  1
  Pb  Pb116  1  0.75623448  0.24696780  -0.00457762  1
  Pb  Pb117  1  0.75169435  0.24560533  0.25458399  1
  Pb  Pb118  1  0.73707576  0.25189681  0.50717280  1
  Pb  Pb119  1  0.74713819  0.25035231  0.74352415  1
  Pb  Pb120  1  0.74897164  0.50436950  -0.00393949  1
  Pb  Pb121  1  0.74471375  0.49787110  0.24676576  1
  Pb  Pb122  1  0.75309348  0.50161834  0.50318298  1
  Pb  Pb123  1  0.75073374  0.49243579  0.75272488  1
  Pb  Pb124  1  0.74095390  0.74792728  0.00539820  1
  Pb  Pb125  1  0.74905698  0.75365679  0.24866491  1
  Pb  Pb126  1  0.75542699  0.75365973  0.49854418  1
  Pb  Pb127  1  0.74282069  0.74947965  0.74895028  1
  O  O128  1  0.12718828  0.00243839  0.16700265  1
  O  O129  1  0.12741269  0.00956889  0.40964599  1
  O  O130  1  0.12669618  -0.00710697  0.66199213  1
  O  O131  1  0.11934974  -0.00569080  0.91160571  1
  O  O132  1  0.12566433  0.25719926  0.16476817  1
  O  O133  1  0.12533929  0.24990396  0.41901504  1
  O  O134  1  0.12635103  0.25929572  0.66900937  1
  O  O135  1  0.12100259  0.25470885  0.90700539  1
  O  O136  1  0.12556505  0.49132081  0.16339049  1
  O  O137  1  0.12554916  0.50041506  0.41805833  1
  O  O138  1  0.12849487  0.49119900  0.66580580  1
  O  O139  1  0.12241945  0.49565612  0.91165468  1
  O  O140  1  0.12758402  0.75041884  0.16695494  1
  O  O141  1  0.12789147  0.74240468  0.40964577  1
  O  O142  1  0.12974758  0.75777372  0.66092530  1
  O  O143  1  0.12115962  0.75561034  0.91520873  1
  O  O144  1  0.37823719  0.00334315  0.16228691  1
  O  O145  1  0.37229085  0.01164662  0.41595236  1
  O  O146  1  0.37572112  0.00102180  0.66492767  1
  O  O147  1  0.37454338  -0.00175174  0.91807606  1
  O  O148  1  0.37753516  0.24498155  0.16134414  1
  O  O149  1  0.37091868  0.24366728  0.41631620  1
  O  O150  1  0.37372987  0.25000806  0.66691533  1
  O  O151  1  0.37539540  0.24571635  0.91253359  1
  O  O152  1  0.37384988  0.50282094  0.15695660  1
  O  O153  1  0.37313092  0.50480555  0.41464582  1
  O  O154  1  0.37395103  0.49460737  0.66471056  1
  O  O155  1  0.37359399  0.50631786  0.91184498  1
  O  O156  1  0.37603533  0.75377829  0.15952084  1
  O  O157  1  0.37430034  0.74195389  0.41168462  1
  O  O158  1  0.37547470  0.75439956  0.66417748  1
  O  O159  1  0.37189922  0.74619241  0.91041142  1
  O  O160  1  0.62192060  0.00872977  0.16322735  1
  O  O161  1  0.61962639  0.00755533  0.41192498  1
  O  O162  1  0.62250087  -0.00601389  0.65807033  1
  O  O163  1  0.63262659  0.00512689  0.91290681  1
  O  O164  1  0.62279493  0.24862931  0.16796168  1
  O  O165  1  0.62118865  0.24695083  0.41618245  1
  O  O166  1  0.62334901  0.24974232  0.66557121  1
  O  O167  1  0.63250574  0.23960405  0.90737969  1
  O  O168  1  0.62410931  0.49534852  0.16316660  1
  O  O169  1  0.62228355  0.50736271  0.41800326  1
  O  O170  1  0.62119979  0.50459398  0.65993150  1
  O  O171  1  0.62901806  0.50175821  0.91176554  1
  O  O172  1  0.62259366  0.74970547  0.16692736  1
  O  O173  1  0.61985041  0.73964383  0.41046621  1
  O  O174  1  0.62147666  0.75015444  0.66349115  1
  O  O175  1  0.62981998  0.75123555  0.91701058  1
  O  O176  1  0.87303967  -0.00286172  0.16649526  1
  O  O177  1  0.87442064  0.00249021  0.41424704  1
  O  O178  1  0.87410217  -0.00438652  0.65593406  1
  O  O179  1  0.87701458  -0.00048451  0.91505224  1
  O  O180  1  0.87389997  0.25759682  0.16749087  1
  O  O181  1  0.87732326  0.25942541  0.41649426  1
  O  O182  1  0.87602529  0.25798367  0.65792677  1
  O  O183  1  0.87509850  0.24073573  0.90863931  1
  O  O184  1  0.87576490  0.48979868  0.16426474  1
  O  O185  1  0.87445278  0.49767639  0.42065949  1
  O  O186  1  0.87657581  0.49622250  0.66314011  1
  O  O187  1  0.87759655  0.50704737  0.90955187  1
  O  O188  1  0.87539529  0.75660247  0.16299354  1
  O  O189  1  0.87384263  0.74274605  0.41213612  1
  O  O190  1  0.87370935  0.74936476  0.66214164  1
  O  O191  1  0.87919324  0.75423654  0.91132172  1
  O  O192  1  -0.00052477  0.12813996  0.16919670  1
  O  O193  1  0.00828465  0.12980459  0.41322194  1
  O  O194  1  -0.00298256  0.12702651  0.66267649  1
  O  O195  1  -0.00539309  0.12209757  0.91104589  1
  O  O196  1  -0.00075100  0.37344026  0.16174304  1
  O  O197  1  -0.00138401  0.37914441  0.41876888  1
  O  O198  1  0.00266330  0.37646939  0.66072159  1
  O  O199  1  0.00305106  0.37523918  0.91286089  1
  O  O200  1  0.00029904  0.62254952  0.16903427  1
  O  O201  1  0.00067096  0.62076964  0.41387468  1
  O  O202  1  0.00113385  0.62336536  0.66124709  1
  O  O203  1  -0.00452593  0.62865055  0.91480914  1
  O  O204  1  -0.00607717  0.87756303  0.16386014  1
  O  O205  1  0.00414033  0.87305219  0.41376075  1
  O  O206  1  0.00779249  0.87289365  0.65477150  1
  O  O207  1  -0.00301832  0.87597289  0.91640478  1
  O  O208  1  0.25923664  0.12650722  0.16048907  1
  O  O209  1  0.24778475  0.12905098  0.41544829  1
  O  O210  1  0.25732837  0.12521264  0.66735610  1
  O  O211  1  0.24519838  0.12246027  0.90692826  1
  O  O212  1  0.24683613  0.37382749  0.15908533  1
  O  O213  1  0.24422280  0.37500643  0.41818192  1
  O  O214  1  0.25126282  0.37333962  0.66762556  1
  O  O215  1  0.24055032  0.37487890  0.91162498  1
  O  O216  1  0.25863814  0.62600679  0.16365033  1
  O  O217  1  0.25289877  0.62224154  0.41301346  1
  O  O218  1  0.25267274  0.62388211  0.66963831  1
  O  O219  1  0.25393039  0.62565037  0.91327024  1
  O  O220  1  0.25932175  0.87794787  0.16339170  1
  O  O221  1  0.25048828  0.87729702  0.41883206  1
  O  O222  1  0.24852866  0.87735086  0.66403479  1
  O  O223  1  0.24136768  0.87527484  0.91075169  1
  O  O224  1  0.50006267  0.12724434  0.16689545  1
  O  O225  1  0.49575542  0.12798889  0.41189027  1
  O  O226  1  0.49364496  0.12496795  0.66598436  1
  O  O227  1  0.51032631  0.12126884  0.90548070  1
  O  O228  1  0.50241428  0.37371893  0.16122754  1
  O  O229  1  0.49534870  0.37606180  0.41838606  1
  O  O230  1  0.49185998  0.37397710  0.66486946  1
  O  O231  1  0.50509054  0.37311227  0.90987724  1
  O  O232  1  0.49125195  0.62540395  0.16289155  1
  O  O233  1  0.49756169  0.62210170  0.41166331  1
  O  O234  1  0.50408561  0.62593365  0.66622309  1
  O  O235  1  0.49254627  0.62706914  0.91062859  1
  O  O236  1  0.49370900  0.87863080  0.16430173  1
  O  O237  1  0.49741255  0.87570044  0.41824652  1
  O  O238  1  0.50236279  0.87462998  0.66396561  1
  O  O239  1  0.50243252  0.87540893  0.91185562  1
  O  O240  1  0.74221703  0.12985682  0.16547432  1
  O  O241  1  0.74198852  0.12872736  0.41239899  1
  O  O242  1  0.74998007  0.12490482  0.65948196  1
  O  O243  1  0.75408867  0.12071564  0.91330283  1
  O  O244  1  0.75291398  0.37322798  0.16330255  1
  O  O245  1  0.75577721  0.37743340  0.41624762  1
  O  O246  1  0.75496594  0.37845744  0.65825816  1
  O  O247  1  0.75432786  0.37354218  0.91548666  1
  O  O248  1  0.75137646  0.62270198  0.16699300  1
  O  O249  1  0.74482828  0.62206032  0.41061912  1
  O  O250  1  0.74158398  0.62549804  0.66025783  1
  O  O251  1  0.76059455  0.62942445  0.91155591  1
  O  O252  1  0.75506326  0.87674630  0.16652343  1
  O  O253  1  0.74381800  0.87382637  0.41398914  1
  O  O254  1  0.74152091  0.87118087  0.65628817  1
  O  O255  1  0.76110616  0.87708809  0.91525856  1
  O  O256  1  0.11657049  0.12505518  0.03597571  1
  O  O257  1  0.12759978  0.13310057  0.29933827  1
  O  O258  1  0.12780501  0.13479835  0.54516723  1
  O  O259  1  0.11473560  0.12442144  0.77728362  1
  O  O260  1  0.12340503  0.37249302  0.04679688  1
  O  O261  1  0.12499268  0.37375079  0.30058053  1
  O  O262  1  0.12820310  0.37295938  0.55066248  1
  O  O263  1  0.11951904  0.37795905  0.79491557  1
  O  O264  1  0.12036573  0.62874981  0.03572796  1
  O  O265  1  0.12595718  0.61731575  0.29707957  1
  O  O266  1  0.13363598  0.62186782  0.53797760  1
  O  O267  1  0.12703999  0.62881558  0.78664541  1
  O  O268  1  0.12719520  0.87499525  0.03844937  1
  O  O269  1  0.13327818  0.87507156  0.28314616  1
  O  O270  1  0.13081248  0.87704052  0.54390363  1
  O  O271  1  0.11973416  0.87367372  0.79953982  1
  O  O272  1  0.37980437  0.12346433  0.04736242  1
  O  O273  1  0.37293769  0.12915863  0.29865289  1
  O  O274  1  0.37419239  0.12570105  0.55365277  1
  O  O275  1  0.37657073  0.11961799  0.78284285  1
  O  O276  1  0.37543233  0.37149362  0.02933789  1
  O  O277  1  0.36913233  0.37525280  0.28702537  1
  O  O278  1  0.37135679  0.37552178  0.55340663  1
  O  O279  1  0.37210854  0.36907328  0.78777033  1
  O  O280  1  0.37524036  0.62610549  0.04574785  1
  O  O281  1  0.37488313  0.62099170  0.29849746  1
  O  O282  1  0.37185363  0.62628738  0.53702620  1
  O  O283  1  0.37234555  0.62642809  0.79557100  1
  O  O284  1  0.37570021  0.87616272  0.04824325  1
  O  O285  1  0.37547400  0.87954161  0.28657164  1
  O  O286  1  0.37391801  0.87640954  0.54997136  1
  O  O287  1  0.37445841  0.88556903  0.78383618  1
  O  O288  1  0.62335637  0.12686374  0.05039827  1
  O  O289  1  0.62398017  0.12983876  0.30059554  1
  O  O290  1  0.61898448  0.13058937  0.53346131  1
  O  O291  1  0.63052195  0.12074718  0.79295653  1
  O  O292  1  0.62770836  0.37149159  0.04613622  1
  O  O293  1  0.61836740  0.37811877  0.29114821  1
  O  O294  1  0.62129558  0.36785050  0.53739593  1
  O  O295  1  0.63093176  0.38145102  0.77949556  1
  O  O296  1  0.62851397  0.62932841  0.03454064  1
  O  O297  1  0.62425053  0.61917061  0.29674246  1
  O  O298  1  0.62045115  0.62790608  0.54875955  1
  O  O299  1  0.62264001  0.63132350  0.78601787  1
  O  O300  1  0.62773384  0.87500652  0.04122561  1
  O  O301  1  0.61590135  0.87551800  0.28246300  1
  O  O302  1  0.61827225  0.87296459  0.54705717  1
  O  O303  1  0.63031349  0.86788972  0.78469958  1
  O  O304  1  0.87637179  0.12936302  0.03958683  1
  O  O305  1  0.87099952  0.13338976  0.29307142  1
  O  O306  1  0.88072592  0.12658262  0.52594717  1
  O  O307  1  0.87235480  0.11744979  0.79751327  1
  O  O308  1  0.87597062  0.37238472  0.04765802  1
  O  O309  1  0.87704688  0.37661222  0.30298720  1
  O  O310  1  0.87585466  0.38018299  0.54775709  1
  O  O311  1  0.87236396  0.38180456  0.78306161  1
  O  O312  1  0.88192531  0.62236816  0.03684362  1
  O  O313  1  0.87633762  0.61676338  0.30010937  1
  O  O314  1  0.87267958  0.62108597  0.53157423  1
  O  O315  1  0.87900020  0.62655422  0.79731951  1
  O  O316  1  0.87229319  0.87863539  0.04986752  1
  O  O317  1  0.87170451  0.87957371  0.28980425  1
  O  O318  1  0.87332353  0.86769915  0.52693436  1
  O  O319  1  0.87716373  0.87386079  0.79875335  1
