# generated using pymatgen
data_VFe(PbO3)2
_symmetry_space_group_name_H-M   'P 1'
_cell_length_a   15.39737645
_cell_length_b   15.39306676
_cell_length_c   18.48879839
_cell_angle_alpha   90.00249845
_cell_angle_beta   90.00792661
_cell_angle_gamma   90.00702740
_symmetry_Int_Tables_number   1
_chemical_formula_structural   VFe(PbO3)2
_chemical_formula_sum   'V32 Fe32 Pb64 O192'
_cell_volume   4382.08260492
_cell_formula_units_Z   32
loop_
 _symmetry_equiv_pos_site_id
 _symmetry_equiv_pos_as_xyz
  1  'x, y, z'
loop_
 _atom_site_type_symbol
 _atom_site_label
 _atom_site_symmetry_multiplicity
 _atom_site_fract_x
 _atom_site_fract_y
 _atom_site_fract_z
 _atom_site_occupancy
  V  V0  1  0.12360903  0.62550804  0.39298750  1
  V  V1  1  0.62846439  0.87638062  0.14014816  1
  V  V2  1  0.62890583  0.62622138  0.64708680  1
  V  V3  1  0.38142674  0.62416394  0.38608628  1
  V  V4  1  0.12661880  0.62551226  0.88459388  1
  V  V5  1  0.87416528  0.13383497  0.40962059  1
  V  V6  1  0.37404757  0.62734059  0.64006967  1
  V  V7  1  0.87522310  0.37900371  0.40417616  1
  V  V8  1  0.12261519  0.87498165  0.14131614  1
  V  V9  1  0.12515654  0.87265203  0.39145726  1
  V  V10  1  0.87433436  0.12458156  0.87951495  1
  V  V11  1  0.62321918  0.12318375  0.63778800  1
  V  V12  1  0.12424949  0.37826518  0.39625579  1
  V  V13  1  0.62797651  0.37325541  0.13802126  1
  V  V14  1  0.12583605  0.62365726  0.13846633  1
  V  V15  1  0.87476941  0.62723161  0.39871236  1
  V  V16  1  0.87563891  0.87637156  0.13940234  1
  V  V17  1  0.87474993  0.62638614  0.13449276  1
  V  V18  1  0.37279780  0.87579405  0.89086057  1
  V  V19  1  0.37392474  0.12569303  0.63202493  1
  V  V20  1  0.62479619  0.12611097  0.14137415  1
  V  V21  1  0.62725447  0.38003736  0.39727097  1
  V  V22  1  0.37681603  0.12651252  0.38900380  1
  V  V23  1  0.12417252  0.12329149  0.88670961  1
  V  V24  1  0.37550531  0.87532229  0.63889049  1
  V  V25  1  0.87182692  0.12359443  0.14072856  1
  V  V26  1  0.12858354  0.87273939  0.63976869  1
  V  V27  1  0.12943929  0.62429809  0.63771396  1
  V  V28  1  0.62632966  0.12650017  0.39471185  1
  V  V29  1  0.37368316  0.37306553  0.14045852  1
  V  V30  1  0.37121770  0.12624862  0.88885894  1
  V  V31  1  0.87638545  0.87605494  0.39706992  1
  Fe  Fe32  1  0.87739146  0.12267687  0.62611443  1
  Fe  Fe33  1  0.12825039  0.87712552  0.88373478  1
  Fe  Fe34  1  0.62372137  0.62500300  0.87609166  1
  Fe  Fe35  1  0.12130083  0.37474679  0.13598584  1
  Fe  Fe36  1  0.62695907  0.87257812  0.38801026  1
  Fe  Fe37  1  0.12935361  0.37543017  0.63363951  1
  Fe  Fe38  1  0.13013116  0.12225387  0.62412983  1
  Fe  Fe39  1  0.37547182  0.87671040  0.14171403  1
  Fe  Fe40  1  0.37430793  0.37689536  0.62822855  1
  Fe  Fe41  1  0.12227036  0.12540240  0.13972583  1
  Fe  Fe42  1  0.87883692  0.62436665  0.87235311  1
  Fe  Fe43  1  0.62197700  0.12255522  0.87784955  1
  Fe  Fe44  1  0.37579484  0.87276366  0.38161538  1
  Fe  Fe45  1  0.87347982  0.87577493  0.64133998  1
  Fe  Fe46  1  0.87388204  0.37413373  0.13334147  1
  Fe  Fe47  1  0.87892456  0.62548943  0.64846011  1
  Fe  Fe48  1  0.37180347  0.62537537  0.88889352  1
  Fe  Fe49  1  0.61907071  0.37705116  0.64659498  1
  Fe  Fe50  1  0.12188560  0.12497064  0.39925832  1
  Fe  Fe51  1  0.87964605  0.87845885  0.87625202  1
  Fe  Fe52  1  0.12816350  0.37343939  0.88263454  1
  Fe  Fe53  1  0.62969615  0.62388245  0.38685689  1
  Fe  Fe54  1  0.61946148  0.87210539  0.64517410  1
  Fe  Fe55  1  0.37646555  0.62552689  0.13167391  1
  Fe  Fe56  1  0.87775538  0.37181128  0.87818737  1
  Fe  Fe57  1  0.62653069  0.62464425  0.13299376  1
  Fe  Fe58  1  0.87430571  0.37375645  0.63408443  1
  Fe  Fe59  1  0.37609611  0.37699127  0.39573286  1
  Fe  Fe60  1  0.62220930  0.37029981  0.87447358  1
  Fe  Fe61  1  0.62308624  0.87915685  0.87685018  1
  Fe  Fe62  1  0.37138378  0.37307848  0.88358308  1
  Fe  Fe63  1  0.37765962  0.12533238  0.13898309  1
  Pb  Pb64  1  0.00551397  0.00624707  -0.00381465  1
  Pb  Pb65  1  0.00350128  0.00947998  0.25764582  1
  Pb  Pb66  1  -0.00762609  -0.00249351  0.50893477  1
  Pb  Pb67  1  -0.00261351  -0.00108710  0.74113739  1
  Pb  Pb68  1  0.00274576  0.25663024  -0.00034994  1
  Pb  Pb69  1  0.00128009  0.24907736  0.25221287  1
  Pb  Pb70  1  0.00734455  0.26222800  0.51226371  1
  Pb  Pb71  1  0.00433742  0.25065861  0.73311692  1
  Pb  Pb72  1  -0.00424658  0.48957252  -0.00851025  1
  Pb  Pb73  1  -0.00226555  0.49804595  0.24580925  1
  Pb  Pb74  1  -0.00694029  0.50406733  0.51348505  1
  Pb  Pb75  1  -0.00718853  0.49008059  0.74834375  1
  Pb  Pb76  1  -0.00104347  0.75253315  -0.01320926  1
  Pb  Pb77  1  -0.00230750  0.74946491  0.24871386  1
  Pb  Pb78  1  -0.01196684  0.75013280  0.51296416  1
  Pb  Pb79  1  -0.00421975  0.75372340  0.75062603  1
  Pb  Pb80  1  0.25844484  0.00304773  0.00848995  1
  Pb  Pb81  1  0.25141579  0.00392261  0.25106199  1
  Pb  Pb82  1  0.25033732  0.00420600  0.49680785  1
  Pb  Pb83  1  0.24539070  -0.00459805  0.74957811  1
  Pb  Pb84  1  0.24014962  0.24803853  0.00309574  1
  Pb  Pb85  1  0.24015161  0.24181347  0.25365673  1
  Pb  Pb86  1  0.24419156  0.25316147  0.50286485  1
  Pb  Pb87  1  0.24676892  0.25966517  0.74650358  1
  Pb  Pb88  1  0.25199071  0.49752644  -0.00526855  1
  Pb  Pb89  1  0.25845349  0.49373397  0.25112860  1
  Pb  Pb90  1  0.24976004  0.49626344  0.50284984  1
  Pb  Pb91  1  0.25410675  0.48862432  0.75192230  1
  Pb  Pb92  1  0.25908200  0.75208928  0.00370967  1
  Pb  Pb93  1  0.25767305  0.75045744  0.24918499  1
  Pb  Pb94  1  0.25228960  0.74718435  0.49826827  1
  Pb  Pb95  1  0.25178253  0.74719733  0.75578498  1
  Pb  Pb96  1  0.49151786  -0.00097317  0.00140913  1
  Pb  Pb97  1  0.49822496  -0.00549804  0.25247885  1
  Pb  Pb98  1  0.50547643  -0.00739919  0.49713772  1
  Pb  Pb99  1  0.50462739  0.00216039  0.75290686  1
  Pb  Pb100  1  0.50035865  0.24911238  -0.00854744  1
  Pb  Pb101  1  0.49342593  0.25917991  0.25598943  1
  Pb  Pb102  1  0.50227709  0.25608683  0.50628324  1
  Pb  Pb103  1  0.49489253  0.25869882  0.74873698  1
  Pb  Pb104  1  0.50288165  0.50384373  -0.01174861  1
  Pb  Pb105  1  0.50083465  0.50209577  0.24815364  1
  Pb  Pb106  1  0.50493885  0.48990628  0.51035074  1
  Pb  Pb107  1  0.49883311  0.50248287  0.75391525  1
  Pb  Pb108  1  0.50730197  0.73867216  -0.00201778  1
  Pb  Pb109  1  0.50170755  0.75022769  0.24600504  1
  Pb  Pb110  1  0.51320739  0.75545430  0.50151716  1
  Pb  Pb111  1  0.49529843  0.74037098  0.75880365  1
  Pb  Pb112  1  0.74665381  -0.00351903  -0.01186397  1
  Pb  Pb113  1  0.74646707  -0.00573412  0.25601371  1
  Pb  Pb114  1  0.75203972  -0.00377804  0.50772713  1
  Pb  Pb115  1  0.74494065  -0.00270138  0.74515970  1
  Pb  Pb116  1  0.75168338  0.25506544  -0.01154156  1
  Pb  Pb117  1  0.75188677  0.24872781  0.25200898  1
  Pb  Pb118  1  0.74376073  0.26167426  0.51355987  1
  Pb  Pb119  1  0.74906073  0.25452870  0.74200889  1
  Pb  Pb120  1  0.74990059  0.50085586  -0.01890132  1
  Pb  Pb121  1  0.74810680  0.50712804  0.24821034  1
  Pb  Pb122  1  0.75898883  0.50485154  0.51535015  1
  Pb  Pb123  1  0.75962028  0.49299476  0.75099751  1
  Pb  Pb124  1  0.74806862  0.74675197  -0.01947988  1
  Pb  Pb125  1  0.74221902  0.74870902  0.25319605  1
  Pb  Pb126  1  0.74821776  0.75743349  0.51108105  1
  Pb  Pb127  1  0.75153730  0.75819111  0.75032832  1
  O  O128  1  0.11974401  -0.00675376  0.16783569  1
  O  O129  1  0.12147172  -0.01093299  0.41582933  1
  O  O130  1  0.13254411  -0.00694591  0.65674929  1
  O  O131  1  0.12717782  0.00747666  0.91525401  1
  O  O132  1  0.12255576  0.25148574  0.17212913  1
  O  O133  1  0.12357946  0.25728406  0.41638821  1
  O  O134  1  0.13106815  0.24587490  0.65340219  1
  O  O135  1  0.12781157  0.23960220  0.91119411  1
  O  O136  1  0.12345693  0.50320131  0.16573147  1
  O  O137  1  0.12154638  0.49948366  0.41878483  1
  O  O138  1  0.13432813  0.50881116  0.65528568  1
  O  O139  1  0.12716180  0.50607652  0.90776017  1
  O  O140  1  0.12170386  0.75250424  0.16655743  1
  O  O141  1  0.12303891  0.75349495  0.41797711  1
  O  O142  1  0.13048420  0.75267791  0.66492482  1
  O  O143  1  0.12624375  0.74660807  0.91082825  1
  O  O144  1  0.37717758  0.00121938  0.17216962  1
  O  O145  1  0.37887361  0.00518352  0.40973967  1
  O  O146  1  0.37262759  -0.00768069  0.66059149  1
  O  O147  1  0.37029195  0.00171593  0.91635867  1
  O  O148  1  0.37957834  0.25625510  0.16817056  1
  O  O149  1  0.37836848  0.24399779  0.41367301  1
  O  O150  1  0.37506524  0.24187750  0.64496619  1
  O  O151  1  0.37045056  0.24096537  0.91251315  1
  O  O152  1  0.37745568  0.49339165  0.16445046  1
  O  O153  1  0.37140733  0.51086970  0.41632851  1
  O  O154  1  0.36876343  0.51051824  0.65492338  1
  O  O155  1  0.37102308  0.49897835  0.91127591  1
  O  O156  1  0.37450274  0.74989002  0.16529203  1
  O  O157  1  0.36837555  0.74093400  0.40879284  1
  O  O158  1  0.36975466  0.75322133  0.66699183  1
  O  O159  1  0.37108869  0.75906092  0.91244648  1
  O  O160  1  0.62932670  -0.00116054  0.16756423  1
  O  O161  1  0.62712314  0.00277822  0.41570465  1
  O  O162  1  0.61546382  0.00474971  0.66003954  1
  O  O163  1  0.62294895  0.00150181  0.91439899  1
  O  O164  1  0.62661243  0.25412747  0.16896637  1
  O  O165  1  0.62659100  0.25441105  0.42224378  1
  O  O166  1  0.61500743  0.23935352  0.66020284  1
  O  O167  1  0.62362574  0.24477613  0.91072615  1
  O  O168  1  0.62706799  0.49151386  0.16075831  1
  O  O169  1  0.62815907  0.49747204  0.41937843  1
  O  O170  1  0.61419387  0.50882379  0.66383178  1
  O  O171  1  0.62380516  0.49677104  0.90319335  1
  O  O172  1  0.63050659  0.75763783  0.16041615  1
  O  O173  1  0.62883212  0.74641743  0.41937926  1
  O  O174  1  0.61797616  0.74280248  0.66864478  1
  O  O175  1  0.62338718  0.75465829  0.90436952  1
  O  O176  1  0.87376732  -0.00081345  0.17174206  1
  O  O177  1  0.87517188  -0.00831134  0.41708552  1
  O  O178  1  0.87500323  0.00199579  0.66023311  1
  O  O179  1  0.88047918  0.00945422  0.90870126  1
  O  O180  1  0.87143457  0.24516430  0.16870779  1
  O  O181  1  0.87174892  0.25095443  0.42479651  1
  O  O182  1  0.87314097  0.24620442  0.65172048  1
  O  O183  1  0.87952323  0.23953987  0.90695382  1
  O  O184  1  0.87476678  0.50521113  0.16255740  1
  O  O185  1  0.87758766  0.50627292  0.42299612  1
  O  O186  1  0.87628402  0.49841790  0.66300703  1
  O  O187  1  0.87853274  0.49988203  0.90417933  1
  O  O188  1  0.87573535  0.75179048  0.16633762  1
  O  O189  1  0.87816550  0.74813999  0.42042452  1
  O  O190  1  0.87859666  0.75119075  0.66581459  1
  O  O191  1  0.88026061  0.75047141  0.90176008  1
  O  O192  1  -0.00650733  0.12360283  0.17146868  1
  O  O193  1  -0.00794427  0.12408192  0.42048506  1
  O  O194  1  0.00484152  0.12087900  0.64774373  1
  O  O195  1  0.00389564  0.12355188  0.90648291  1
  O  O196  1  -0.00371553  0.37517303  0.16924026  1
  O  O197  1  0.00139899  0.37611794  0.42194727  1
  O  O198  1  0.00346038  0.37475170  0.65364402  1
  O  O199  1  0.00311685  0.37056689  0.90897451  1
  O  O200  1  -0.00047166  0.62697048  0.16716634  1
  O  O201  1  -0.00115648  0.62641337  0.42270458  1
  O  O202  1  0.01540933  0.62832986  0.66147127  1
  O  O203  1  0.00852622  0.62540862  0.90749410  1
  O  O204  1  0.00037453  0.87403842  0.16938667  1
  O  O205  1  -0.00110040  0.87111274  0.41961111  1
  O  O206  1  0.01108515  0.87455595  0.65785026  1
  O  O207  1  0.00325258  0.87999110  0.91304926  1
  O  O208  1  0.24997801  0.12533921  0.16947081  1
  O  O209  1  0.25879074  0.12356573  0.40977763  1
  O  O210  1  0.25928303  0.11690302  0.65660893  1
  O  O211  1  0.24970531  0.12234243  0.91323313  1
  O  O212  1  0.25676611  0.37404661  0.16241657  1
  O  O213  1  0.24434883  0.37850042  0.41248945  1
  O  O214  1  0.25380368  0.37575028  0.66081939  1
  O  O215  1  0.24877742  0.37054392  0.91908531  1
  O  O216  1  0.24577410  0.62464798  0.16383810  1
  O  O217  1  0.24439097  0.62483612  0.41696169  1
  O  O218  1  0.24944509  0.63336500  0.66538612  1
  O  O219  1  0.24272246  0.62824567  0.91543224  1
  O  O220  1  0.23895224  0.87515637  0.16449999  1
  O  O221  1  0.24495271  0.87340826  0.40958254  1
  O  O222  1  0.25273241  0.87296784  0.66633738  1
  O  O223  1  0.25391224  0.87911301  0.91868149  1
  O  O224  1  0.50745745  0.12624355  0.16984667  1
  O  O225  1  0.50174377  0.12617394  0.41647341  1
  O  O226  1  0.48930209  0.11870188  0.66239866  1
  O  O227  1  0.49005271  0.12123692  0.90888217  1
  O  O228  1  0.50377602  0.37441003  0.16530421  1
  O  O229  1  0.50766277  0.37769421  0.41678397  1
  O  O230  1  0.49172742  0.37618969  0.66507919  1
  O  O231  1  0.49726483  0.36869441  0.90954412  1
  O  O232  1  0.50202341  0.62413104  0.16343591  1
  O  O233  1  0.49567896  0.62528092  0.40066477  1
  O  O234  1  0.48844688  0.62989549  0.66355119  1
  O  O235  1  0.49875255  0.62797975  0.91064854  1
  O  O236  1  0.51046856  0.87677885  0.16094712  1
  O  O237  1  0.49879126  0.87193540  0.41257252  1
  O  O238  1  0.48873998  0.87158467  0.66415402  1
  O  O239  1  0.49021761  0.88117651  0.90964876  1
  O  O240  1  0.74816557  0.12525707  0.17404082  1
  O  O241  1  0.74686229  0.12594411  0.42589073  1
  O  O242  1  0.74022298  0.12240017  0.65169040  1
  O  O243  1  0.75791227  0.12366360  0.90139587  1
  O  O244  1  0.74515162  0.37319065  0.16401708  1
  O  O245  1  0.74605740  0.37703037  0.42510035  1
  O  O246  1  0.74645733  0.37368638  0.65920806  1
  O  O247  1  0.75065510  0.36907674  0.90395372  1
  O  O248  1  0.75390668  0.62595605  0.16357522  1
  O  O249  1  0.75877502  0.62500682  0.42114015  1
  O  O250  1  0.74427674  0.62520369  0.66116578  1
  O  O251  1  0.75157768  0.62596435  0.89883169  1
  O  O252  1  0.75105052  0.87784240  0.16771481  1
  O  O253  1  0.75753321  0.87035751  0.41834008  1
  O  O254  1  0.74593160  0.87375818  0.66190899  1
  O  O255  1  0.75288654  0.88038530  0.90453981  1
  O  O256  1  0.11862846  0.12762826  0.04049079  1
  O  O257  1  0.11995751  0.12392219  0.29788204  1
  O  O258  1  0.13797967  0.12281035  0.52169327  1
  O  O259  1  0.12818790  0.12143866  0.79553612  1
  O  O260  1  0.11900700  0.36610904  0.03630005  1
  O  O261  1  0.11993673  0.37954257  0.30489133  1
  O  O262  1  0.13211392  0.37230776  0.53169841  1
  O  O263  1  0.13651463  0.36974075  0.78121754  1
  O  O264  1  0.12284014  0.62532204  0.04810716  1
  O  O265  1  0.12253721  0.62569434  0.30219574  1
  O  O266  1  0.13209486  0.63098763  0.54602666  1
  O  O267  1  0.13071682  0.62702732  0.79344365  1
  O  O268  1  0.12039716  0.87517266  0.05063044  1
  O  O269  1  0.11939901  0.87123985  0.30060974  1
  O  O270  1  0.13352104  0.86905871  0.54852891  1
  O  O271  1  0.13183970  0.88227236  0.78425626  1
  O  O272  1  0.37600446  0.11765789  0.03953448  1
  O  O273  1  0.38096893  0.12788644  0.29755656  1
  O  O274  1  0.37610366  0.11520912  0.54083309  1
  O  O275  1  0.36856639  0.12418587  0.79777226  1
  O  O276  1  0.37674473  0.37118290  0.04993074  1
  O  O277  1  0.38114317  0.38169948  0.29532869  1
  O  O278  1  0.37921419  0.38224938  0.52526149  1
  O  O279  1  0.36371813  0.36954815  0.78264915  1
  O  O280  1  0.37453628  0.63065873  0.03154852  1
  O  O281  1  0.36963262  0.61958787  0.29428370  1
  O  O282  1  0.37330895  0.63487993  0.54882876  1
  O  O283  1  0.37230600  0.63355595  0.78777178  1
  O  O284  1  0.37028494  0.88463404  0.04136236  1
  O  O285  1  0.37730796  0.87101946  0.28147258  1
  O  O286  1  0.37302498  0.87172966  0.54726257  1
  O  O287  1  0.36774471  0.87902587  0.79936771  1
  O  O288  1  0.62814305  0.12654921  0.05070256  1
  O  O289  1  0.62949357  0.13121982  0.30382412  1
  O  O290  1  0.61467007  0.12372720  0.54590791  1
  O  O291  1  0.61985004  0.11652873  0.77825153  1
  O  O292  1  0.62732145  0.36825964  0.04757505  1
  O  O293  1  0.63037644  0.37753319  0.30627684  1
  O  O294  1  0.61304114  0.37415227  0.54339428  1
  O  O295  1  0.61824069  0.36666772  0.77237305  1
  O  O296  1  0.62381048  0.62905962  0.03337920  1
  O  O297  1  0.63879595  0.62402797  0.28681496  1
  O  O298  1  0.62027090  0.62919397  0.55458289  1
  O  O299  1  0.60969486  0.62331779  0.77544312  1
  O  O300  1  0.63324563  0.88097283  0.04952760  1
  O  O301  1  0.63399226  0.87253057  0.28789286  1
  O  O302  1  0.61755484  0.86526032  0.54252967  1
  O  O303  1  0.62199331  0.88437262  0.77525180  1
  O  O304  1  0.87104500  0.12312203  0.04990311  1
  O  O305  1  0.86710879  0.12583970  0.31814128  1
  O  O306  1  0.87072193  0.10990269  0.52375233  1
  O  O307  1  0.87840510  0.12390443  0.78831652  1
  O  O308  1  0.87890822  0.37026653  0.03387292  1
  O  O309  1  0.87065184  0.37935512  0.31304448  1
  O  O310  1  0.87296289  0.38457783  0.53022309  1
  O  O311  1  0.87702691  0.37514506  0.77666651  1
  O  O312  1  0.87626983  0.62689291  0.04373957  1
  O  O313  1  0.87610976  0.62617880  0.30777878  1
  O  O314  1  0.88074784  0.62252234  0.54483204  1
  O  O315  1  0.88379435  0.61971138  0.77098232  1
  O  O316  1  0.87662130  0.87893969  0.04891189  1
  O  O317  1  0.87755696  0.87256961  0.30600381  1
  O  O318  1  0.87810291  0.87287517  0.53822466  1
  O  O319  1  0.88305122  0.88030625  0.77522689  1
