# generated using pymatgen
data_VFe(PbO3)2
_symmetry_space_group_name_H-M   'P 1'
_cell_length_a   15.38808199
_cell_length_b   15.37723362
_cell_length_c   18.49217239
_cell_angle_alpha   90.00332603
_cell_angle_beta   90.06940642
_cell_angle_gamma   89.99804419
_symmetry_Int_Tables_number   1
_chemical_formula_structural   VFe(PbO3)2
_chemical_formula_sum   'V32 Fe32 Pb64 O192'
_cell_volume   4375.72799967
_cell_formula_units_Z   32
loop_
 _symmetry_equiv_pos_site_id
 _symmetry_equiv_pos_as_xyz
  1  'x, y, z'
loop_
 _atom_site_type_symbol
 _atom_site_label
 _atom_site_symmetry_multiplicity
 _atom_site_fract_x
 _atom_site_fract_y
 _atom_site_fract_z
 _atom_site_occupancy
  V  V0  1  0.12287411  0.12352826  0.63826377  1
  V  V1  1  0.62397886  0.37723465  0.14368783  1
  V  V2  1  0.38095609  0.12341481  0.89384492  1
  V  V3  1  0.62264199  0.62297244  0.89738906  1
  V  V4  1  0.62615098  0.12544588  0.89412810  1
  V  V5  1  0.62760165  0.62812003  0.63976097  1
  V  V6  1  0.62209600  0.12760540  0.13665372  1
  V  V7  1  0.62818865  0.37471661  0.63563292  1
  V  V8  1  0.87587814  0.62395198  0.89276373  1
  V  V9  1  0.87579952  0.37541562  0.38745286  1
  V  V10  1  0.12688010  0.12611997  0.13616613  1
  V  V11  1  0.37658387  0.62405523  0.14120546  1
  V  V12  1  0.12653744  0.87463815  0.38878223  1
  V  V13  1  0.87275304  0.12599063  0.13892810  1
  V  V14  1  0.87710036  0.62587633  0.38878722  1
  V  V15  1  0.12592972  0.62395192  0.13487338  1
  V  V16  1  0.37595018  0.87623892  0.63742256  1
  V  V17  1  0.87675707  0.87305636  0.38593806  1
  V  V18  1  0.62297292  0.37373937  0.89181506  1
  V  V19  1  0.87578871  0.37512255  0.64170425  1
  V  V20  1  0.13488534  0.12737043  0.88995043  1
  V  V21  1  0.62515568  0.12525083  0.38539976  1
  V  V22  1  0.62859484  0.12282098  0.63929242  1
  V  V23  1  0.87393911  0.87559740  0.64306540  1
  V  V24  1  0.87144132  0.37467643  0.89444848  1
  V  V25  1  0.37580444  0.87227416  0.89000033  1
  V  V26  1  0.62616148  0.62429223  0.38424063  1
  V  V27  1  0.87951371  0.12740794  0.89094928  1
  V  V28  1  0.12883784  0.37385480  0.39319943  1
  V  V29  1  0.37502434  0.62306370  0.88583089  1
  V  V30  1  0.37600120  0.37481193  0.88941379  1
  V  V31  1  0.36927094  0.12165561  0.38944824  1
  Fe  Fe32  1  0.12407712  0.37333630  0.63112362  1
  Fe  Fe33  1  0.12659463  0.87714826  0.88998457  1
  Fe  Fe34  1  0.87349463  0.62326718  0.12848765  1
  Fe  Fe35  1  0.62422428  0.87541387  0.13049044  1
  Fe  Fe36  1  0.37723494  0.37257058  0.62884555  1
  Fe  Fe37  1  0.37823500  0.37398440  0.39075002  1
  Fe  Fe38  1  0.37778981  0.62750957  0.63094953  1
  Fe  Fe39  1  0.37153032  0.87590970  0.14363807  1
  Fe  Fe40  1  0.12501423  0.37341052  0.88973480  1
  Fe  Fe41  1  0.12126728  0.12545500  0.38328986  1
  Fe  Fe42  1  0.63015478  0.37504158  0.38437665  1
  Fe  Fe43  1  0.37478062  0.12295176  0.63461495  1
  Fe  Fe44  1  0.37581228  0.12820149  0.13286816  1
  Fe  Fe45  1  0.12276596  0.62691029  0.63388639  1
  Fe  Fe46  1  0.87255906  0.87654276  0.89687682  1
  Fe  Fe47  1  0.12906085  0.62408341  0.88410803  1
  Fe  Fe48  1  0.87502427  0.12421996  0.63879908  1
  Fe  Fe49  1  0.62178153  0.87490816  0.89713508  1
  Fe  Fe50  1  0.62632411  0.87569606  0.63388166  1
  Fe  Fe51  1  0.87163258  0.62653404  0.63935094  1
  Fe  Fe52  1  0.37138121  0.37397759  0.14230552  1
  Fe  Fe53  1  0.62831548  0.87425790  0.38524166  1
  Fe  Fe54  1  0.12415114  0.37496672  0.13174672  1
  Fe  Fe55  1  0.87698257  0.37471932  0.13341358  1
  Fe  Fe56  1  0.62156857  0.62327161  0.13149471  1
  Fe  Fe57  1  0.37378885  0.62576976  0.38880916  1
  Fe  Fe58  1  0.12300151  0.62463587  0.38938016  1
  Fe  Fe59  1  0.12494812  0.87834466  0.63645288  1
  Fe  Fe60  1  0.12525905  0.87500757  0.13080753  1
  Fe  Fe61  1  0.87759471  0.87463475  0.12671886  1
  Fe  Fe62  1  0.87685478  0.12320265  0.38395962  1
  Fe  Fe63  1  0.37646114  0.87547773  0.37930925  1
  Pb  Pb64  1  0.00144026  -0.00607845  0.00122034  1
  Pb  Pb65  1  -0.00102695  0.00820919  0.24797812  1
  Pb  Pb66  1  -0.00087332  0.00042780  0.49919148  1
  Pb  Pb67  1  -0.00035764  -0.01083393  0.75679671  1
  Pb  Pb68  1  0.00187412  0.25886686  0.00464112  1
  Pb  Pb69  1  0.00003000  0.24235417  0.25050699  1
  Pb  Pb70  1  0.00182133  0.25090204  0.49942226  1
  Pb  Pb71  1  0.00814893  0.25448740  0.75288553  1
  Pb  Pb72  1  -0.00052640  0.49630161  -0.00062074  1
  Pb  Pb73  1  0.00133189  0.49944950  0.24295611  1
  Pb  Pb74  1  0.00697708  0.50190039  0.50497595  1
  Pb  Pb75  1  0.01435914  0.50575170  0.75074369  1
  Pb  Pb76  1  0.00287443  0.75461214  -0.00477557  1
  Pb  Pb77  1  -0.00093123  0.75144846  0.23929736  1
  Pb  Pb78  1  0.00719050  0.74825857  0.50473748  1
  Pb  Pb79  1  0.00748155  0.74837069  0.75092658  1
  Pb  Pb80  1  0.25572970  -0.00958838  0.00915401  1
  Pb  Pb81  1  0.25116413  -0.00245586  0.24463534  1
  Pb  Pb82  1  0.24351399  -0.00596284  0.49922253  1
  Pb  Pb83  1  0.24618163  -0.00307381  0.75124476  1
  Pb  Pb84  1  0.26070082  0.25380815  0.00677665  1
  Pb  Pb85  1  0.25067317  0.25506442  0.24801838  1
  Pb  Pb86  1  0.26005312  0.24893953  0.50388718  1
  Pb  Pb87  1  0.24949728  0.25711504  0.74466610  1
  Pb  Pb88  1  0.24477979  0.49285101  -0.00151468  1
  Pb  Pb89  1  0.24864026  0.50704241  0.25549665  1
  Pb  Pb90  1  0.25254208  0.50662831  0.50125842  1
  Pb  Pb91  1  0.24761148  0.50057679  0.73751366  1
  Pb  Pb92  1  0.24836614  0.75517945  -0.00075422  1
  Pb  Pb93  1  0.24872584  0.74095246  0.25302419  1
  Pb  Pb94  1  0.25213295  0.74179985  0.50012129  1
  Pb  Pb95  1  0.24209974  0.74541474  0.74534630  1
  Pb  Pb96  1  0.49253171  -0.01038682  0.01098897  1
  Pb  Pb97  1  0.49875186  -0.00922645  0.24907468  1
  Pb  Pb98  1  0.50492040  -0.00538009  0.49664420  1
  Pb  Pb99  1  0.50706754  -0.00548127  0.75138305  1
  Pb  Pb100  1  0.49115288  0.25146464  0.00695743  1
  Pb  Pb101  1  0.49616234  0.25991568  0.25624775  1
  Pb  Pb102  1  0.49668411  0.24818683  0.49911886  1
  Pb  Pb103  1  0.49803480  0.24893048  0.74518864  1
  Pb  Pb104  1  0.49965698  0.50134572  0.00463929  1
  Pb  Pb105  1  0.48506440  0.50019654  0.25861936  1
  Pb  Pb106  1  0.49519626  0.49671918  0.49500287  1
  Pb  Pb107  1  0.49725321  0.49971990  0.74194617  1
  Pb  Pb108  1  0.50564862  0.75006125  0.00699512  1
  Pb  Pb109  1  0.50251382  0.75912320  0.24765968  1
  Pb  Pb110  1  0.49871323  0.75259148  0.49277884  1
  Pb  Pb111  1  0.50670742  0.75714575  0.75122109  1
  Pb  Pb112  1  0.74701239  -0.00836155  0.00311883  1
  Pb  Pb113  1  0.74802100  -0.00645750  0.24434670  1
  Pb  Pb114  1  0.75184044  -0.00134454  0.49839909  1
  Pb  Pb115  1  0.75258058  -0.00888023  0.75864185  1
  Pb  Pb116  1  0.75034584  0.25416489  0.00554129  1
  Pb  Pb117  1  0.74775559  0.25175966  0.25160927  1
  Pb  Pb118  1  0.75672493  0.24054136  0.49834479  1
  Pb  Pb119  1  0.74991646  0.24924727  0.75130993  1
  Pb  Pb120  1  0.75329121  0.50513628  0.00617548  1
  Pb  Pb121  1  0.74966177  0.50048493  0.24450190  1
  Pb  Pb122  1  0.75800854  0.50602490  0.49970244  1
  Pb  Pb123  1  0.75029604  0.50229127  0.75286933  1
  Pb  Pb124  1  0.75330105  0.74757024  0.00320369  1
  Pb  Pb125  1  0.74709463  0.75093015  0.23521231  1
  Pb  Pb126  1  0.75420185  0.74814949  0.49985260  1
  Pb  Pb127  1  0.75259430  0.76412209  0.76057126  1
  O  O128  1  0.12166722  0.00795577  0.15836411  1
  O  O129  1  0.12088800  -0.00552833  0.41370953  1
  O  O130  1  0.12442785  0.00555342  0.66708011  1
  O  O131  1  0.12310063  0.01266017  0.91585667  1
  O  O132  1  0.11957255  0.24332852  0.16034296  1
  O  O133  1  0.11800253  0.25510810  0.41344284  1
  O  O134  1  0.12209753  0.24370187  0.66285170  1
  O  O135  1  0.12099920  0.24200168  0.91586475  1
  O  O136  1  0.12768704  0.50663636  0.16024536  1
  O  O137  1  0.12077709  0.49257461  0.41590331  1
  O  O138  1  0.12242143  0.49871103  0.65958531  1
  O  O139  1  0.12627062  0.49949515  0.91384437  1
  O  O140  1  0.12879832  0.74210343  0.15842753  1
  O  O141  1  0.12131000  0.75850020  0.41365115  1
  O  O142  1  0.12363920  0.75397345  0.66351300  1
  O  O143  1  0.12844479  0.74890979  0.91338049  1
  O  O144  1  0.37351923  0.00660732  0.16397330  1
  O  O145  1  0.37582058  0.00504721  0.41236614  1
  O  O146  1  0.37904278  -0.00447645  0.66507848  1
  O  O147  1  0.37625516  0.00045285  0.91589832  1
  O  O148  1  0.37529894  0.24777025  0.17110783  1
  O  O149  1  0.37731541  0.24060793  0.41345994  1
  O  O150  1  0.37846899  0.24722833  0.66606221  1
  O  O151  1  0.37714340  0.25291930  0.91498156  1
  O  O152  1  0.37368798  0.50320740  0.16609044  1
  O  O153  1  0.37593783  0.49922604  0.41560669  1
  O  O154  1  0.38053470  0.49950510  0.65753579  1
  O  O155  1  0.37636248  0.49438293  0.91053723  1
  O  O156  1  0.37309742  0.74168839  0.16296376  1
  O  O157  1  0.37582126  0.75302259  0.41115016  1
  O  O158  1  0.37942784  0.75886589  0.66265497  1
  O  O159  1  0.37429051  0.75421644  0.90884189  1
  O  O160  1  0.62888933  0.00992435  0.15827997  1
  O  O161  1  0.62917335  0.00712942  0.41251850  1
  O  O162  1  0.62685119  0.00534881  0.66340685  1
  O  O163  1  0.62188631  0.01004450  0.91535562  1
  O  O164  1  0.62985032  0.24681960  0.16594576  1
  O  O165  1  0.62874797  0.24171055  0.41175492  1
  O  O166  1  0.62842783  0.24817625  0.66365312  1
  O  O167  1  0.62339368  0.25151008  0.91977253  1
  O  O168  1  0.62347253  0.49302539  0.16133614  1
  O  O169  1  0.63168575  0.50739597  0.41142202  1
  O  O170  1  0.62673170  0.50158482  0.66343917  1
  O  O171  1  0.62005674  0.49546281  0.92043363  1
  O  O172  1  0.62172571  0.74914802  0.15583639  1
  O  O173  1  0.62943500  0.74240595  0.40990859  1
  O  O174  1  0.62705983  0.74582998  0.66372188  1
  O  O175  1  0.61892238  0.74446064  0.91820336  1
  O  O176  1  0.87501215  0.00638949  0.15818367  1
  O  O177  1  0.87553678  -0.00882656  0.40966461  1
  O  O178  1  0.87177164  -0.00429110  0.66852506  1
  O  O179  1  0.86907692  0.01287938  0.91626699  1
  O  O180  1  0.87420952  0.24507588  0.16265197  1
  O  O181  1  0.87566447  0.25643146  0.40907309  1
  O  O182  1  0.87055104  0.25571368  0.66789813  1
  O  O183  1  0.86914767  0.24547870  0.91851321  1
  O  O184  1  0.87483082  0.49979509  0.16330991  1
  O  O185  1  0.87417948  0.49934553  0.41373430  1
  O  O186  1  0.86927230  0.49204622  0.66804315  1
  O  O187  1  0.87092688  0.50016609  0.91492395  1
  O  O188  1  0.87563210  0.74836003  0.15752632  1
  O  O189  1  0.87624939  0.75300849  0.41543762  1
  O  O190  1  0.87131714  0.75760980  0.66854802  1
  O  O191  1  0.87065260  0.74201927  0.91127258  1
  O  O192  1  -0.00349251  0.12556322  0.15922807  1
  O  O193  1  -0.00065002  0.12340707  0.41799427  1
  O  O194  1  0.00455040  0.12432776  0.66411048  1
  O  O195  1  -0.00647002  0.12797352  0.91087565  1
  O  O196  1  0.00166773  0.37606828  0.16420253  1
  O  O197  1  -0.00758038  0.37713397  0.41598344  1
  O  O198  1  -0.00804656  0.37267549  0.66274641  1
  O  O199  1  -0.00631465  0.37206895  0.91455849  1
  O  O200  1  0.00737461  0.62393029  0.15349281  1
  O  O201  1  -0.00473425  0.62620642  0.41505145  1
  O  O202  1  -0.00467962  0.62623261  0.66615972  1
  O  O203  1  -0.00660747  0.62243382  0.90916186  1
  O  O204  1  0.00146738  0.87404832  0.15894706  1
  O  O205  1  -0.00373265  0.87404167  0.41404336  1
  O  O206  1  -0.00677444  0.87814840  0.66492222  1
  O  O207  1  0.00017607  0.87882444  0.91343398  1
  O  O208  1  0.24302577  0.12795091  0.15774591  1
  O  O209  1  0.25160644  0.12424136  0.40951657  1
  O  O210  1  0.24301211  0.12450654  0.66355559  1
  O  O211  1  0.24949564  0.12882813  0.90834519  1
  O  O212  1  0.24526678  0.37262244  0.16680261  1
  O  O213  1  0.24489158  0.37108873  0.40847580  1
  O  O214  1  0.25087448  0.37119847  0.65746513  1
  O  O215  1  0.25764577  0.37137657  0.91024251  1
  O  O216  1  0.25032275  0.62299880  0.16520430  1
  O  O217  1  0.24707131  0.62495050  0.41736054  1
  O  O218  1  0.25251093  0.62742328  0.65963550  1
  O  O219  1  0.25858028  0.62332149  0.91341452  1
  O  O220  1  0.24532544  0.87588739  0.16699036  1
  O  O221  1  0.24431493  0.87893272  0.40637363  1
  O  O222  1  0.25815217  0.87854258  0.66116605  1
  O  O223  1  0.25752823  0.88045917  0.91410884  1
  O  O224  1  0.50803863  0.12912556  0.15621430  1
  O  O225  1  0.50486385  0.12323968  0.40922996  1
  O  O226  1  0.51024524  0.12559721  0.66334181  1
  O  O227  1  0.50383302  0.13024445  0.91739152  1
  O  O228  1  0.50644802  0.36987963  0.16569486  1
  O  O229  1  0.50651419  0.37332818  0.41446828  1
  O  O230  1  0.50740922  0.37296348  0.66170073  1
  O  O231  1  0.49684056  0.37341842  0.91701638  1
  O  O232  1  0.49338011  0.62150041  0.16247859  1
  O  O233  1  0.50993067  0.62368296  0.40786702  1
  O  O234  1  0.50927997  0.62600887  0.66365497  1
  O  O235  1  0.49256129  0.62267063  0.91996484  1
  O  O236  1  0.50037817  0.87780515  0.16199496  1
  O  O237  1  0.50214315  0.87811004  0.41174193  1
  O  O238  1  0.49887201  0.87671748  0.66544463  1
  O  O239  1  0.49111434  0.87744944  0.91795135  1
  O  O240  1  0.75148625  0.12665781  0.16233093  1
  O  O241  1  0.74810466  0.12436536  0.41105962  1
  O  O242  1  0.74479889  0.12601330  0.66959754  1
  O  O243  1  0.74400138  0.12980253  0.91702742  1
  O  O244  1  0.74570710  0.37238277  0.16361496  1
  O  O245  1  0.75840315  0.37594582  0.41384520  1
  O  O246  1  0.74916031  0.37446380  0.67030731  1
  O  O247  1  0.74639856  0.37443313  0.91943408  1
  O  O248  1  0.74674633  0.62138545  0.15876986  1
  O  O249  1  0.75140465  0.62664285  0.41426033  1
  O  O250  1  0.74363820  0.62396191  0.67144111  1
  O  O251  1  0.74794827  0.62078954  0.91640744  1
  O  O252  1  0.75095420  0.87832601  0.15452864  1
  O  O253  1  0.75820595  0.87276254  0.41045109  1
  O  O254  1  0.75187258  0.87646353  0.66867140  1
  O  O255  1  0.74637258  0.87605533  0.91814170  1
  O  O256  1  0.12440324  0.12636818  0.04474702  1
  O  O257  1  0.11412137  0.12497573  0.28382819  1
  O  O258  1  0.12410046  0.12135215  0.54679791  1
  O  O259  1  0.12673653  0.12679131  0.79849908  1
  O  O260  1  0.12267986  0.37580285  0.03017362  1
  O  O261  1  0.11999897  0.37591074  0.30219644  1
  O  O262  1  0.11631126  0.37275379  0.53163184  1
  O  O263  1  0.12119518  0.36746595  0.78912383  1
  O  O264  1  0.13291239  0.62308952  0.04353788  1
  O  O265  1  0.13082317  0.62474958  0.28923972  1
  O  O266  1  0.11977075  0.62889804  0.53193758  1
  O  O267  1  0.12462747  0.62523972  0.78332757  1
  O  O268  1  0.13167266  0.87840083  0.02910239  1
  O  O269  1  0.12034437  0.87415829  0.29789359  1
  O  O270  1  0.12487676  0.88163620  0.53663786  1
  O  O271  1  0.12802926  0.88457032  0.78872026  1
  O  O272  1  0.37369301  0.13664795  0.03132173  1
  O  O273  1  0.37307147  0.12314814  0.29850921  1
  O  O274  1  0.37355350  0.12920146  0.53531300  1
  O  O275  1  0.38100542  0.12434074  0.80265848  1
  O  O276  1  0.37227453  0.36586692  0.04116722  1
  O  O277  1  0.38272049  0.37347490  0.28856564  1
  O  O278  1  0.37794190  0.36322692  0.52799935  1
  O  O279  1  0.38034709  0.37201523  0.79844757  1
  O  O280  1  0.37277392  0.62177142  0.04995013  1
  O  O281  1  0.36934343  0.61732288  0.28729613  1
  O  O282  1  0.37685817  0.63022855  0.53064192  1
  O  O283  1  0.37954814  0.62379265  0.79468207  1
  O  O284  1  0.37055545  0.88133108  0.04104693  1
  O  O285  1  0.38116222  0.87892648  0.27862344  1
  O  O286  1  0.37818221  0.87769873  0.54612139  1
  O  O287  1  0.37877677  0.87717931  0.79888173  1
  O  O288  1  0.62730646  0.13158008  0.04554644  1
  O  O289  1  0.62661265  0.12480428  0.29416906  1
  O  O290  1  0.63236150  0.12401835  0.54801715  1
  O  O291  1  0.62605223  0.12807820  0.80287434  1
  O  O292  1  0.62346502  0.37245589  0.05214498  1
  O  O293  1  0.63035761  0.37047273  0.28463436  1
  O  O294  1  0.63200408  0.37426243  0.54485174  1
  O  O295  1  0.62363165  0.37455905  0.80085017  1
  O  O296  1  0.61486818  0.61861478  0.03099383  1
  O  O297  1  0.62823084  0.62327949  0.29302420  1
  O  O298  1  0.63101173  0.62715581  0.54903285  1
  O  O299  1  0.62007371  0.62082609  0.80612600  1
  O  O300  1  0.61474982  0.87971707  0.02809688  1
  O  O301  1  0.62514592  0.87941151  0.28479752  1
  O  O302  1  0.62700866  0.87957686  0.53441535  1
  O  O303  1  0.61935483  0.87488313  0.79455765  1
  O  O304  1  0.87190847  0.12799320  0.04770061  1
  O  O305  1  0.88364524  0.12240215  0.28410560  1
  O  O306  1  0.86616299  0.12433821  0.53955906  1
  O  O307  1  0.87414217  0.12852068  0.79949996  1
  O  O308  1  0.87564372  0.37265312  0.03282250  1
  O  O309  1  0.87660985  0.37885803  0.29625329  1
  O  O310  1  0.87149148  0.37570918  0.55066133  1
  O  O311  1  0.86819604  0.37112975  0.80333897  1
  O  O312  1  0.86969411  0.62121344  0.02804346  1
  O  O313  1  0.87503747  0.62680514  0.29781466  1
  O  O314  1  0.86443284  0.62607067  0.53959206  1
  O  O315  1  0.86860524  0.61943810  0.80139626  1
  O  O316  1  0.87689180  0.87611605  0.02479595  1
  O  O317  1  0.87892003  0.86973975  0.29491885  1
  O  O318  1  0.87168768  0.87515341  0.55183630  1
  O  O319  1  0.86633468  0.88042804  0.79449748  1
