# generated using pymatgen
data_VFe(PbO3)2
_symmetry_space_group_name_H-M   'P 1'
_cell_length_a   15.39168511
_cell_length_b   15.37514371
_cell_length_c   18.51772749
_cell_angle_alpha   89.97605465
_cell_angle_beta   89.98137349
_cell_angle_gamma   89.98924530
_symmetry_Int_Tables_number   1
_chemical_formula_structural   VFe(PbO3)2
_chemical_formula_sum   'V32 Fe32 Pb64 O192'
_cell_volume   4382.20786362
_cell_formula_units_Z   32
loop_
 _symmetry_equiv_pos_site_id
 _symmetry_equiv_pos_as_xyz
  1  'x, y, z'
loop_
 _atom_site_type_symbol
 _atom_site_label
 _atom_site_symmetry_multiplicity
 _atom_site_fract_x
 _atom_site_fract_y
 _atom_site_fract_z
 _atom_site_occupancy
  V  V0  1  0.87261093  0.12593253  0.38761146  1
  V  V1  1  0.37334706  0.62327479  0.88657500  1
  V  V2  1  0.12541402  0.37300177  0.89198330  1
  V  V3  1  0.37559729  0.37522731  0.14629694  1
  V  V4  1  0.12798527  0.62600106  0.64012351  1
  V  V5  1  0.12306654  0.12077103  0.13783518  1
  V  V6  1  0.62692461  0.12229438  0.13880031  1
  V  V7  1  0.87402410  0.87193743  0.63773496  1
  V  V8  1  0.12604368  0.37503377  0.63653159  1
  V  V9  1  0.62366554  0.37493129  0.14321854  1
  V  V10  1  0.87565594  0.37829098  0.64123548  1
  V  V11  1  0.37596618  0.62708128  0.14599783  1
  V  V12  1  0.12384374  0.12103433  0.88853972  1
  V  V13  1  0.87611353  0.62489167  0.88769980  1
  V  V14  1  0.87464117  0.62469363  0.38752671  1
  V  V15  1  0.12661974  0.87213436  0.14195851  1
  V  V16  1  0.12766841  0.12776518  0.64205956  1
  V  V17  1  0.62413475  0.62479116  0.63649561  1
  V  V18  1  0.37510548  0.87870231  0.38467136  1
  V  V19  1  0.87705987  0.87379030  0.88739351  1
  V  V20  1  0.12396095  0.12580257  0.38881925  1
  V  V21  1  0.87425409  0.87610021  0.14451897  1
  V  V22  1  0.62320051  0.87190235  0.14205603  1
  V  V23  1  0.37431657  0.12399136  0.64426150  1
  V  V24  1  0.12139817  0.37722346  0.38814752  1
  V  V25  1  0.62666865  0.62205004  0.15183220  1
  V  V26  1  0.37439023  0.87190134  0.64066026  1
  V  V27  1  0.87242229  0.62574912  0.14476144  1
  V  V28  1  0.12556718  0.87863995  0.64118335  1
  V  V29  1  0.12320792  0.62227780  0.14674405  1
  V  V30  1  0.37375441  0.37755866  0.64013502  1
  V  V31  1  0.12659572  0.37185906  0.14092578  1
  Fe  Fe32  1  0.62745399  0.87735278  0.38735455  1
  Fe  Fe33  1  0.12378559  0.87196500  0.88545023  1
  Fe  Fe34  1  0.87431887  0.37544534  0.14020960  1
  Fe  Fe35  1  0.37282514  0.12621612  0.88317734  1
  Fe  Fe36  1  0.62831895  0.37250274  0.38533312  1
  Fe  Fe37  1  0.12316085  0.62610939  0.37993373  1
  Fe  Fe38  1  0.87419066  0.12397916  0.13536874  1
  Fe  Fe39  1  0.62415548  0.37536743  0.63620441  1
  Fe  Fe40  1  0.62436335  0.87471838  0.63536295  1
  Fe  Fe41  1  0.37392697  0.37206714  0.38099652  1
  Fe  Fe42  1  0.87709299  0.37743838  0.88232728  1
  Fe  Fe43  1  0.62517569  0.12406266  0.87688292  1
  Fe  Fe44  1  0.87805243  0.37240135  0.38415314  1
  Fe  Fe45  1  0.37367664  0.12412032  0.38094886  1
  Fe  Fe46  1  0.12253086  0.87682566  0.38260129  1
  Fe  Fe47  1  0.62408646  0.37739852  0.88002763  1
  Fe  Fe48  1  0.37629589  0.12528254  0.14105785  1
  Fe  Fe49  1  0.37183287  0.87357366  0.88483761  1
  Fe  Fe50  1  0.62613644  0.62584832  0.37725880  1
  Fe  Fe51  1  0.37465158  0.62573857  0.63017376  1
  Fe  Fe52  1  0.87656262  0.87828406  0.38332459  1
  Fe  Fe53  1  0.87837769  0.12508805  0.87823981  1
  Fe  Fe54  1  0.37406992  0.62547141  0.38774892  1
  Fe  Fe55  1  0.62454969  0.87214580  0.88232803  1
  Fe  Fe56  1  0.87596131  0.62683263  0.63390271  1
  Fe  Fe57  1  0.37272454  0.37682395  0.88350485  1
  Fe  Fe58  1  0.12411505  0.62250927  0.88634611  1
  Fe  Fe59  1  0.62365538  0.12465109  0.38327907  1
  Fe  Fe60  1  0.87932141  0.12350874  0.64541799  1
  Fe  Fe61  1  0.62426039  0.62601483  0.88492218  1
  Fe  Fe62  1  0.37505644  0.87438305  0.13642376  1
  Fe  Fe63  1  0.62551101  0.12417889  0.64264002  1
  Pb  Pb64  1  -0.00435636  0.00619179  0.00089071  1
  Pb  Pb65  1  -0.00000456  -0.00925792  0.25299325  1
  Pb  Pb66  1  -0.00713677  0.00372477  0.50231964  1
  Pb  Pb67  1  0.00154633  -0.00043385  0.75161105  1
  Pb  Pb68  1  -0.01354639  0.25107556  0.00130626  1
  Pb  Pb69  1  -0.00880605  0.25253153  0.24810971  1
  Pb  Pb70  1  -0.00737421  0.24179954  0.50473003  1
  Pb  Pb71  1  -0.00784463  0.25389935  0.75340374  1
  Pb  Pb72  1  -0.00578695  0.49391961  0.00411467  1
  Pb  Pb73  1  -0.00121467  0.49986868  0.25287194  1
  Pb  Pb74  1  -0.00764644  0.50654168  0.50070765  1
  Pb  Pb75  1  0.00233373  0.50094246  0.75074683  1
  Pb  Pb76  1  0.00347152  0.74888941  0.00034075  1
  Pb  Pb77  1  0.00369363  0.75469162  0.25478580  1
  Pb  Pb78  1  -0.00024387  0.75041482  0.49409386  1
  Pb  Pb79  1  0.01193661  0.74801920  0.75085249  1
  Pb  Pb80  1  0.26374637  -0.00445388  0.00305279  1
  Pb  Pb81  1  0.25699192  0.00199186  0.24881951  1
  Pb  Pb82  1  0.25033650  -0.00373892  0.49662467  1
  Pb  Pb83  1  0.25917706  -0.00193059  0.75714289  1
  Pb  Pb84  1  0.25725457  0.24294424  0.00280820  1
  Pb  Pb85  1  0.25946848  0.24956417  0.25334397  1
  Pb  Pb86  1  0.25237393  0.25070456  0.49617623  1
  Pb  Pb87  1  0.25996424  0.25164354  0.75520670  1
  Pb  Pb88  1  0.24722059  0.50073488  0.00045168  1
  Pb  Pb89  1  0.25548071  0.50285844  0.25736609  1
  Pb  Pb90  1  0.25684013  0.50669452  0.49565510  1
  Pb  Pb91  1  0.25102865  0.50059076  0.74987560  1
  Pb  Pb92  1  0.25029885  0.75425275  -0.00112013  1
  Pb  Pb93  1  0.24750748  0.74274422  0.25467555  1
  Pb  Pb94  1  0.24980836  0.74650407  0.49384532  1
  Pb  Pb95  1  0.25011034  0.75860855  0.75411172  1
  Pb  Pb96  1  0.49538961  0.00119570  -0.00971870  1
  Pb  Pb97  1  0.50410775  0.00432272  0.25016948  1
  Pb  Pb98  1  0.51141464  0.00648467  0.50058551  1
  Pb  Pb99  1  0.50600457  -0.00137455  0.75251172  1
  Pb  Pb100  1  0.49852107  0.24583918  -0.01066671  1
  Pb  Pb101  1  0.50978058  0.24855627  0.25556926  1
  Pb  Pb102  1  0.50430603  0.24876546  0.49322591  1
  Pb  Pb103  1  0.50616764  0.25086623  0.75065915  1
  Pb  Pb104  1  0.50339650  0.49678589  -0.00374018  1
  Pb  Pb105  1  0.49506885  0.49887603  0.25916967  1
  Pb  Pb106  1  0.50264152  0.49664910  0.48786582  1
  Pb  Pb107  1  0.50812952  0.49945761  0.74956971  1
  Pb  Pb108  1  0.49686845  0.75576953  -0.00343237  1
  Pb  Pb109  1  0.50114312  0.74302461  0.25717744  1
  Pb  Pb110  1  0.50297042  0.74805615  0.49244020  1
  Pb  Pb111  1  0.50709196  0.74939157  0.75145540  1
  Pb  Pb112  1  0.74968413  0.00766643  -0.00903046  1
  Pb  Pb113  1  0.74608970  -0.00473452  0.25451000  1
  Pb  Pb114  1  0.74092821  0.00306552  0.50463910  1
  Pb  Pb115  1  0.74567407  0.00606337  0.74783096  1
  Pb  Pb116  1  0.75244829  0.25021944  -0.01367101  1
  Pb  Pb117  1  0.74500219  0.25054350  0.25150646  1
  Pb  Pb118  1  0.73872586  0.25112346  0.50367963  1
  Pb  Pb119  1  0.74562351  0.24897266  0.74754559  1
  Pb  Pb120  1  0.75069592  0.49310598  -0.00296948  1
  Pb  Pb121  1  0.74827283  0.48824685  0.25753512  1
  Pb  Pb122  1  0.74529389  0.49431654  0.49486549  1
  Pb  Pb123  1  0.74783569  0.49632512  0.74966655  1
  Pb  Pb124  1  0.74784998  0.74950909  -0.00087322  1
  Pb  Pb125  1  0.74694986  0.75770805  0.25764889  1
  Pb  Pb126  1  0.74786629  0.75540570  0.49437674  1
  Pb  Pb127  1  0.74040858  0.74855194  0.74969298  1
  O  O128  1  0.12322306  0.00304539  0.15958624  1
  O  O129  1  0.12279978  0.00752180  0.41339051  1
  O  O130  1  0.12835395  0.00328437  0.66583685  1
  O  O131  1  0.12060918  0.00492732  0.90792320  1
  O  O132  1  0.12448607  0.25481775  0.16098107  1
  O  O133  1  0.12288898  0.24571792  0.41550490  1
  O  O134  1  0.12731443  0.24812807  0.66337107  1
  O  O135  1  0.12251921  0.25427193  0.91418021  1
  O  O136  1  0.12591108  0.49876118  0.16834453  1
  O  O137  1  0.12194840  0.49352687  0.40663211  1
  O  O138  1  0.12775536  0.50020000  0.66329356  1
  O  O139  1  0.12466559  0.49560935  0.91898852  1
  O  O140  1  0.12323621  0.74736248  0.16579075  1
  O  O141  1  0.12354150  0.75085513  0.41115144  1
  O  O142  1  0.12749871  0.74700894  0.66098438  1
  O  O143  1  0.12186522  0.74655311  0.91967779  1
  O  O144  1  0.37383039  -0.00109121  0.16593062  1
  O  O145  1  0.37052359  -0.00415562  0.41228940  1
  O  O146  1  0.36862743  0.00181486  0.66526551  1
  O  O147  1  0.36940333  0.00115472  0.91186856  1
  O  O148  1  0.37238400  0.25378968  0.16567800  1
  O  O149  1  0.36864503  0.24856380  0.41291776  1
  O  O150  1  0.36959284  0.24864162  0.66414550  1
  O  O151  1  0.36948885  0.25146789  0.91476465  1
  O  O152  1  0.37559093  0.50302768  0.17092354  1
  O  O153  1  0.37108160  0.49610905  0.41130033  1
  O  O154  1  0.37020633  0.49529964  0.65775394  1
  O  O155  1  0.37203172  0.50534159  0.91526430  1
  O  O156  1  0.37644779  0.74554708  0.16621973  1
  O  O157  1  0.37188153  0.75991114  0.41016669  1
  O  O158  1  0.37033979  0.75481307  0.65756930  1
  O  O159  1  0.37178676  0.74124857  0.91248456  1
  O  O160  1  0.62689729  0.00081740  0.16097810  1
  O  O161  1  0.62736650  0.00203640  0.41628055  1
  O  O162  1  0.62271089  -0.00342195  0.66687390  1
  O  O163  1  0.62791040  -0.00300329  0.90931563  1
  O  O164  1  0.62403672  0.25166354  0.16135234  1
  O  O165  1  0.62843048  0.24699929  0.41579567  1
  O  O166  1  0.62349437  0.25193040  0.66453484  1
  O  O167  1  0.62648286  0.25061908  0.90789216  1
  O  O168  1  0.62375801  0.49568859  0.16952966  1
  O  O169  1  0.62839740  0.50123747  0.40645860  1
  O  O170  1  0.62378986  0.50510991  0.66067320  1
  O  O171  1  0.62528651  0.50344392  0.91687403  1
  O  O172  1  0.62600677  0.75504813  0.16588919  1
  O  O173  1  0.62699018  0.74996186  0.41091186  1
  O  O174  1  0.62286329  0.74577375  0.66144733  1
  O  O175  1  0.62750023  0.74840037  0.91986005  1
  O  O176  1  0.87505048  -0.00246097  0.16520293  1
  O  O177  1  0.88195146  0.00951459  0.41228175  1
  O  O178  1  0.88201915  -0.01145661  0.66613804  1
  O  O179  1  0.87995101  -0.00707019  0.90798772  1
  O  O180  1  0.87679793  0.24928586  0.16338423  1
  O  O181  1  0.88190725  0.24280107  0.41446521  1
  O  O182  1  0.88147817  0.25856886  0.66315283  1
  O  O183  1  0.88020349  0.25077859  0.90823534  1
  O  O184  1  0.87360734  0.50693535  0.16768639  1
  O  O185  1  0.87903985  0.50344735  0.41176079  1
  O  O186  1  0.87968493  0.49820446  0.66399342  1
  O  O187  1  0.87683224  0.50708768  0.91261277  1
  O  O188  1  0.87385588  0.74759025  0.16923253  1
  O  O189  1  0.87776261  0.74413496  0.40887969  1
  O  O190  1  0.88155984  0.75516627  0.66263792  1
  O  O191  1  0.87675067  0.74861529  0.91507424  1
  O  O192  1  0.00805360  0.12730366  0.16476325  1
  O  O193  1  0.00354036  0.12637991  0.41681031  1
  O  O194  1  0.01192405  0.12458047  0.66787229  1
  O  O195  1  0.00625129  0.12641058  0.91522717  1
  O  O196  1  0.00815962  0.37932068  0.16485696  1
  O  O197  1  0.00580856  0.37105455  0.41620174  1
  O  O198  1  0.00388967  0.37728529  0.66475823  1
  O  O199  1  0.00616697  0.37883055  0.91689447  1
  O  O200  1  -0.00542898  0.62513914  0.16649164  1
  O  O201  1  -0.00286186  0.62386424  0.41240294  1
  O  O202  1  0.00859612  0.62361933  0.66288442  1
  O  O203  1  -0.00737470  0.62526461  0.91636458  1
  O  O204  1  0.00075181  0.87365755  0.16670680  1
  O  O205  1  -0.00107784  0.87678791  0.41636494  1
  O  O206  1  0.00428048  0.87354533  0.66364847  1
  O  O207  1  -0.00595955  0.87119266  0.91658738  1
  O  O208  1  0.23855150  0.12798528  0.16438676  1
  O  O209  1  0.24226385  0.12451537  0.41273000  1
  O  O210  1  0.24680120  0.12566974  0.66776210  1
  O  O211  1  0.23841950  0.12847335  0.91542435  1
  O  O212  1  0.24508806  0.37832643  0.16644460  1
  O  O213  1  0.23841241  0.37075487  0.41290190  1
  O  O214  1  0.24982306  0.37412442  0.66577711  1
  O  O215  1  0.24290062  0.37695518  0.91811043  1
  O  O216  1  0.25384661  0.62462345  0.16660840  1
  O  O217  1  0.24652992  0.62477005  0.41221490  1
  O  O218  1  0.24570236  0.62370115  0.66260136  1
  O  O219  1  0.25421955  0.62296509  0.91456811  1
  O  O220  1  0.24553617  0.87277914  0.16354855  1
  O  O221  1  0.25254461  0.87850259  0.41138802  1
  O  O222  1  0.25039031  0.87562533  0.66678770  1
  O  O223  1  0.24637573  0.87217868  0.91702959  1
  O  O224  1  0.50847389  0.12578454  0.16221028  1
  O  O225  1  0.49721670  0.12441021  0.41044720  1
  O  O226  1  0.48947024  0.12432803  0.66306692  1
  O  O227  1  0.49930349  0.12467699  0.90781285  1
  O  O228  1  0.50293621  0.37601660  0.16778288  1
  O  O229  1  0.49975523  0.37252125  0.40778800  1
  O  O230  1  0.49053398  0.37417320  0.65919896  1
  O  O231  1  0.49802967  0.37804964  0.91327916  1
  O  O232  1  0.49648737  0.62434404  0.16938595  1
  O  O233  1  0.50069075  0.62673681  0.40877986  1
  O  O234  1  0.50298519  0.62507356  0.65949449  1
  O  O235  1  0.49161599  0.62497728  0.91252619  1
  O  O236  1  0.50707286  0.87659713  0.16245430  1
  O  O237  1  0.49188275  0.87725809  0.40828751  1
  O  O238  1  0.49049253  0.87669099  0.66039924  1
  O  O239  1  0.49841220  0.87144751  0.91170845  1
  O  O240  1  0.74361972  0.12607262  0.16176560  1
  O  O241  1  0.75866417  0.12533847  0.40630867  1
  O  O242  1  0.75398158  0.12366961  0.66466105  1
  O  O243  1  0.75359754  0.12236881  0.90500608  1
  O  O244  1  0.74347782  0.37616299  0.16303314  1
  O  O245  1  0.75601214  0.37294618  0.41537530  1
  O  O246  1  0.75794483  0.37813619  0.66015071  1
  O  O247  1  0.75118880  0.37904237  0.91102802  1
  O  O248  1  0.75430084  0.62661431  0.17024514  1
  O  O249  1  0.75686239  0.62487058  0.40700394  1
  O  O250  1  0.74482610  0.62570153  0.65957764  1
  O  O251  1  0.75902798  0.62670015  0.91392235  1
  O  O252  1  0.74644857  0.87554983  0.16783816  1
  O  O253  1  0.75508028  0.87690930  0.41572582  1
  O  O254  1  0.75810076  0.87216448  0.65836261  1
  O  O255  1  0.76041561  0.87156564  0.91351511  1
  O  O256  1  0.12200275  0.12329166  0.04670207  1
  O  O257  1  0.12217804  0.12710653  0.29800397  1
  O  O258  1  0.12758001  0.12562767  0.55107077  1
  O  O259  1  0.12411768  0.12636154  0.79767415  1
  O  O260  1  0.12729260  0.37630489  0.05009959  1
  O  O261  1  0.12043675  0.37172189  0.29704854  1
  O  O262  1  0.12592554  0.37578176  0.54611029  1
  O  O263  1  0.12606347  0.37666736  0.80082630  1
  O  O264  1  0.12428958  0.62161573  0.05528560  1
  O  O265  1  0.12606225  0.62799490  0.27962177  1
  O  O266  1  0.12665239  0.62444616  0.54897314  1
  O  O267  1  0.12153972  0.62270134  0.78705967  1
  O  O268  1  0.12120091  0.87237802  0.05058701  1
  O  O269  1  0.11609027  0.87741426  0.28230264  1
  O  O270  1  0.12851552  0.87900192  0.55013885  1
  O  O271  1  0.12507609  0.86420364  0.78519708  1
  O  O272  1  0.36847872  0.12505469  0.04068554  1
  O  O273  1  0.36744405  0.12341339  0.28008688  1
  O  O274  1  0.36937073  0.12351551  0.55356484  1
  O  O275  1  0.36478280  0.12592185  0.78295146  1
  O  O276  1  0.37406664  0.38028921  0.05531353  1
  O  O277  1  0.36894679  0.37719996  0.28043827  1
  O  O278  1  0.36852291  0.37098299  0.54937028  1
  O  O279  1  0.36627805  0.37652002  0.78389380  1
  O  O280  1  0.37651428  0.62356945  0.05545011  1
  O  O281  1  0.37283487  0.62684678  0.28630272  1
  O  O282  1  0.36820733  0.62607249  0.53068690  1
  O  O283  1  0.37245041  0.62156379  0.79531139  1
  O  O284  1  0.37194813  0.87423890  0.03654299  1
  O  O285  1  0.37299935  0.87961381  0.29328452  1
  O  O286  1  0.36979636  0.87968775  0.55012372  1
  O  O287  1  0.36499698  0.87320128  0.78424777  1
  O  O288  1  0.62797139  0.12228662  0.04804818  1
  O  O289  1  0.62319058  0.12822802  0.28225257  1
  O  O290  1  0.62463450  0.11884331  0.54058005  1
  O  O291  1  0.62207150  0.12337037  0.77524870  1
  O  O292  1  0.62115212  0.37882689  0.05249906  1
  O  O293  1  0.63218444  0.36532607  0.28356876  1
  O  O294  1  0.63158350  0.37382522  0.53584425  1
  O  O295  1  0.62304855  0.38463852  0.77833287  1
  O  O296  1  0.62652734  0.62359487  0.06072915  1
  O  O297  1  0.62115350  0.63165231  0.27563172  1
  O  O298  1  0.62364531  0.62636709  0.54559946  1
  O  O299  1  0.62224372  0.62936981  0.78466243  1
  O  O300  1  0.62833715  0.87153548  0.05125255  1
  O  O301  1  0.63169946  0.88117332  0.28600884  1
  O  O302  1  0.62728679  0.87891839  0.53493594  1
  O  O303  1  0.62393812  0.86166814  0.78154378  1
  O  O304  1  0.88220198  0.12012554  0.03553331  1
  O  O305  1  0.87959085  0.12734289  0.29610785  1
  O  O306  1  0.88799041  0.12243964  0.54482835  1
  O  O307  1  0.88705706  0.12320598  0.77738456  1
  O  O308  1  0.88072705  0.38069930  0.03982277  1
  O  O309  1  0.87766431  0.37666745  0.28344749  1
  O  O310  1  0.88027748  0.37946390  0.55001181  1
  O  O311  1  0.88177969  0.37988619  0.78279380  1
  O  O312  1  0.87145776  0.62675059  0.05394414  1
  O  O313  1  0.87818178  0.62249754  0.29644552  1
  O  O314  1  0.88129108  0.62309401  0.53527523  1
  O  O315  1  0.87719479  0.62599697  0.79658225  1
  O  O316  1  0.87346846  0.87276247  0.05356611  1
  O  O317  1  0.87520836  0.87853181  0.28256759  1
  O  O318  1  0.87795772  0.87490970  0.54645953  1
  O  O319  1  0.87833358  0.86985348  0.79692029  1
