# generated using pymatgen
data_VFe(PbO3)2
_symmetry_space_group_name_H-M   'P 1'
_cell_length_a   15.38509512
_cell_length_b   15.39516541
_cell_length_c   18.51482496
_cell_angle_alpha   89.94233173
_cell_angle_beta   89.97269941
_cell_angle_gamma   90.02200343
_symmetry_Int_Tables_number   1
_chemical_formula_structural   VFe(PbO3)2
_chemical_formula_sum   'V32 Fe32 Pb64 O192'
_cell_volume   4385.34589614
_cell_formula_units_Z   32
loop_
 _symmetry_equiv_pos_site_id
 _symmetry_equiv_pos_as_xyz
  1  'x, y, z'
loop_
 _atom_site_type_symbol
 _atom_site_label
 _atom_site_symmetry_multiplicity
 _atom_site_fract_x
 _atom_site_fract_y
 _atom_site_fract_z
 _atom_site_occupancy
  V  V0  1  0.37485677  0.37583708  0.14711560  1
  V  V1  1  0.87651902  0.12880089  0.64381536  1
  V  V2  1  0.62635151  0.87463885  0.38830595  1
  V  V3  1  0.37117293  0.36493591  0.63419009  1
  V  V4  1  0.87369368  0.37659795  0.89293827  1
  V  V5  1  0.12416165  0.62701170  0.38287852  1
  V  V6  1  0.62622676  0.62608351  0.38971941  1
  V  V7  1  0.87301158  0.87792747  0.39079875  1
  V  V8  1  0.12908389  0.87205322  0.13431873  1
  V  V9  1  0.62363472  0.87495318  0.89103328  1
  V  V10  1  0.12608527  0.87381862  0.89453629  1
  V  V11  1  0.62366615  0.62468462  0.13967257  1
  V  V12  1  0.87746910  0.37472403  0.63914635  1
  V  V13  1  0.12420929  0.62458088  0.63718328  1
  V  V14  1  0.37250444  0.87212132  0.89710221  1
  V  V15  1  0.62454980  0.62272524  0.88828149  1
  V  V16  1  0.12524890  0.87753138  0.64069722  1
  V  V17  1  0.62484453  0.37560577  0.14139187  1
  V  V18  1  0.37335445  0.37065857  0.89288158  1
  V  V19  1  0.12205134  0.87309539  0.38496512  1
  V  V20  1  0.37751831  0.12446616  0.14150161  1
  V  V21  1  0.87341309  0.62478624  0.14045778  1
  V  V22  1  0.87588733  0.87782140  0.64634939  1
  V  V23  1  0.12623989  0.37726140  0.89639452  1
  V  V24  1  0.12455365  0.62411544  0.89966225  1
  V  V25  1  0.37516195  0.62236907  0.89360413  1
  V  V26  1  0.37501745  0.62348513  0.63718043  1
  V  V27  1  0.87561322  0.62520256  0.88970865  1
  V  V28  1  0.37385131  0.11771488  0.63511611  1
  V  V29  1  0.87359133  0.87657707  0.13303355  1
  V  V30  1  0.87408464  0.12778393  0.38387479  1
  V  V31  1  0.37491788  0.12173272  0.89363142  1
  Fe  Fe32  1  0.37537872  0.87241213  0.38265031  1
  Fe  Fe33  1  0.12500710  0.12327087  0.13577451  1
  Fe  Fe34  1  0.12430504  0.62791430  0.13360034  1
  Fe  Fe35  1  0.12286251  0.11955169  0.37728975  1
  Fe  Fe36  1  0.37952473  0.87544778  0.13454119  1
  Fe  Fe37  1  0.62534310  0.12384271  0.63711842  1
  Fe  Fe38  1  0.12240078  0.37341339  0.37324535  1
  Fe  Fe39  1  0.37637402  0.62363441  0.14126847  1
  Fe  Fe40  1  0.87216031  0.37609361  0.13778666  1
  Fe  Fe41  1  0.12416590  0.12524262  0.63694138  1
  Fe  Fe42  1  0.87622505  0.87236117  0.88628245  1
  Fe  Fe43  1  0.12902980  0.12646184  0.89843984  1
  Fe  Fe44  1  0.62783904  0.87172623  0.13198376  1
  Fe  Fe45  1  0.62110637  0.37960150  0.88557860  1
  Fe  Fe46  1  0.87301244  0.12659655  0.12591905  1
  Fe  Fe47  1  0.62313757  0.87653267  0.63786267  1
  Fe  Fe48  1  0.37075193  0.87370599  0.63489407  1
  Fe  Fe49  1  0.37612931  0.12227652  0.37809650  1
  Fe  Fe50  1  0.62608173  0.37289653  0.63759416  1
  Fe  Fe51  1  0.12428314  0.37278415  0.63567623  1
  Fe  Fe52  1  0.62499558  0.12524922  0.13167430  1
  Fe  Fe53  1  0.37604566  0.62738550  0.38031163  1
  Fe  Fe54  1  0.87428508  0.62952414  0.39179258  1
  Fe  Fe55  1  0.62643844  0.62609380  0.63346352  1
  Fe  Fe56  1  0.62109642  0.12872406  0.89501533  1
  Fe  Fe57  1  0.62872803  0.12088759  0.38228329  1
  Fe  Fe58  1  0.87596632  0.12425022  0.89583365  1
  Fe  Fe59  1  0.37628489  0.37493635  0.37806690  1
  Fe  Fe60  1  0.12500783  0.37707880  0.14312979  1
  Fe  Fe61  1  0.87851597  0.62500572  0.63078966  1
  Fe  Fe62  1  0.87476799  0.37572167  0.37745745  1
  Fe  Fe63  1  0.62808970  0.37327352  0.38237741  1
  Pb  Pb64  1  -0.00300999  0.00996835  0.00012455  1
  Pb  Pb65  1  0.00045916  0.00581175  0.24231303  1
  Pb  Pb66  1  0.00566431  0.00628704  0.49999750  1
  Pb  Pb67  1  -0.00753486  0.00510572  0.76212500  1
  Pb  Pb68  1  -0.00233497  0.25371341  0.00563372  1
  Pb  Pb69  1  -0.00055638  0.25240763  0.23818784  1
  Pb  Pb70  1  0.01555565  0.25424984  0.49365135  1
  Pb  Pb71  1  0.00131025  0.24028166  0.75737095  1
  Pb  Pb72  1  0.00053698  0.48883324  0.01178526  1
  Pb  Pb73  1  -0.00128904  0.49232761  0.24853398  1
  Pb  Pb74  1  -0.00312116  0.49733331  0.49024193  1
  Pb  Pb75  1  0.00117480  0.49959681  0.74789705  1
  Pb  Pb76  1  0.00350068  0.74534857  0.00251410  1
  Pb  Pb77  1  -0.00765767  0.74591682  0.25032134  1
  Pb  Pb78  1  -0.00397881  0.74777497  0.50131465  1
  Pb  Pb79  1  -0.00251959  0.75482625  0.75165702  1
  Pb  Pb80  1  0.24827443  0.00300980  0.00751294  1
  Pb  Pb81  1  0.25447865  0.00930304  0.25196701  1
  Pb  Pb82  1  0.25421649  0.00084261  0.49230527  1
  Pb  Pb83  1  0.24155845  0.00467405  0.75376980  1
  Pb  Pb84  1  0.23776983  0.25509873  0.01303959  1
  Pb  Pb85  1  0.24435988  0.24658679  0.25072408  1
  Pb  Pb86  1  0.24590358  0.24626454  0.48316959  1
  Pb  Pb87  1  0.24021309  0.24303849  0.75349895  1
  Pb  Pb88  1  0.24613484  0.50272819  0.01025223  1
  Pb  Pb89  1  0.24671024  0.50490964  0.24661589  1
  Pb  Pb90  1  0.24818480  0.49159256  0.48790700  1
  Pb  Pb91  1  0.25007004  0.50024288  0.74838997  1
  Pb  Pb92  1  0.25631875  0.74002468  0.00902542  1
  Pb  Pb93  1  0.26215801  0.75041686  0.24776035  1
  Pb  Pb94  1  0.25789277  0.75482508  0.49663043  1
  Pb  Pb95  1  0.24720482  0.74945379  0.74992579  1
  Pb  Pb96  1  0.50237737  -0.01210280  0.00718221  1
  Pb  Pb97  1  0.50361163  0.00318837  0.24585261  1
  Pb  Pb98  1  0.49872634  0.00178505  0.49408657  1
  Pb  Pb99  1  0.50421842  0.00001816  0.74846790  1
  Pb  Pb100  1  0.50556455  0.24851911  0.00379087  1
  Pb  Pb101  1  0.49704728  0.25029461  0.25511062  1
  Pb  Pb102  1  0.50479465  0.24704926  0.48804450  1
  Pb  Pb103  1  0.51433497  0.24672171  0.75683633  1
  Pb  Pb104  1  0.49175006  0.50688784  0.00386142  1
  Pb  Pb105  1  0.50185400  0.49256198  0.25636050  1
  Pb  Pb106  1  0.50165926  0.49502640  0.49338430  1
  Pb  Pb107  1  0.50302138  0.49433810  0.74639656  1
  Pb  Pb108  1  0.49661591  0.75311882  0.00655908  1
  Pb  Pb109  1  0.49183791  0.75575706  0.24874580  1
  Pb  Pb110  1  0.50540357  0.75236262  0.50111238  1
  Pb  Pb111  1  0.50068194  0.75226302  0.74652658  1
  Pb  Pb112  1  0.74997522  0.00797731  -0.00218006  1
  Pb  Pb113  1  0.74189646  0.00936370  0.24201842  1
  Pb  Pb114  1  0.74211564  0.00127624  0.50540573  1
  Pb  Pb115  1  0.75587549  0.00548592  0.75754112  1
  Pb  Pb116  1  0.74659503  0.24414845  0.00142733  1
  Pb  Pb117  1  0.74923264  0.25056113  0.24454535  1
  Pb  Pb118  1  0.73800459  0.25403826  0.49822224  1
  Pb  Pb119  1  0.74342482  0.24274466  0.75688697  1
  Pb  Pb120  1  0.75549552  0.49634321  0.00192990  1
  Pb  Pb121  1  0.75239104  0.49457391  0.25613783  1
  Pb  Pb122  1  0.74968102  0.49646194  0.49597883  1
  Pb  Pb123  1  0.74604748  0.49857072  0.74389055  1
  Pb  Pb124  1  0.74322508  0.75249060  -0.00175666  1
  Pb  Pb125  1  0.75486257  0.74397973  0.25213603  1
  Pb  Pb126  1  0.74242477  0.74951520  0.50739070  1
  Pb  Pb127  1  0.75037936  0.74715039  0.74605293  1
  O  O128  1  0.12157987  -0.01205946  0.15989533  1
  O  O129  1  0.12006472  -0.00888747  0.41035221  1
  O  O130  1  0.12705600  -0.00143386  0.66810679  1
  O  O131  1  0.13146716  -0.00800518  0.91714611  1
  O  O132  1  0.12776196  0.24802091  0.15987241  1
  O  O133  1  0.12112222  0.24613371  0.40106280  1
  O  O134  1  0.12579752  0.24981558  0.67104460  1
  O  O135  1  0.12841399  0.25737531  0.92073942  1
  O  O136  1  0.12500365  0.50502073  0.16234525  1
  O  O137  1  0.12175943  0.50955129  0.40101721  1
  O  O138  1  0.12455854  0.50112775  0.66635255  1
  O  O139  1  0.12775026  0.49971938  0.92190435  1
  O  O140  1  0.11791321  0.75807140  0.16161141  1
  O  O141  1  0.12142584  0.75440456  0.41227291  1
  O  O142  1  0.12377400  0.74990517  0.66855962  1
  O  O143  1  0.12888528  0.75330439  0.91939526  1
  O  O144  1  0.37677239  0.00507587  0.15756402  1
  O  O145  1  0.37409563  -0.00422396  0.41162516  1
  O  O146  1  0.37131392  0.00384161  0.66280655  1
  O  O147  1  0.37576116  0.00310967  0.91615508  1
  O  O148  1  0.37911971  0.25141227  0.16574785  1
  O  O149  1  0.37626476  0.24852117  0.40812021  1
  O  O150  1  0.37018936  0.25138887  0.64795445  1
  O  O151  1  0.37390928  0.25453889  0.91546909  1
  O  O152  1  0.37915339  0.49398714  0.16545862  1
  O  O153  1  0.37539560  0.50350242  0.41072125  1
  O  O154  1  0.36992149  0.50772473  0.66426637  1
  O  O155  1  0.37198368  0.49856147  0.91904769  1
  O  O156  1  0.37742365  0.75067807  0.16063742  1
  O  O157  1  0.37422986  0.74917921  0.41568665  1
  O  O158  1  0.36917692  0.74180789  0.66453923  1
  O  O159  1  0.37531839  0.74702651  0.91781973  1
  O  O160  1  0.62607578  -0.00133616  0.15606001  1
  O  O161  1  0.63170567  -0.00879194  0.41268119  1
  O  O162  1  0.62447869  0.00102151  0.67037155  1
  O  O163  1  0.62018717  -0.00789900  0.90915762  1
  O  O164  1  0.62430535  0.25825342  0.15810946  1
  O  O165  1  0.62982595  0.24630829  0.40815180  1
  O  O166  1  0.62388226  0.24864917  0.66817946  1
  O  O167  1  0.62135655  0.25789373  0.91768792  1
  O  O168  1  0.62740219  0.50376121  0.16682302  1
  O  O169  1  0.62727699  0.50844232  0.40831330  1
  O  O170  1  0.62382381  0.49936990  0.66398537  1
  O  O171  1  0.62330720  0.50466135  0.91607455  1
  O  O172  1  0.62974091  0.74094075  0.16157542  1
  O  O173  1  0.62868093  0.75482840  0.41493595  1
  O  O174  1  0.62566931  0.75043203  0.66959918  1
  O  O175  1  0.62168802  0.74694769  0.91542496  1
  O  O176  1  0.87260705  -0.00759400  0.15030358  1
  O  O177  1  0.87557919  -0.00721943  0.41819993  1
  O  O178  1  0.87835897  0.00173039  0.66968482  1
  O  O179  1  0.87477360  -0.00582811  0.91669739  1
  O  O180  1  0.87235426  0.24996551  0.15696364  1
  O  O181  1  0.87487234  0.24139838  0.39885636  1
  O  O182  1  0.87713501  0.24742723  0.66700842  1
  O  O183  1  0.87815244  0.26106587  0.91203442  1
  O  O184  1  0.87126823  0.50901501  0.16203774  1
  O  O185  1  0.87562433  0.50292733  0.41031267  1
  O  O186  1  0.87822335  0.49317449  0.66008993  1
  O  O187  1  0.87781807  0.50228917  0.91982350  1
  O  O188  1  0.87246485  0.74825451  0.16392022  1
  O  O189  1  0.87687219  0.76101381  0.41852331  1
  O  O190  1  0.88001738  0.75677045  0.66378463  1
  O  O191  1  0.87562415  0.74533468  0.91480347  1
  O  O192  1  -0.00240765  0.12008645  0.15511162  1
  O  O193  1  -0.00892321  0.11603575  0.40900910  1
  O  O194  1  -0.00477268  0.12490754  0.66933951  1
  O  O195  1  0.00371046  0.12662755  0.91718508  1
  O  O196  1  -0.00280664  0.37895288  0.16027589  1
  O  O197  1  -0.00093411  0.37594001  0.40698898  1
  O  O198  1  -0.00596385  0.37153597  0.66833193  1
  O  O199  1  -0.00014563  0.38003910  0.91987744  1
  O  O200  1  -0.00811895  0.62888040  0.16040598  1
  O  O201  1  0.00762472  0.63230854  0.41344412  1
  O  O202  1  0.00295190  0.62496117  0.66653610  1
  O  O203  1  0.00001838  0.62598008  0.91915407  1
  O  O204  1  -0.00912389  0.87171015  0.16044998  1
  O  O205  1  -0.00060293  0.87469512  0.41365358  1
  O  O206  1  0.00093860  0.87747092  0.67123589  1
  O  O207  1  0.00935134  0.87182608  0.91369486  1
  O  O208  1  0.25675579  0.12451787  0.16170811  1
  O  O209  1  0.24793438  0.11976846  0.40584390  1
  O  O210  1  0.25733129  0.12695927  0.66575695  1
  O  O211  1  0.26034764  0.12688728  0.92258574  1
  O  O212  1  0.25843390  0.37437473  0.16353758  1
  O  O213  1  0.24745734  0.37676577  0.40348726  1
  O  O214  1  0.25712189  0.37880823  0.66636641  1
  O  O215  1  0.25461105  0.37799492  0.92121254  1
  O  O216  1  0.24888306  0.62728823  0.16175786  1
  O  O217  1  0.23996489  0.62990617  0.40732044  1
  O  O218  1  0.24778059  0.62512365  0.66821995  1
  O  O219  1  0.25115619  0.62505706  0.92080769  1
  O  O220  1  0.24486551  0.87259533  0.15026744  1
  O  O221  1  0.23997276  0.87303138  0.40711237  1
  O  O222  1  0.24572811  0.87273116  0.67072706  1
  O  O223  1  0.24999874  0.87263980  0.92238075  1
  O  O224  1  0.49692088  0.12744434  0.16159118  1
  O  O225  1  0.50267583  0.11847692  0.40909054  1
  O  O226  1  0.48826516  0.12675215  0.66177917  1
  O  O227  1  0.49019117  0.12838187  0.91952049  1
  O  O228  1  0.50470024  0.37800839  0.16571285  1
  O  O229  1  0.50246711  0.37706483  0.41183999  1
  O  O230  1  0.48543656  0.37897679  0.66095554  1
  O  O231  1  0.48991405  0.37970855  0.91632820  1
  O  O232  1  0.50906366  0.62217474  0.16085824  1
  O  O233  1  0.50784410  0.63093147  0.41147250  1
  O  O234  1  0.49176862  0.62571945  0.65918487  1
  O  O235  1  0.49921137  0.62336898  0.91662624  1
  O  O236  1  0.50420356  0.87344829  0.16291686  1
  O  O237  1  0.50926836  0.87338426  0.40706868  1
  O  O238  1  0.49504147  0.87369120  0.66760685  1
  O  O239  1  0.50078037  0.87115360  0.91734911  1
  O  O240  1  0.74989189  0.12579180  0.15819877  1
  O  O241  1  0.76035842  0.11606121  0.41291599  1
  O  O242  1  0.75769459  0.12406881  0.66831252  1
  O  O243  1  0.74738429  0.12681690  0.91324949  1
  O  O244  1  0.74265348  0.38062905  0.16189685  1
  O  O245  1  0.75263552  0.37651546  0.41390000  1
  O  O246  1  0.76006716  0.37142202  0.66559731  1
  O  O247  1  0.75584037  0.38247522  0.90890623  1
  O  O248  1  0.75057004  0.62550679  0.16735067  1
  O  O249  1  0.74366964  0.63199773  0.41459592  1
  O  O250  1  0.75474336  0.62538217  0.66329981  1
  O  O251  1  0.75001998  0.62436254  0.91420327  1
  O  O252  1  0.75747272  0.86857662  0.15942360  1
  O  O253  1  0.75301332  0.87366174  0.41447657  1
  O  O254  1  0.75854870  0.87793398  0.66699222  1
  O  O255  1  0.74178870  0.86924319  0.90798219  1
  O  O256  1  0.13428360  0.12063736  0.03343750  1
  O  O257  1  0.12687728  0.11205699  0.27636576  1
  O  O258  1  0.11780864  0.12617262  0.53746802  1
  O  O259  1  0.13688129  0.12822777  0.79669792  1
  O  O260  1  0.12802268  0.37690885  0.04007402  1
  O  O261  1  0.12253243  0.37653523  0.27236904  1
  O  O262  1  0.12180350  0.36935746  0.53663184  1
  O  O263  1  0.12586668  0.37741710  0.80507271  1
  O  O264  1  0.12693883  0.63165748  0.03261235  1
  O  O265  1  0.12034888  0.63332584  0.29181063  1
  O  O266  1  0.12650721  0.62498881  0.54650073  1
  O  O267  1  0.12480558  0.62479742  0.80849526  1
  O  O268  1  0.12107163  0.87208349  0.04316299  1
  O  O269  1  0.11968195  0.87273620  0.29435155  1
  O  O270  1  0.12491168  0.87637505  0.54990142  1
  O  O271  1  0.13097880  0.87228885  0.80334173  1
  O  O272  1  0.37660602  0.12966555  0.05047625  1
  O  O273  1  0.37428734  0.12008093  0.27716196  1
  O  O274  1  0.37247029  0.11394070  0.54398833  1
  O  O275  1  0.37395597  0.12478642  0.80258558  1
  O  O276  1  0.37920193  0.37480390  0.05566230  1
  O  O277  1  0.38741174  0.37343798  0.27758847  1
  O  O278  1  0.36809885  0.37999396  0.54371072  1
  O  O279  1  0.37091863  0.37287455  0.80203636  1
  O  O280  1  0.37716871  0.62038331  0.03954308  1
  O  O281  1  0.37365828  0.63296037  0.27971964  1
  O  O282  1  0.36993499  0.62370065  0.54647549  1
  O  O283  1  0.37409899  0.62180188  0.80265870  1
  O  O284  1  0.38752654  0.87526191  0.03264015  1
  O  O285  1  0.37526949  0.86663392  0.28180570  1
  O  O286  1  0.36536037  0.87289267  0.53573091  1
  O  O287  1  0.37190297  0.87507100  0.80609799  1
  O  O288  1  0.62512094  0.13243525  0.02964342  1
  O  O289  1  0.63170595  0.11656904  0.28194298  1
  O  O290  1  0.63124865  0.12101079  0.53713867  1
  O  O291  1  0.61743532  0.13553320  0.79283619  1
  O  O292  1  0.62265637  0.38178683  0.05020201  1
  O  O293  1  0.62783385  0.38012943  0.28210205  1
  O  O294  1  0.63143386  0.37119505  0.53755105  1
  O  O295  1  0.61618250  0.37543971  0.78510918  1
  O  O296  1  0.62876879  0.62208012  0.04838061  1
  O  O297  1  0.62744743  0.63143492  0.29853742  1
  O  O298  1  0.62445166  0.63542420  0.53430586  1
  O  O299  1  0.62385388  0.62341809  0.79709225  1
  O  O300  1  0.62250459  0.86832173  0.03154624  1
  O  O301  1  0.63136582  0.87341045  0.29745119  1
  O  O302  1  0.62911916  0.87190148  0.53814904  1
  O  O303  1  0.61673818  0.87007580  0.79985325  1
  O  O304  1  0.87091036  0.12584395  0.02381064  1
  O  O305  1  0.87262217  0.11583814  0.29272401  1
  O  O306  1  0.87693984  0.12656591  0.55360417  1
  O  O307  1  0.87842700  0.12078431  0.79317807  1
  O  O308  1  0.87398708  0.38404199  0.03613817  1
  O  O309  1  0.87023665  0.37970998  0.27636217  1
  O  O310  1  0.87856679  0.37064125  0.54852684  1
  O  O311  1  0.88126453  0.38163045  0.80226679  1
  O  O312  1  0.86896197  0.62701869  0.04933082  1
  O  O313  1  0.87374652  0.63885547  0.29113804  1
  O  O314  1  0.88299599  0.62943911  0.53124389  1
  O  O315  1  0.87776967  0.62152836  0.79876191  1
  O  O316  1  0.87412283  0.86842747  0.04194586  1
  O  O317  1  0.87320765  0.87866850  0.29990498  1
  O  O318  1  0.87927082  0.88130822  0.55575644  1
  O  O319  1  0.88249270  0.87786931  0.78649443  1
