# generated using pymatgen
data_VFe(PbO3)2
_symmetry_space_group_name_H-M   'P 1'
_cell_length_a   15.39320491
_cell_length_b   15.38038282
_cell_length_c   18.47470315
_cell_angle_alpha   90.02546148
_cell_angle_beta   89.99495644
_cell_angle_gamma   90.00963030
_symmetry_Int_Tables_number   1
_chemical_formula_structural   VFe(PbO3)2
_chemical_formula_sum   'V32 Fe32 Pb64 O192'
_cell_volume   4373.94798355
_cell_formula_units_Z   32
loop_
 _symmetry_equiv_pos_site_id
 _symmetry_equiv_pos_as_xyz
  1  'x, y, z'
loop_
 _atom_site_type_symbol
 _atom_site_label
 _atom_site_symmetry_multiplicity
 _atom_site_fract_x
 _atom_site_fract_y
 _atom_site_fract_z
 _atom_site_occupancy
  V  V0  1  0.37315151  0.37364219  0.13628448  1
  V  V1  1  0.12344055  0.62051431  0.64535802  1
  V  V2  1  0.87836711  0.37347453  0.13808354  1
  V  V3  1  0.12251799  0.87770908  0.13810278  1
  V  V4  1  0.12798956  0.12229110  0.88388336  1
  V  V5  1  0.86879977  0.62174189  0.64190975  1
  V  V6  1  0.62377632  0.37363968  0.89179965  1
  V  V7  1  0.37574185  0.37673779  0.64138382  1
  V  V8  1  0.37656415  0.62364971  0.89506308  1
  V  V9  1  0.87445754  0.37839303  0.38946013  1
  V  V10  1  0.87528480  0.12815907  0.88561064  1
  V  V11  1  0.37882982  0.87635999  0.88792630  1
  V  V12  1  0.87524038  0.87238813  0.39353752  1
  V  V13  1  0.62807072  0.12275291  0.88779789  1
  V  V14  1  0.12431271  0.62624156  0.38994686  1
  V  V15  1  0.63548616  0.62282498  0.38970059  1
  V  V16  1  0.87441695  0.12340639  0.14017345  1
  V  V17  1  0.12567000  0.12372372  0.13908678  1
  V  V18  1  0.12517617  0.62740605  0.13350913  1
  V  V19  1  0.12665828  0.37501532  0.64754299  1
  V  V20  1  0.12583222  0.12444727  0.63824156  1
  V  V21  1  0.62632366  0.37847345  0.63561751  1
  V  V22  1  0.37292021  0.62514067  0.38828398  1
  V  V23  1  0.12493904  0.37685622  0.38686454  1
  V  V24  1  0.12252822  0.12911008  0.39228486  1
  V  V25  1  0.12385808  0.87760010  0.39447861  1
  V  V26  1  0.62561562  0.62701786  0.89145681  1
  V  V27  1  0.12463613  0.62728348  0.88775789  1
  V  V28  1  0.87391558  0.62778877  0.13725463  1
  V  V29  1  0.37517802  0.87733757  0.14100112  1
  V  V30  1  0.37267625  0.37747015  0.38601599  1
  V  V31  1  0.37171567  0.62444019  0.63973404  1
  Fe  Fe32  1  0.62987207  0.87535581  0.13367963  1
  Fe  Fe33  1  0.62422000  0.12337704  0.14231633  1
  Fe  Fe34  1  0.12696629  0.87229518  0.64378011  1
  Fe  Fe35  1  0.62220554  0.62687245  0.13455153  1
  Fe  Fe36  1  0.88016857  0.12423593  0.39699330  1
  Fe  Fe37  1  0.87158923  0.62174902  0.88473798  1
  Fe  Fe38  1  0.12339352  0.37287559  0.13218036  1
  Fe  Fe39  1  0.87620036  0.37663666  0.63871074  1
  Fe  Fe40  1  0.62592828  0.87337394  0.39674083  1
  Fe  Fe41  1  0.87281146  0.87516616  0.88106803  1
  Fe  Fe42  1  0.37919245  0.37311724  0.88766187  1
  Fe  Fe43  1  0.87077982  0.37440069  0.88616097  1
  Fe  Fe44  1  0.62330979  0.37835567  0.37699290  1
  Fe  Fe45  1  0.87632774  0.87378167  0.64052539  1
  Fe  Fe46  1  0.62585867  0.12771007  0.38751471  1
  Fe  Fe47  1  0.88255340  0.62619141  0.38455674  1
  Fe  Fe48  1  0.62445744  0.12833238  0.62668524  1
  Fe  Fe49  1  0.37321726  0.12304000  0.14169869  1
  Fe  Fe50  1  0.62238480  0.87593169  0.88720064  1
  Fe  Fe51  1  0.37384720  0.87402699  0.62616759  1
  Fe  Fe52  1  0.37052730  0.12665703  0.38700492  1
  Fe  Fe53  1  0.37289234  0.87290968  0.39399980  1
  Fe  Fe54  1  0.37988982  0.12469606  0.88303122  1
  Fe  Fe55  1  0.37292038  0.62733306  0.13206155  1
  Fe  Fe56  1  0.12644315  0.37291592  0.88964413  1
  Fe  Fe57  1  0.37373842  0.12882687  0.63277866  1
  Fe  Fe58  1  0.87610863  0.12840515  0.62900191  1
  Fe  Fe59  1  0.12902606  0.87638104  0.87983515  1
  Fe  Fe60  1  0.62552352  0.37421481  0.14758236  1
  Fe  Fe61  1  0.62395466  0.87157076  0.62539141  1
  Fe  Fe62  1  0.87833131  0.87735749  0.13343098  1
  Fe  Fe63  1  0.62096786  0.61904247  0.63260602  1
  Pb  Pb64  1  -0.00555531  -0.00512704  -0.00692260  1
  Pb  Pb65  1  -0.00560660  0.00758063  0.25414427  1
  Pb  Pb66  1  -0.00125450  -0.00936788  0.51004175  1
  Pb  Pb67  1  -0.00553918  -0.00689254  0.74653358  1
  Pb  Pb68  1  0.00331659  0.25406050  -0.00302073  1
  Pb  Pb69  1  -0.00649561  0.24507716  0.25364552  1
  Pb  Pb70  1  -0.00974058  0.25543757  0.50697126  1
  Pb  Pb71  1  0.00007125  0.25647143  0.75145422  1
  Pb  Pb72  1  -0.00042113  0.49502455  -0.00509914  1
  Pb  Pb73  1  -0.00350566  0.50536429  0.24775884  1
  Pb  Pb74  1  -0.00448144  0.49555844  0.50388726  1
  Pb  Pb75  1  -0.00838848  0.49919222  0.76085614  1
  Pb  Pb76  1  -0.00744330  0.75765320  -0.00824615  1
  Pb  Pb77  1  -0.00260478  0.74584113  0.24839474  1
  Pb  Pb78  1  0.00257758  0.75607281  0.50998123  1
  Pb  Pb79  1  -0.00487648  0.75713245  0.75598761  1
  Pb  Pb80  1  0.25941170  0.00387065  -0.00090934  1
  Pb  Pb81  1  0.26092315  -0.00265236  0.26098774  1
  Pb  Pb82  1  0.25931904  -0.00042468  0.50369685  1
  Pb  Pb83  1  0.25767516  -0.00008422  0.74306768  1
  Pb  Pb84  1  0.25655732  0.24839749  -0.00362126  1
  Pb  Pb85  1  0.25287939  0.24557751  0.24965846  1
  Pb  Pb86  1  0.25270116  0.24680131  0.50283311  1
  Pb  Pb87  1  0.25405302  0.25443096  0.75659002  1
  Pb  Pb88  1  0.24890754  0.49402869  -0.00145873  1
  Pb  Pb89  1  0.24656506  0.50154655  0.24109996  1
  Pb  Pb90  1  0.24640206  0.50029522  0.50041379  1
  Pb  Pb91  1  0.24966854  0.49153258  0.76094814  1
  Pb  Pb92  1  0.25403834  0.74843053  -0.00111922  1
  Pb  Pb93  1  0.25233455  0.75801242  0.25142668  1
  Pb  Pb94  1  0.24450880  0.75779208  0.50627904  1
  Pb  Pb95  1  0.24948214  0.75428139  0.75084538  1
  Pb  Pb96  1  0.50291936  0.01167957  0.00570996  1
  Pb  Pb97  1  0.50735478  0.00049146  0.25559067  1
  Pb  Pb98  1  0.50052896  0.00420251  0.49169219  1
  Pb  Pb99  1  0.50116605  0.00210173  0.73338927  1
  Pb  Pb100  1  0.50419119  0.24402036  0.00534283  1
  Pb  Pb101  1  0.50373655  0.23882313  0.25180626  1
  Pb  Pb102  1  0.50319620  0.24151619  0.49495192  1
  Pb  Pb103  1  0.49307790  0.24492135  0.74848533  1
  Pb  Pb104  1  0.50599219  0.50333377  0.00668572  1
  Pb  Pb105  1  0.50188630  0.50148629  0.24433441  1
  Pb  Pb106  1  0.50310387  0.50409342  0.49887042  1
  Pb  Pb107  1  0.49433777  0.49494517  0.75224691  1
  Pb  Pb108  1  0.50284776  0.74529877  0.00441209  1
  Pb  Pb109  1  0.50157057  0.75723334  0.24928259  1
  Pb  Pb110  1  0.50247503  0.75615291  0.50053876  1
  Pb  Pb111  1  0.50832751  0.75895063  0.74394191  1
  Pb  Pb112  1  0.74745143  -0.00833955  0.00041410  1
  Pb  Pb113  1  0.73771071  -0.00519154  0.25786156  1
  Pb  Pb114  1  0.74645619  0.01024351  0.49943012  1
  Pb  Pb115  1  0.74596048  -0.00348623  0.73548251  1
  Pb  Pb116  1  0.73575359  0.24923651  0.00832751  1
  Pb  Pb117  1  0.74283522  0.24241190  0.25647214  1
  Pb  Pb118  1  0.74753613  0.24677934  0.49663980  1
  Pb  Pb119  1  0.75414549  0.24910708  0.74172255  1
  Pb  Pb120  1  0.74097394  0.49789067  0.00458765  1
  Pb  Pb121  1  0.74857223  0.49943606  0.24784006  1
  Pb  Pb122  1  0.74837056  0.50083401  0.50072634  1
  Pb  Pb123  1  0.75809487  0.49942772  0.75518651  1
  Pb  Pb124  1  0.74951108  0.75961729  -0.00144763  1
  Pb  Pb125  1  0.74240249  0.76073728  0.25043039  1
  Pb  Pb126  1  0.75693455  0.76045835  0.50920626  1
  Pb  Pb127  1  0.74229003  0.76189151  0.75050785  1
  O  O128  1  0.12064253  0.00517069  0.16592530  1
  O  O129  1  0.12332283  -0.00337788  0.41637720  1
  O  O130  1  0.12697313  0.00755045  0.65764962  1
  O  O131  1  0.12384606  0.00639346  0.90991678  1
  O  O132  1  0.12228848  0.24256045  0.16283098  1
  O  O133  1  0.12416294  0.24895367  0.41195058  1
  O  O134  1  0.12733801  0.25493903  0.66667213  1
  O  O135  1  0.12403610  0.23840770  0.91253189  1
  O  O136  1  0.12427468  0.50391868  0.15864231  1
  O  O137  1  0.12611610  0.49924448  0.41531941  1
  O  O138  1  0.13165166  0.49874482  0.67169305  1
  O  O139  1  0.12804919  0.50706492  0.91209376  1
  O  O140  1  0.12277604  0.75145559  0.16322825  1
  O  O141  1  0.12385872  0.75188567  0.41642944  1
  O  O142  1  0.12920996  0.73702975  0.66697758  1
  O  O143  1  0.12802314  0.74660468  0.91056713  1
  O  O144  1  0.36896428  -0.00734969  0.16932561  1
  O  O145  1  0.36836195  0.00115272  0.41281364  1
  O  O146  1  0.37232410  0.00101298  0.65374381  1
  O  O147  1  0.37693367  -0.00438968  0.91294553  1
  O  O148  1  0.36988248  0.25503251  0.16266644  1
  O  O149  1  0.36758902  0.26119265  0.40965487  1
  O  O150  1  0.37276111  0.25758763  0.66301671  1
  O  O151  1  0.37767631  0.24740483  0.91578172  1
  O  O152  1  0.37020727  0.49530341  0.15858257  1
  O  O153  1  0.36448846  0.49955148  0.41485952  1
  O  O154  1  0.37116910  0.49881873  0.67068691  1
  O  O155  1  0.37701311  0.50252323  0.91667850  1
  O  O156  1  0.36917058  0.75871088  0.16432714  1
  O  O157  1  0.36794240  0.73841566  0.41217001  1
  O  O158  1  0.37094133  0.74008763  0.65757613  1
  O  O159  1  0.37599253  0.75443312  0.91598179  1
  O  O160  1  0.62679899  -0.00250595  0.16855756  1
  O  O161  1  0.62646840  0.00043855  0.41312920  1
  O  O162  1  0.62511761  -0.00007337  0.64940129  1
  O  O163  1  0.62555783  0.00679131  0.90815848  1
  O  O164  1  0.62793779  0.24849822  0.16990678  1
  O  O165  1  0.62462876  0.25841440  0.40780940  1
  O  O166  1  0.62277233  0.26303637  0.65912530  1
  O  O167  1  0.62519271  0.24997437  0.91558906  1
  O  O168  1  0.62672630  0.50304190  0.16592182  1
  O  O169  1  0.62207100  0.50287951  0.41397033  1
  O  O170  1  0.62068398  0.49368723  0.66775282  1
  O  O171  1  0.62265538  0.49736381  0.91442609  1
  O  O172  1  0.62508440  0.75115552  0.16638693  1
  O  O173  1  0.62301645  0.73514195  0.41275257  1
  O  O174  1  0.62326201  0.74309102  0.65954837  1
  O  O175  1  0.62263750  0.74379051  0.91077019  1
  O  O176  1  0.88104101  0.00763347  0.16201094  1
  O  O177  1  0.88030395  -0.00962626  0.41773217  1
  O  O178  1  0.87868889  0.00348482  0.65772331  1
  O  O179  1  0.87166796  0.01020087  0.91020899  1
  O  O180  1  0.88073385  0.25031018  0.16359825  1
  O  O181  1  0.88170506  0.26126459  0.41350091  1
  O  O182  1  0.87929303  0.25255942  0.66451111  1
  O  O183  1  0.87159054  0.24306279  0.91397400  1
  O  O184  1  0.88045511  0.49928435  0.15939019  1
  O  O185  1  0.88186305  0.49711442  0.41580309  1
  O  O186  1  0.88039500  0.50334861  0.66828873  1
  O  O187  1  0.87301742  0.49852608  0.91843401  1
  O  O188  1  0.88205597  0.74397972  0.15809976  1
  O  O189  1  0.88089804  0.75266348  0.41583300  1
  O  O190  1  0.88086261  0.73605975  0.66342444  1
  O  O191  1  0.87478812  0.74765285  0.90945884  1
  O  O192  1  0.00043864  0.12673033  0.16727741  1
  O  O193  1  0.01028597  0.12313581  0.42171354  1
  O  O194  1  0.00956191  0.13169424  0.66178521  1
  O  O195  1  -0.00330388  0.12505622  0.90639972  1
  O  O196  1  -0.00436248  0.37452351  0.16374701  1
  O  O197  1  0.00347860  0.37738734  0.41656355  1
  O  O198  1  0.00897399  0.37870451  0.66702024  1
  O  O199  1  -0.00113921  0.37200445  0.91241728  1
  O  O200  1  0.00036050  0.62420268  0.16390428  1
  O  O201  1  0.00720005  0.62404523  0.41815577  1
  O  O202  1  0.00851196  0.61706228  0.66485286  1
  O  O203  1  0.00781894  0.62482601  0.90916292  1
  O  O204  1  0.00366691  0.87685129  0.16573900  1
  O  O205  1  0.00252492  0.87277996  0.42018975  1
  O  O206  1  0.00194019  0.87064250  0.66781244  1
  O  O207  1  0.00156027  0.87776598  0.90774027  1
  O  O208  1  0.24170640  0.12361391  0.16267736  1
  O  O209  1  0.23942369  0.12588974  0.41717597  1
  O  O210  1  0.24306457  0.13190305  0.66432262  1
  O  O211  1  0.24545028  0.12229551  0.90623652  1
  O  O212  1  0.25156693  0.37451231  0.16145507  1
  O  O213  1  0.24727135  0.37648102  0.41660705  1
  O  O214  1  0.24938212  0.37636766  0.66982402  1
  O  O215  1  0.25215086  0.37358094  0.91654245  1
  O  O216  1  0.24604977  0.62787974  0.16157327  1
  O  O217  1  0.24684501  0.62276020  0.41845075  1
  O  O218  1  0.25276986  0.61893948  0.67109309  1
  O  O219  1  0.24829923  0.62698365  0.91570346  1
  O  O220  1  0.24503482  0.87691362  0.16741886  1
  O  O221  1  0.24011893  0.87248937  0.41659308  1
  O  O222  1  0.25305154  0.87121259  0.66425020  1
  O  O223  1  0.25741803  0.87583053  0.91198629  1
  O  O224  1  0.49685613  0.12187966  0.16904737  1
  O  O225  1  0.49633662  0.12968015  0.40784550  1
  O  O226  1  0.50058331  0.13102819  0.65781723  1
  O  O227  1  0.50870644  0.12608590  0.91429943  1
  O  O228  1  0.48927200  0.37496964  0.16208644  1
  O  O229  1  0.48888785  0.38306369  0.40332858  1
  O  O230  1  0.49857651  0.37886149  0.66202608  1
  O  O231  1  0.50787136  0.37354632  0.91812519  1
  O  O232  1  0.49543075  0.62788746  0.16551708  1
  O  O233  1  0.48853864  0.61808482  0.40872096  1
  O  O234  1  0.48916136  0.61758321  0.66103947  1
  O  O235  1  0.50335919  0.62384304  0.91823113  1
  O  O236  1  0.49226616  0.87568474  0.15976033  1
  O  O237  1  0.49870241  0.86807207  0.41277151  1
  O  O238  1  0.49762146  0.87000141  0.65412548  1
  O  O239  1  0.49398634  0.87443915  0.91418970  1
  O  O240  1  0.76053931  0.12760293  0.16302746  1
  O  O241  1  0.75406325  0.12843315  0.41271327  1
  O  O242  1  0.74919580  0.13113802  0.65696016  1
  O  O243  1  0.74637224  0.12799631  0.91165941  1
  O  O244  1  0.76465443  0.37471942  0.16630140  1
  O  O245  1  0.75747885  0.38196082  0.40556290  1
  O  O246  1  0.74388978  0.38027820  0.65679424  1
  O  O247  1  0.74155831  0.37381584  0.91731618  1
  O  O248  1  0.75941212  0.62317323  0.15759490  1
  O  O249  1  0.75095031  0.61870526  0.40655831  1
  O  O250  1  0.75373564  0.61702854  0.65675196  1
  O  O251  1  0.74122262  0.62102531  0.91228030  1
  O  O252  1  0.75632135  0.87470278  0.16579394  1
  O  O253  1  0.75917798  0.86942045  0.41509785  1
  O  O254  1  0.74935112  0.86882504  0.65824644  1
  O  O255  1  0.74858767  0.87610206  0.91254096  1
  O  O256  1  0.12299641  0.12189658  0.04801590  1
  O  O257  1  0.12106285  0.12433420  0.30072293  1
  O  O258  1  0.12799890  0.13043935  0.54701589  1
  O  O259  1  0.12533097  0.12400676  0.79294219  1
  O  O260  1  0.12162430  0.37086377  0.03232503  1
  O  O261  1  0.12496779  0.37634753  0.29559433  1
  O  O262  1  0.12853858  0.37699069  0.55620849  1
  O  O263  1  0.13237064  0.37128301  0.78888830  1
  O  O264  1  0.12315403  0.62943305  0.04250978  1
  O  O265  1  0.12465394  0.62700244  0.29864777  1
  O  O266  1  0.12815135  0.61823745  0.55399143  1
  O  O267  1  0.12881257  0.62625226  0.79655755  1
  O  O268  1  0.12512615  0.87923551  0.04690255  1
  O  O269  1  0.12104673  0.87630185  0.30346667  1
  O  O270  1  0.12073509  0.86646685  0.54195060  1
  O  O271  1  0.12911004  0.87226616  0.77967570  1
  O  O272  1  0.37615851  0.11374243  0.04022713  1
  O  O273  1  0.36086064  0.12779018  0.28518268  1
  O  O274  1  0.36746813  0.13547717  0.53136742  1
  O  O275  1  0.38092768  0.12739005  0.78290853  1
  O  O276  1  0.37219550  0.37209446  0.04479720  1
  O  O277  1  0.36468706  0.37989596  0.29527356  1
  O  O278  1  0.37146795  0.38022047  0.55016537  1
  O  O279  1  0.37798624  0.37513327  0.78706519  1
  O  O280  1  0.37656519  0.63402101  0.03204187  1
  O  O281  1  0.36813960  0.62313118  0.29713048  1
  O  O282  1  0.36683396  0.61769558  0.54849164  1
  O  O283  1  0.37830946  0.62777119  0.80393648  1
  O  O284  1  0.37001021  0.88091520  0.04970292  1
  O  O285  1  0.36306723  0.87213437  0.29227154  1
  O  O286  1  0.36657497  0.86771853  0.52461027  1
  O  O287  1  0.37885819  0.87511338  0.79656413  1
  O  O288  1  0.62081318  0.12844844  0.04030200  1
  O  O289  1  0.62841038  0.12365933  0.28425119  1
  O  O290  1  0.62447239  0.13622620  0.52549865  1
  O  O291  1  0.62647426  0.12788716  0.79678072  1
  O  O292  1  0.63156519  0.37245683  0.04580706  1
  O  O293  1  0.62958188  0.38170026  0.27641249  1
  O  O294  1  0.62263292  0.38338437  0.54390690  1
  O  O295  1  0.62370120  0.37263544  0.80100622  1
  O  O296  1  0.61988058  0.62202664  0.03397064  1
  O  O297  1  0.62625161  0.62120317  0.29812887  1
  O  O298  1  0.62310930  0.61088728  0.53260152  1
  O  O299  1  0.62181404  0.62289578  0.80024049  1
  O  O300  1  0.63381608  0.87535881  0.03243042  1
  O  O301  1  0.63408006  0.87117506  0.29354259  1
  O  O302  1  0.62888632  0.86130926  0.52318467  1
  O  O303  1  0.62416647  0.86768506  0.78609842  1
  O  O304  1  0.87617997  0.12564573  0.04914805  1
  O  O305  1  0.89062882  0.12706652  0.29588014  1
  O  O306  1  0.87867592  0.13322118  0.52715944  1
  O  O307  1  0.87156156  0.13005984  0.79451894  1
  O  O308  1  0.87707982  0.37129747  0.04682427  1
  O  O309  1  0.88231220  0.37957358  0.29817364  1
  O  O310  1  0.88336712  0.37860063  0.53830689  1
  O  O311  1  0.87119995  0.38090745  0.78512081  1
  O  O312  1  0.87771686  0.62550288  0.04616012  1
  O  O313  1  0.88780180  0.62393317  0.28516272  1
  O  O314  1  0.87738467  0.61820331  0.54995438  1
  O  O315  1  0.87339081  0.61215187  0.78449999  1
  O  O316  1  0.87690002  0.87893888  0.03283752  1
  O  O317  1  0.87865537  0.87319365  0.30205728  1
  O  O318  1  0.88183767  0.86323888  0.53901453  1
  O  O319  1  0.87522543  0.87354853  0.77931121  1
