# generated using pymatgen
data_VFe(PbO3)2
_symmetry_space_group_name_H-M   'P 1'
_cell_length_a   15.39115336
_cell_length_b   15.37998640
_cell_length_c   18.51405183
_cell_angle_alpha   89.98704812
_cell_angle_beta   90.04192065
_cell_angle_gamma   89.99177155
_symmetry_Int_Tables_number   1
_chemical_formula_structural   VFe(PbO3)2
_chemical_formula_sum   'V32 Fe32 Pb64 O192'
_cell_volume   4382.56594993
_cell_formula_units_Z   32
loop_
 _symmetry_equiv_pos_site_id
 _symmetry_equiv_pos_as_xyz
  1  'x, y, z'
loop_
 _atom_site_type_symbol
 _atom_site_label
 _atom_site_symmetry_multiplicity
 _atom_site_fract_x
 _atom_site_fract_y
 _atom_site_fract_z
 _atom_site_occupancy
  V  V0  1  0.87861062  0.62169472  0.13362769  1
  V  V1  1  0.12417711  0.87151844  0.38780778  1
  V  V2  1  0.61682079  0.62469052  0.89861063  1
  V  V3  1  0.87435562  0.62714937  0.64572760  1
  V  V4  1  0.62731580  0.62696356  0.38770033  1
  V  V5  1  0.37803257  0.62784695  0.64818913  1
  V  V6  1  0.12687232  0.37248029  0.88610027  1
  V  V7  1  0.62583596  0.87375682  0.38351380  1
  V  V8  1  0.37516130  0.62648695  0.38796416  1
  V  V9  1  0.37956549  0.12466144  0.63948682  1
  V  V10  1  0.87264334  0.62493740  0.39195626  1
  V  V11  1  0.62433952  0.62546129  0.64615594  1
  V  V12  1  0.63201838  0.12438957  0.89132023  1
  V  V13  1  0.87178544  0.12354662  0.63897038  1
  V  V14  1  0.87555307  0.12717038  0.13823486  1
  V  V15  1  0.37747679  0.62129134  0.13347869  1
  V  V16  1  0.87985586  0.37502887  0.13782970  1
  V  V17  1  0.37622978  0.12764078  0.89295548  1
  V  V18  1  0.37602422  0.37597879  0.64021181  1
  V  V19  1  0.12292142  0.62605945  0.88508716  1
  V  V20  1  0.87216702  0.37341829  0.39358134  1
  V  V21  1  0.36987683  0.37494715  0.14208825  1
  V  V22  1  0.87640825  0.62141565  0.88732601  1
  V  V23  1  0.62495344  0.87672264  0.64847379  1
  V  V24  1  0.62885992  0.12732598  0.38636756  1
  V  V25  1  0.62408046  0.37300662  0.64469591  1
  V  V26  1  0.37654992  0.87581859  0.64376814  1
  V  V27  1  0.12742067  0.62386800  0.14082010  1
  V  V28  1  0.12731446  0.12356917  0.88402095  1
  V  V29  1  0.12526373  0.87655721  0.64409590  1
  V  V30  1  0.12423251  0.12639178  0.14186985  1
  V  V31  1  0.12720454  0.62619016  0.63996430  1
  Fe  Fe32  1  0.87596889  0.37336004  0.87998706  1
  Fe  Fe33  1  0.87164621  0.87392442  0.38378022  1
  Fe  Fe34  1  0.12275054  0.37442398  0.14420254  1
  Fe  Fe35  1  0.88031428  0.87485651  0.13652318  1
  Fe  Fe36  1  0.62236610  0.12337858  0.63866842  1
  Fe  Fe37  1  0.88143152  0.12720698  0.88293064  1
  Fe  Fe38  1  0.12139522  0.87660115  0.13458105  1
  Fe  Fe39  1  0.37617160  0.12360458  0.37658104  1
  Fe  Fe40  1  0.37357167  0.37378936  0.88443902  1
  Fe  Fe41  1  0.62694978  0.87460505  0.12399293  1
  Fe  Fe42  1  0.12237835  0.12406136  0.38968552  1
  Fe  Fe43  1  0.37267972  0.12642015  0.13952903  1
  Fe  Fe44  1  0.12643917  0.37573015  0.63246818  1
  Fe  Fe45  1  0.87838757  0.87593533  0.88029585  1
  Fe  Fe46  1  0.87376191  0.12333053  0.38502274  1
  Fe  Fe47  1  0.37217126  0.87542980  0.88936994  1
  Fe  Fe48  1  0.62426285  0.87574173  0.89652627  1
  Fe  Fe49  1  0.12648845  0.87735850  0.88286684  1
  Fe  Fe50  1  0.37737268  0.87360198  0.37993844  1
  Fe  Fe51  1  0.36852779  0.62217730  0.88413093  1
  Fe  Fe52  1  0.62538061  0.12610655  0.12796929  1
  Fe  Fe53  1  0.12046030  0.62729844  0.38748032  1
  Fe  Fe54  1  0.37033045  0.87292185  0.13714150  1
  Fe  Fe55  1  0.37971714  0.37581366  0.38126670  1
  Fe  Fe56  1  0.62550783  0.37576508  0.13091314  1
  Fe  Fe57  1  0.12529691  0.37984385  0.38653933  1
  Fe  Fe58  1  0.87311272  0.87193344  0.64755701  1
  Fe  Fe59  1  0.62366465  0.37338503  0.89006465  1
  Fe  Fe60  1  0.62700048  0.37952020  0.38372073  1
  Fe  Fe61  1  0.12791767  0.12329400  0.63073409  1
  Fe  Fe62  1  0.87300941  0.37698747  0.64209174  1
  Fe  Fe63  1  0.62790341  0.62383099  0.12207104  1
  Pb  Pb64  1  -0.00048916  -0.01040867  -0.00165831  1
  Pb  Pb65  1  -0.00153199  0.00684780  0.25379748  1
  Pb  Pb66  1  -0.00457792  0.00130615  0.49776942  1
  Pb  Pb67  1  -0.00711877  0.00277168  0.75125540  1
  Pb  Pb68  1  0.00370619  0.25358908  -0.00294939  1
  Pb  Pb69  1  0.00048844  0.24156940  0.25919303  1
  Pb  Pb70  1  0.01218884  0.24692024  0.50120046  1
  Pb  Pb71  1  -0.00276801  0.24977213  0.74216825  1
  Pb  Pb72  1  0.00748108  0.49291664  -0.00023875  1
  Pb  Pb73  1  0.00766356  0.50085105  0.25693907  1
  Pb  Pb74  1  0.00122753  0.49245412  0.50510242  1
  Pb  Pb75  1  -0.00214767  0.49483036  0.74680737  1
  Pb  Pb76  1  0.00156593  0.75979787  -0.00128429  1
  Pb  Pb77  1  -0.00177643  0.75072010  0.24860719  1
  Pb  Pb78  1  -0.00884757  0.75749242  0.50425157  1
  Pb  Pb79  1  0.00347287  0.75762990  0.75504504  1
  Pb  Pb80  1  0.25724075  -0.00010150  0.00503239  1
  Pb  Pb81  1  0.25575918  -0.00073224  0.24852784  1
  Pb  Pb82  1  0.25255035  0.00496225  0.49200398  1
  Pb  Pb83  1  0.25192288  -0.00852455  0.75347512  1
  Pb  Pb84  1  0.25143050  0.24501795  0.00515559  1
  Pb  Pb85  1  0.24513025  0.24198670  0.25834857  1
  Pb  Pb86  1  0.24868648  0.25051175  0.48899189  1
  Pb  Pb87  1  0.24949939  0.25004256  0.74261206  1
  Pb  Pb88  1  0.24633011  0.49409754  -0.00111270  1
  Pb  Pb89  1  0.24459498  0.49630515  0.25649462  1
  Pb  Pb90  1  0.24416967  0.49353265  0.49713505  1
  Pb  Pb91  1  0.25830457  0.50262667  0.75050477  1
  Pb  Pb92  1  0.24989324  0.76228847  -0.00033304  1
  Pb  Pb93  1  0.25066215  0.75429990  0.24869929  1
  Pb  Pb94  1  0.25051137  0.75143655  0.49850413  1
  Pb  Pb95  1  0.25363724  0.75409191  0.75621784  1
  Pb  Pb96  1  0.50290690  0.00231591  0.00413244  1
  Pb  Pb97  1  0.49832595  0.00115972  0.23552202  1
  Pb  Pb98  1  0.50456865  0.00448731  0.49430216  1
  Pb  Pb99  1  0.50020828  -0.00827984  0.76053085  1
  Pb  Pb100  1  0.50431373  0.24674832  0.00421311  1
  Pb  Pb101  1  0.49783035  0.25087124  0.24443769  1
  Pb  Pb102  1  0.50097836  0.24835983  0.49224215  1
  Pb  Pb103  1  0.50136321  0.25941708  0.75690722  1
  Pb  Pb104  1  0.49824815  0.49130459  -0.00278708  1
  Pb  Pb105  1  0.50299330  0.49191063  0.24749898  1
  Pb  Pb106  1  0.50198127  0.49963817  0.49753112  1
  Pb  Pb107  1  0.49655767  0.49654267  0.75860534  1
  Pb  Pb108  1  0.48921295  0.76267453  0.00054714  1
  Pb  Pb109  1  0.50303526  0.75447217  0.23666326  1
  Pb  Pb110  1  0.50273727  0.75137954  0.49733647  1
  Pb  Pb111  1  0.49999338  0.75728431  0.76287671  1
  Pb  Pb112  1  0.76073444  -0.01186095  -0.00265625  1
  Pb  Pb113  1  0.75319881  -0.00526611  0.24120948  1
  Pb  Pb114  1  0.74946277  0.00049649  0.49957948  1
  Pb  Pb115  1  0.75747016  0.00071275  0.75682465  1
  Pb  Pb116  1  0.74715953  0.25286546  -0.00395278  1
  Pb  Pb117  1  0.74429980  0.25231001  0.24485091  1
  Pb  Pb118  1  0.75300417  0.25328243  0.50375098  1
  Pb  Pb119  1  0.75750344  0.24931730  0.75407070  1
  Pb  Pb120  1  0.74641441  0.49559479  -0.00192746  1
  Pb  Pb121  1  0.74376548  0.49775613  0.24310012  1
  Pb  Pb122  1  0.75458255  0.49787820  0.50676759  1
  Pb  Pb123  1  0.74195816  0.49275057  0.75815846  1
  Pb  Pb124  1  0.74973814  0.75079752  -0.00220118  1
  Pb  Pb125  1  0.75198067  0.75498590  0.23897680  1
  Pb  Pb126  1  0.75446967  0.75705723  0.50501298  1
  Pb  Pb127  1  0.73993589  0.75293966  0.76210925  1
  O  O128  1  0.12105298  0.00848005  0.16295981  1
  O  O129  1  0.12383602  -0.01178592  0.41253594  1
  O  O130  1  0.12827432  -0.00531739  0.66086246  1
  O  O131  1  0.12811960  0.00907210  0.90386760  1
  O  O132  1  0.12186410  0.24593461  0.16802282  1
  O  O133  1  0.12207337  0.25412469  0.41091050  1
  O  O134  1  0.12809089  0.24770577  0.65973043  1
  O  O135  1  0.12819765  0.25302425  0.91103614  1
  O  O136  1  0.12096868  0.50566702  0.16787137  1
  O  O137  1  0.12237135  0.50526276  0.41921177  1
  O  O138  1  0.12507461  0.50670075  0.66265014  1
  O  O139  1  0.12309540  0.49483010  0.90994610  1
  O  O140  1  0.11871885  0.74048947  0.16251723  1
  O  O141  1  0.12460689  0.75345361  0.41879219  1
  O  O142  1  0.12639076  0.74955948  0.66920695  1
  O  O143  1  0.12175437  0.74150024  0.90467059  1
  O  O144  1  0.36946059  -0.00088433  0.16047842  1
  O  O145  1  0.37748483  -0.00188630  0.40840314  1
  O  O146  1  0.37736538  -0.00056484  0.66703261  1
  O  O147  1  0.36824172  0.00940817  0.91601017  1
  O  O148  1  0.37137802  0.25930288  0.16094560  1
  O  O149  1  0.38018153  0.24840704  0.40961046  1
  O  O150  1  0.37820742  0.24588337  0.66068780  1
  O  O151  1  0.36913136  0.24588534  0.91696983  1
  O  O152  1  0.37079050  0.50597800  0.16396479  1
  O  O153  1  0.38018035  0.51102255  0.41444359  1
  O  O154  1  0.37795707  0.49985893  0.66700275  1
  O  O155  1  0.37123167  0.49835269  0.91649456  1
  O  O156  1  0.36987542  0.73700528  0.16039589  1
  O  O157  1  0.37826166  0.74591616  0.41666607  1
  O  O158  1  0.37641985  0.75310763  0.67086819  1
  O  O159  1  0.37088682  0.74609151  0.91234800  1
  O  O160  1  0.62731306  0.00029595  0.15656869  1
  O  O161  1  0.62732655  -0.00005031  0.40953982  1
  O  O162  1  0.62211256  -0.00650052  0.66960133  1
  O  O163  1  0.62010905  0.00892679  0.91357057  1
  O  O164  1  0.62732320  0.25217361  0.16149503  1
  O  O165  1  0.62792336  0.24547670  0.40919433  1
  O  O166  1  0.62178433  0.25502665  0.66418155  1
  O  O167  1  0.62024202  0.24229521  0.91312997  1
  O  O168  1  0.62781151  0.50179876  0.15786688  1
  O  O169  1  0.62673980  0.50794380  0.41679203  1
  O  O170  1  0.62235031  0.49848755  0.67001589  1
  O  O171  1  0.62907892  0.50492496  0.91348791  1
  O  O172  1  0.62776051  0.74620200  0.15397443  1
  O  O173  1  0.62564906  0.74927516  0.41737817  1
  O  O174  1  0.62276068  0.75190637  0.67455013  1
  O  O175  1  0.62998932  0.74185718  0.91479956  1
  O  O176  1  0.87871721  0.00964920  0.15906900  1
  O  O177  1  0.87197493  -0.00242931  0.41549994  1
  O  O178  1  0.87311833  0.00328715  0.66350716  1
  O  O179  1  0.87972672  0.00285756  0.91090463  1
  O  O180  1  0.87740507  0.25275499  0.16252969  1
  O  O181  1  0.87011745  0.25672942  0.41443597  1
  O  O182  1  0.87057287  0.24434346  0.66102686  1
  O  O183  1  0.87912612  0.25043603  0.91427904  1
  O  O184  1  0.87722870  0.49784864  0.16057427  1
  O  O185  1  0.86929885  0.50405434  0.41863211  1
  O  O186  1  0.87040066  0.50901316  0.66826492  1
  O  O187  1  0.88221178  0.50179714  0.91116488  1
  O  O188  1  0.87929648  0.74010737  0.15661890  1
  O  O189  1  0.87190919  0.74557761  0.41739649  1
  O  O190  1  0.87156075  0.74191904  0.67344614  1
  O  O191  1  0.88334562  0.74100998  0.90740656  1
  O  O192  1  -0.00143401  0.12956267  0.16630471  1
  O  O193  1  -0.00364218  0.12389097  0.41884901  1
  O  O194  1  -0.00656995  0.12365508  0.65700254  1
  O  O195  1  0.01241990  0.13145178  0.90816413  1
  O  O196  1  -0.00758268  0.37566977  0.16863954  1
  O  O197  1  -0.01089313  0.38133541  0.41433241  1
  O  O198  1  0.00032480  0.37705521  0.66112956  1
  O  O199  1  0.00788878  0.37288017  0.91046507  1
  O  O200  1  -0.00370162  0.62025328  0.16452770  1
  O  O201  1  -0.01127616  0.62568936  0.41714207  1
  O  O202  1  -0.00441307  0.62653194  0.66349069  1
  O  O203  1  0.00562104  0.61867004  0.91400493  1
  O  O204  1  0.00134892  0.87450422  0.16964049  1
  O  O205  1  0.00390886  0.87031099  0.41260494  1
  O  O206  1  0.00677028  0.87195024  0.66317496  1
  O  O207  1  0.00260212  0.87468494  0.91102692  1
  O  O208  1  0.24102705  0.12888584  0.16490071  1
  O  O209  1  0.25049689  0.12336983  0.40977127  1
  O  O210  1  0.26070032  0.12208322  0.66168502  1
  O  O211  1  0.24457045  0.12990731  0.91636366  1
  O  O212  1  0.25331493  0.38087941  0.16691892  1
  O  O213  1  0.25432818  0.38056868  0.41025044  1
  O  O214  1  0.25528016  0.37584966  0.66041763  1
  O  O215  1  0.24344337  0.37507602  0.91277015  1
  O  O216  1  0.24449989  0.62231688  0.16019198  1
  O  O217  1  0.25757579  0.62829036  0.41119386  1
  O  O218  1  0.25068256  0.62706842  0.66620015  1
  O  O219  1  0.23753313  0.61829670  0.91042804  1
  O  O220  1  0.24387116  0.87027993  0.16525239  1
  O  O221  1  0.24540797  0.87031909  0.41222104  1
  O  O222  1  0.24971902  0.87300224  0.66674957  1
  O  O223  1  0.24735646  0.87563857  0.91551072  1
  O  O224  1  0.49983020  0.12808917  0.15942583  1
  O  O225  1  0.50940549  0.12270604  0.40824895  1
  O  O226  1  0.49400937  0.12223098  0.67005150  1
  O  O227  1  0.49247660  0.12627177  0.91196621  1
  O  O228  1  0.49255655  0.38060382  0.15868317  1
  O  O229  1  0.50421906  0.37895635  0.41691291  1
  O  O230  1  0.50138809  0.37580176  0.66866189  1
  O  O231  1  0.49752820  0.37322698  0.91636939  1
  O  O232  1  0.49396692  0.62348302  0.14853816  1
  O  O233  1  0.50078943  0.62901324  0.41522571  1
  O  O234  1  0.50322014  0.62637622  0.67382356  1
  O  O235  1  0.50122847  0.62252513  0.91023149  1
  O  O236  1  0.49953844  0.87042127  0.15419294  1
  O  O237  1  0.50620624  0.87212369  0.41203508  1
  O  O238  1  0.50185211  0.87315971  0.67219209  1
  O  O239  1  0.49641896  0.87688485  0.91671749  1
  O  O240  1  0.75831843  0.12916692  0.15706140  1
  O  O241  1  0.74520808  0.12401145  0.41590858  1
  O  O242  1  0.75159037  0.12289318  0.66600109  1
  O  O243  1  0.74758801  0.12660752  0.90641012  1
  O  O244  1  0.76032525  0.37587318  0.16044432  1
  O  O245  1  0.75181464  0.37885790  0.42000485  1
  O  O246  1  0.74148500  0.37676990  0.66648604  1
  O  O247  1  0.75117617  0.37338822  0.90995987  1
  O  O248  1  0.76071338  0.62164613  0.15454310  1
  O  O249  1  0.75258206  0.62756474  0.41870910  1
  O  O250  1  0.74643382  0.62606399  0.67337336  1
  O  O251  1  0.76213757  0.62247978  0.91086847  1
  O  O252  1  0.75356456  0.87415582  0.15760622  1
  O  O253  1  0.74388253  0.87198465  0.41642838  1
  O  O254  1  0.74215624  0.87250843  0.66950226  1
  O  O255  1  0.75419572  0.87425068  0.90895444  1
  O  O256  1  0.12259372  0.12834707  0.05057548  1
  O  O257  1  0.11678508  0.12629810  0.28853032  1
  O  O258  1  0.12600462  0.12286981  0.53078238  1
  O  O259  1  0.13111170  0.12857329  0.79258488  1
  O  O260  1  0.12031292  0.37793575  0.04401191  1
  O  O261  1  0.12352528  0.38744347  0.28484832  1
  O  O262  1  0.12483254  0.38094753  0.53209311  1
  O  O263  1  0.12770422  0.37227773  0.79492440  1
  O  O264  1  0.12240032  0.62130336  0.04965852  1
  O  O265  1  0.11775193  0.62341619  0.28837454  1
  O  O266  1  0.12624743  0.63095150  0.54896495  1
  O  O267  1  0.12079541  0.62199532  0.79374536  1
  O  O268  1  0.11757706  0.87236704  0.03386194  1
  O  O269  1  0.12451959  0.86824691  0.29678691  1
  O  O270  1  0.12926747  0.86957538  0.55342214  1
  O  O271  1  0.13024832  0.87329728  0.78230128  1
  O  O272  1  0.36258464  0.12827901  0.03848305  1
  O  O273  1  0.37087556  0.12846744  0.27579130  1
  O  O274  1  0.38371551  0.12029948  0.54859464  1
  O  O275  1  0.37216850  0.12756692  0.80189517  1
  O  O276  1  0.36761237  0.38045303  0.05051877  1
  O  O277  1  0.38317668  0.38345261  0.28173725  1
  O  O278  1  0.38279064  0.37784804  0.54942446  1
  O  O279  1  0.37817513  0.37360058  0.78397815  1
  O  O280  1  0.36772188  0.61981165  0.04281553  1
  O  O281  1  0.37866053  0.62700588  0.29737273  1
  O  O282  1  0.38033067  0.62924044  0.55731776  1
  O  O283  1  0.36899964  0.61852216  0.78345222  1
  O  O284  1  0.36655424  0.86904128  0.03483402  1
  O  O285  1  0.37291701  0.86439648  0.28033906  1
  O  O286  1  0.37808763  0.87529153  0.55288887  1
  O  O287  1  0.37274216  0.88018988  0.78741093  1
  O  O288  1  0.62067617  0.13027845  0.02790958  1
  O  O289  1  0.63258049  0.12700666  0.29570010  1
  O  O290  1  0.62134624  0.11903551  0.53984297  1
  O  O291  1  0.62294118  0.12493394  0.79986771  1
  O  O292  1  0.62829235  0.37307856  0.02991817  1
  O  O293  1  0.62865232  0.38346281  0.28395558  1
  O  O294  1  0.62223780  0.37733583  0.55351633  1
  O  O295  1  0.61851518  0.37570259  0.78880300  1
  O  O296  1  0.63635679  0.62164150  0.02141489  1
  O  O297  1  0.62735409  0.62708472  0.29688651  1
  O  O298  1  0.62479165  0.62793180  0.55542222  1
  O  O299  1  0.62835917  0.62547884  0.80625575  1
  O  O300  1  0.62895300  0.87523129  0.02239392  1
  O  O301  1  0.62789172  0.86943959  0.29243913  1
  O  O302  1  0.62202347  0.87352030  0.55750515  1
  O  O303  1  0.61684948  0.87027254  0.79411407  1
  O  O304  1  0.88155052  0.12969565  0.04751364  1
  O  O305  1  0.88099403  0.12646190  0.28538280  1
  O  O306  1  0.86654055  0.12289783  0.54749040  1
  O  O307  1  0.87679236  0.12411295  0.78233839  1
  O  O308  1  0.88395709  0.37379667  0.04664363  1
  O  O309  1  0.86939034  0.37747714  0.30295565  1
  O  O310  1  0.86427430  0.38117630  0.54187902  1
  O  O311  1  0.87417691  0.37136149  0.77849365  1
  O  O312  1  0.88322926  0.61929383  0.04290985  1
  O  O313  1  0.87079758  0.62407400  0.30131766  1
  O  O314  1  0.86920848  0.62959790  0.55456368  1
  O  O315  1  0.87891829  0.61985449  0.79634601  1
  O  O316  1  0.88517407  0.87986693  0.03505672  1
  O  O317  1  0.86744280  0.87092491  0.28397819  1
  O  O318  1  0.87263475  0.86324623  0.54703351  1
  O  O319  1  0.88143594  0.88178009  0.77738460  1
