# generated using pymatgen
data_VFe(PbO3)2
_symmetry_space_group_name_H-M   'P 1'
_cell_length_a   15.38430083
_cell_length_b   15.37832244
_cell_length_c   18.48720486
_cell_angle_alpha   89.99217285
_cell_angle_beta   90.04802565
_cell_angle_gamma   89.99598465
_symmetry_Int_Tables_number   1
_chemical_formula_structural   VFe(PbO3)2
_chemical_formula_sum   'V32 Fe32 Pb64 O192'
_cell_volume   4373.78894350
_cell_formula_units_Z   32
loop_
 _symmetry_equiv_pos_site_id
 _symmetry_equiv_pos_as_xyz
  1  'x, y, z'
loop_
 _atom_site_type_symbol
 _atom_site_label
 _atom_site_symmetry_multiplicity
 _atom_site_fract_x
 _atom_site_fract_y
 _atom_site_fract_z
 _atom_site_occupancy
  V  V0  1  0.37514560  0.62434457  0.89270250  1
  V  V1  1  0.12254303  0.62439658  0.39001008  1
  V  V2  1  0.37525873  0.87577388  0.63559772  1
  V  V3  1  0.37555848  0.12702804  0.38573697  1
  V  V4  1  0.12577047  0.87340593  0.89299240  1
  V  V5  1  0.37627660  0.37384881  0.63675996  1
  V  V6  1  0.87470718  0.37651032  0.13982459  1
  V  V7  1  0.87403893  0.37561878  0.64014525  1
  V  V8  1  0.12587032  0.12611100  0.63864170  1
  V  V9  1  0.37459943  0.37344908  0.89605131  1
  V  V10  1  0.63472247  0.12649693  0.15334578  1
  V  V11  1  0.62325380  0.62483774  0.38232936  1
  V  V12  1  0.12444175  0.37598062  0.89071749  1
  V  V13  1  0.87251170  0.12599010  0.63768843  1
  V  V14  1  0.12733234  0.62494107  0.88777316  1
  V  V15  1  0.12519834  0.12551205  0.38654894  1
  V  V16  1  0.12507070  0.12093049  0.13865407  1
  V  V17  1  0.62506087  0.87479237  0.14485149  1
  V  V18  1  0.62851550  0.62550928  0.14105297  1
  V  V19  1  0.87255313  0.87582107  0.88881600  1
  V  V20  1  0.62236241  0.62423485  0.63603613  1
  V  V21  1  0.62164260  0.62694606  0.89275982  1
  V  V22  1  0.12706970  0.37526400  0.39209782  1
  V  V23  1  0.12383518  0.37512055  0.13802196  1
  V  V24  1  0.62288681  0.12719071  0.63536159  1
  V  V25  1  0.11961691  0.62767874  0.13859068  1
  V  V26  1  0.87597288  0.87434652  0.14365445  1
  V  V27  1  0.87405389  0.62197123  0.39269579  1
  V  V28  1  0.37930024  0.12343975  0.13936331  1
  V  V29  1  0.87417416  0.62501717  0.88876300  1
  V  V30  1  0.12735042  0.12600224  0.89173117  1
  V  V31  1  0.62267642  0.12310768  0.89075726  1
  Fe  Fe32  1  0.62466780  0.87450752  0.38871194  1
  Fe  Fe33  1  0.37308490  0.37251683  0.14114999  1
  Fe  Fe34  1  0.37704368  0.87537039  0.88982166  1
  Fe  Fe35  1  0.37287628  0.87708595  0.14373394  1
  Fe  Fe36  1  0.62268309  0.87729193  0.62789027  1
  Fe  Fe37  1  0.37418971  0.62562229  0.14436726  1
  Fe  Fe38  1  0.62457259  0.37260423  0.63429972  1
  Fe  Fe39  1  0.62632796  0.12641110  0.37156648  1
  Fe  Fe40  1  0.87780406  0.37668987  0.38382940  1
  Fe  Fe41  1  0.62554743  0.37499964  0.14212342  1
  Fe  Fe42  1  0.87499115  0.62758131  0.13782060  1
  Fe  Fe43  1  0.87063826  0.62416735  0.63169771  1
  Fe  Fe44  1  0.37307307  0.62339852  0.37748118  1
  Fe  Fe45  1  0.87739723  0.87520424  0.39384948  1
  Fe  Fe46  1  0.37866536  0.62362349  0.63329245  1
  Fe  Fe47  1  0.37743965  0.12562813  0.63339691  1
  Fe  Fe48  1  0.12661825  0.87458183  0.39212424  1
  Fe  Fe49  1  0.37204062  0.87437236  0.37782346  1
  Fe  Fe50  1  0.87528287  0.12417892  0.88717717  1
  Fe  Fe51  1  0.12549605  0.87804790  0.62971689  1
  Fe  Fe52  1  0.37511161  0.12492110  0.88804811  1
  Fe  Fe53  1  0.12140215  0.87390189  0.13242102  1
  Fe  Fe54  1  0.12554767  0.37087127  0.63514931  1
  Fe  Fe55  1  0.37188064  0.37535769  0.37762100  1
  Fe  Fe56  1  0.87340555  0.87602216  0.62854184  1
  Fe  Fe57  1  0.87810696  0.12846513  0.37721179  1
  Fe  Fe58  1  0.62546987  0.37733300  0.37658011  1
  Fe  Fe59  1  0.88003592  0.12266240  0.14770250  1
  Fe  Fe60  1  0.62503119  0.37539320  0.89277618  1
  Fe  Fe61  1  0.62619568  0.87452693  0.88855765  1
  Fe  Fe62  1  0.87581030  0.37458454  0.88640068  1
  Fe  Fe63  1  0.12750371  0.62332775  0.63367849  1
  Pb  Pb64  1  0.00309331  -0.00274790  0.00183707  1
  Pb  Pb65  1  -0.00076087  -0.01277720  0.26094269  1
  Pb  Pb66  1  -0.00238913  -0.00713779  0.49857963  1
  Pb  Pb67  1  -0.00279834  0.00139397  0.74442911  1
  Pb  Pb68  1  -0.00833913  0.24236431  0.00242567  1
  Pb  Pb69  1  -0.00378718  0.25029847  0.25239490  1
  Pb  Pb70  1  0.00203504  0.25546775  0.49824947  1
  Pb  Pb71  1  -0.00944622  0.24841903  0.75457586  1
  Pb  Pb72  1  -0.00089590  0.50541709  -0.00257634  1
  Pb  Pb73  1  -0.00226578  0.49747358  0.25151548  1
  Pb  Pb74  1  0.00994898  0.50138570  0.50684728  1
  Pb  Pb75  1  0.00070451  0.50150622  0.74410039  1
  Pb  Pb76  1  0.00295502  0.75009608  -0.00028845  1
  Pb  Pb77  1  -0.00036961  0.76124637  0.25944059  1
  Pb  Pb78  1  0.00205119  0.75453249  0.50395923  1
  Pb  Pb79  1  -0.00051333  0.75095268  0.73709681  1
  Pb  Pb80  1  0.25300278  -0.01045489  0.00287349  1
  Pb  Pb81  1  0.24653128  -0.01267466  0.25092516  1
  Pb  Pb82  1  0.25275082  -0.00156483  0.49732164  1
  Pb  Pb83  1  0.26110159  0.00061386  0.75164067  1
  Pb  Pb84  1  0.25467907  0.25432468  0.00377605  1
  Pb  Pb85  1  0.25063979  0.25028792  0.25038495  1
  Pb  Pb86  1  0.25730063  0.24622627  0.50148395  1
  Pb  Pb87  1  0.25691692  0.24349353  0.75075888  1
  Pb  Pb88  1  0.26158890  0.50422623  0.00814565  1
  Pb  Pb89  1  0.25666234  0.50053732  0.24937972  1
  Pb  Pb90  1  0.25239220  0.50681865  0.50057312  1
  Pb  Pb91  1  0.24999035  0.50022604  0.74494777  1
  Pb  Pb92  1  0.26024844  0.75001910  0.00802358  1
  Pb  Pb93  1  0.25332114  0.75311468  0.24955297  1
  Pb  Pb94  1  0.25444640  0.74383316  0.49506244  1
  Pb  Pb95  1  0.25026121  0.75093807  0.74252937  1
  Pb  Pb96  1  0.49628667  -0.00490927  0.00104734  1
  Pb  Pb97  1  0.51089607  -0.00422738  0.25669775  1
  Pb  Pb98  1  0.50484722  -0.00171672  0.49209161  1
  Pb  Pb99  1  0.49820586  -0.00898613  0.75301221  1
  Pb  Pb100  1  0.50482012  0.25919272  0.00844961  1
  Pb  Pb101  1  0.50282607  0.25616173  0.25130987  1
  Pb  Pb102  1  0.50733042  0.25793860  0.49069532  1
  Pb  Pb103  1  0.50456542  0.24964052  0.75025725  1
  Pb  Pb104  1  0.49971884  0.49288528  0.01085763  1
  Pb  Pb105  1  0.49501359  0.49432083  0.24733210  1
  Pb  Pb106  1  0.49498440  0.49739390  0.48957840  1
  Pb  Pb107  1  0.50697501  0.49423611  0.75107606  1
  Pb  Pb108  1  0.49162589  0.75276914  0.00655352  1
  Pb  Pb109  1  0.49135081  0.75102097  0.25136700  1
  Pb  Pb110  1  0.49648324  0.75275059  0.49101640  1
  Pb  Pb111  1  0.50048159  0.76049490  0.75114688  1
  Pb  Pb112  1  0.75517841  0.01159484  0.00654845  1
  Pb  Pb113  1  0.75385703  -0.01064222  0.26214314  1
  Pb  Pb114  1  0.75017833  -0.00015251  0.48698299  1
  Pb  Pb115  1  0.74540766  -0.00092980  0.74307735  1
  Pb  Pb116  1  0.75234885  0.24973920  0.00112061  1
  Pb  Pb117  1  0.76221584  0.25324177  0.25671234  1
  Pb  Pb118  1  0.74668273  0.25251436  0.48445093  1
  Pb  Pb119  1  0.75658772  0.25084644  0.75534904  1
  Pb  Pb120  1  0.74851335  0.49588888  0.00083294  1
  Pb  Pb121  1  0.74937573  0.49342194  0.25183194  1
  Pb  Pb122  1  0.74976106  0.49799243  0.49724100  1
  Pb  Pb123  1  0.74559992  0.48982302  0.75204160  1
  Pb  Pb124  1  0.75645617  0.74367539  0.00263466  1
  Pb  Pb125  1  0.74989051  0.75654353  0.25778665  1
  Pb  Pb126  1  0.75614078  0.75128577  0.50068017  1
  Pb  Pb127  1  0.74620590  0.75476594  0.74066451  1
  O  O128  1  0.12327245  0.00548874  0.15862530  1
  O  O129  1  0.12595738  0.01007873  0.40993625  1
  O  O130  1  0.12524609  0.00831460  0.66420133  1
  O  O131  1  0.12284914  0.00267157  0.91631870  1
  O  O132  1  0.12245478  0.25590604  0.16255392  1
  O  O133  1  0.12791388  0.25247957  0.41216747  1
  O  O134  1  0.12451508  0.24341050  0.66619539  1
  O  O135  1  0.12580730  0.24668371  0.91541159  1
  O  O136  1  0.12129390  0.49502069  0.16380638  1
  O  O137  1  0.12313202  0.49830055  0.41456804  1
  O  O138  1  0.12622843  0.49533486  0.66772125  1
  O  O139  1  0.12425492  0.50163047  0.91552118  1
  O  O140  1  0.11781102  0.74338576  0.15708437  1
  O  O141  1  0.12458873  0.74094261  0.41002794  1
  O  O142  1  0.12777946  0.75169329  0.66099744  1
  O  O143  1  0.12327197  0.74786129  0.91572045  1
  O  O144  1  0.36591259  0.00870289  0.16384877  1
  O  O145  1  0.36976202  0.00892068  0.40695853  1
  O  O146  1  0.37572564  -0.00364755  0.66148655  1
  O  O147  1  0.37458393  0.00152087  0.91919812  1
  O  O148  1  0.36964591  0.24082519  0.16555919  1
  O  O149  1  0.36769272  0.24703669  0.40996817  1
  O  O150  1  0.37621037  0.25430614  0.66519124  1
  O  O151  1  0.37344846  0.25127742  0.91899859  1
  O  O152  1  0.37257326  0.49988868  0.16212813  1
  O  O153  1  0.37354958  0.49975847  0.40722257  1
  O  O154  1  0.37779629  0.49130017  0.66219744  1
  O  O155  1  0.37465667  0.50054420  0.92189170  1
  O  O156  1  0.37427406  0.75047124  0.16606324  1
  O  O157  1  0.37212401  0.74747014  0.40660420  1
  O  O158  1  0.37702515  0.75696482  0.65974129  1
  O  O159  1  0.37466161  0.74581981  0.91883132  1
  O  O160  1  0.62872591  -0.00515406  0.16948055  1
  O  O161  1  0.62127104  0.00500516  0.40704896  1
  O  O162  1  0.62477070  0.00855009  0.65936007  1
  O  O163  1  0.62738125  0.00501214  0.91803861  1
  O  O164  1  0.62337232  0.24318388  0.16190373  1
  O  O165  1  0.62369267  0.24982856  0.40164776  1
  O  O166  1  0.62589258  0.24427080  0.66559695  1
  O  O167  1  0.62551541  0.24239128  0.91678375  1
  O  O168  1  0.62910921  0.50808840  0.15991080  1
  O  O169  1  0.62657282  0.50804810  0.40869120  1
  O  O170  1  0.62328618  0.50207449  0.66378856  1
  O  O171  1  0.62435980  0.50933050  0.92055851  1
  O  O172  1  0.62872510  0.75409381  0.16701117  1
  O  O173  1  0.62821425  0.74008084  0.40996084  1
  O  O174  1  0.62235079  0.74479170  0.65754716  1
  O  O175  1  0.62678328  0.74321747  0.91777552  1
  O  O176  1  0.87531518  -0.00836993  0.16792554  1
  O  O177  1  0.88116934  0.00524634  0.40855744  1
  O  O178  1  0.87396267  0.00496851  0.66169417  1
  O  O179  1  0.87602428  -0.00608448  0.91331871  1
  O  O180  1  0.87816166  0.25797613  0.16346140  1
  O  O181  1  0.87931604  0.25207034  0.41198329  1
  O  O182  1  0.87374637  0.25076798  0.66673003  1
  O  O183  1  0.87587250  0.24878305  0.91883277  1
  O  O184  1  0.87542430  0.49609574  0.16294209  1
  O  O185  1  0.87841523  0.50434862  0.41608305  1
  O  O186  1  0.87204759  0.49313460  0.66152953  1
  O  O187  1  0.87648855  0.50427001  0.91361670  1
  O  O188  1  0.87560167  0.75570285  0.16870007  1
  O  O189  1  0.87691574  0.73958599  0.41481669  1
  O  O190  1  0.87151612  0.74984775  0.66072283  1
  O  O191  1  0.87606678  0.75276177  0.91485191  1
  O  O192  1  0.00997645  0.12992807  0.16520472  1
  O  O193  1  0.01016221  0.13223146  0.40879178  1
  O  O194  1  0.00162713  0.12643937  0.66302969  1
  O  O195  1  0.00651976  0.12441976  0.91656676  1
  O  O196  1  0.00032711  0.37659012  0.16398527  1
  O  O197  1  0.00713366  0.37604394  0.41573101  1
  O  O198  1  -0.00707151  0.37204518  0.66338487  1
  O  O199  1  0.00549875  0.37452479  0.91575884  1
  O  O200  1  0.00360455  0.61959880  0.16707806  1
  O  O201  1  0.00228755  0.62182357  0.41475521  1
  O  O202  1  -0.00142168  0.62161078  0.66115204  1
  O  O203  1  0.00099778  0.62602506  0.91358048  1
  O  O204  1  -0.00415302  0.87492113  0.16634472  1
  O  O205  1  0.00253859  0.87207023  0.41854169  1
  O  O206  1  -0.00033052  0.87849273  0.66016713  1
  O  O207  1  -0.00504659  0.87391251  0.91549956  1
  O  O208  1  0.24184889  0.12958022  0.16399095  1
  O  O209  1  0.24577790  0.12905714  0.41496326  1
  O  O210  1  0.24548133  0.12614168  0.66305492  1
  O  O211  1  0.24278417  0.12401413  0.91750160  1
  O  O212  1  0.24064069  0.37464538  0.16087444  1
  O  O213  1  0.24404005  0.37676531  0.41251331  1
  O  O214  1  0.25781348  0.37194116  0.66070405  1
  O  O215  1  0.24773073  0.37541961  0.92073372  1
  O  O216  1  0.23556194  0.62253316  0.16365513  1
  O  O217  1  0.24251653  0.61982065  0.40870276  1
  O  O218  1  0.25505195  0.62362797  0.66741151  1
  O  O219  1  0.24964605  0.62410940  0.91702452  1
  O  O220  1  0.24360213  0.87418814  0.16262261  1
  O  O221  1  0.25125505  0.87748936  0.41286302  1
  O  O222  1  0.25646775  0.87761392  0.65906351  1
  O  O223  1  0.24677027  0.87457647  0.91543085  1
  O  O224  1  0.49249673  0.12151285  0.16101075  1
  O  O225  1  0.49160265  0.12911812  0.40036913  1
  O  O226  1  0.50628862  0.12778447  0.65970827  1
  O  O227  1  0.50618232  0.12379415  0.91430917  1
  O  O228  1  0.49958143  0.37285406  0.16365134  1
  O  O229  1  0.49867496  0.37532754  0.40409763  1
  O  O230  1  0.49563566  0.37174002  0.66641101  1
  O  O231  1  0.49742824  0.37637502  0.92153984  1
  O  O232  1  0.51080879  0.62911129  0.16296658  1
  O  O233  1  0.50591126  0.62495217  0.40213480  1
  O  O234  1  0.50526619  0.62299522  0.66392342  1
  O  O235  1  0.50268219  0.62595278  0.91755827  1
  O  O236  1  0.50697488  0.87731120  0.16222212  1
  O  O237  1  0.49602183  0.87497894  0.40844593  1
  O  O238  1  0.49633697  0.87715227  0.66205521  1
  O  O239  1  0.50317778  0.87303713  0.92193519  1
  O  O240  1  0.74926502  0.12384955  0.16769602  1
  O  O241  1  0.75092920  0.12649814  0.39829811  1
  O  O242  1  0.74688629  0.12655809  0.66286629  1
  O  O243  1  0.74559812  0.12371295  0.91796106  1
  O  O244  1  0.75670992  0.37456709  0.16038497  1
  O  O245  1  0.75066172  0.37941533  0.40780188  1
  O  O246  1  0.75372363  0.37263680  0.66386724  1
  O  O247  1  0.75033289  0.37677349  0.91870748  1
  O  O248  1  0.74674884  0.62974306  0.16852438  1
  O  O249  1  0.75179126  0.62212447  0.40909179  1
  O  O250  1  0.74020833  0.62239324  0.66404120  1
  O  O251  1  0.74864120  0.62592663  0.91573014  1
  O  O252  1  0.75240801  0.87454704  0.16950122  1
  O  O253  1  0.75095424  0.87343832  0.41155600  1
  O  O254  1  0.74676777  0.87734118  0.65866132  1
  O  O255  1  0.75697493  0.87302450  0.91415316  1
  O  O256  1  0.12466650  0.12429189  0.04722096  1
  O  O257  1  0.12850403  0.12799525  0.29526259  1
  O  O258  1  0.12528663  0.12661446  0.54755211  1
  O  O259  1  0.12726926  0.12471741  0.80070462  1
  O  O260  1  0.12145964  0.37559488  0.04709168  1
  O  O261  1  0.12430877  0.37694428  0.30064019  1
  O  O262  1  0.11927287  0.37418744  0.53600905  1
  O  O263  1  0.12761639  0.37384689  0.79980214  1
  O  O264  1  0.11807944  0.62237293  0.04697954  1
  O  O265  1  0.11920378  0.61964226  0.29884759  1
  O  O266  1  0.13107053  0.61604590  0.53354526  1
  O  O267  1  0.12834304  0.62451786  0.79692377  1
  O  O268  1  0.11727717  0.87707784  0.03218412  1
  O  O269  1  0.11555811  0.87701175  0.28950066  1
  O  O270  1  0.12390944  0.87951432  0.52971285  1
  O  O271  1  0.12374783  0.87650639  0.80204126  1
  O  O272  1  0.37452967  0.12544581  0.04780772  1
  O  O273  1  0.36577806  0.12922972  0.29475422  1
  O  O274  1  0.37096858  0.12886765  0.53427475  1
  O  O275  1  0.36674826  0.12420758  0.78764035  1
  O  O276  1  0.37372553  0.37215119  0.03938789  1
  O  O277  1  0.36892342  0.37295068  0.27652745  1
  O  O278  1  0.38005553  0.37240963  0.54529714  1
  O  O279  1  0.37515095  0.37500772  0.80493841  1
  O  O280  1  0.36766989  0.62848300  0.04191012  1
  O  O281  1  0.37120222  0.62487964  0.27550296  1
  O  O282  1  0.37247134  0.62239162  0.53374398  1
  O  O283  1  0.37736980  0.62363488  0.80184134  1
  O  O284  1  0.37342347  0.87258782  0.04157997  1
  O  O285  1  0.36848828  0.87562343  0.27563572  1
  O  O286  1  0.37732075  0.87663239  0.54428870  1
  O  O287  1  0.38351772  0.87850545  0.78929184  1
  O  O288  1  0.62795569  0.11610637  0.06168753  1
  O  O289  1  0.61505696  0.12119917  0.26897520  1
  O  O290  1  0.62472548  0.12976959  0.54425265  1
  O  O291  1  0.62514874  0.12291548  0.79948847  1
  O  O292  1  0.61976037  0.37610044  0.03990287  1
  O  O293  1  0.62755858  0.38034969  0.27429416  1
  O  O294  1  0.62033768  0.37045922  0.53504797  1
  O  O295  1  0.62198778  0.38138844  0.79190228  1
  O  O296  1  0.63143428  0.63070513  0.04984725  1
  O  O297  1  0.62819363  0.62496147  0.29118494  1
  O  O298  1  0.62265663  0.62171080  0.54507721  1
  O  O299  1  0.62178935  0.62467347  0.80186860  1
  O  O300  1  0.63178186  0.87561795  0.05408008  1
  O  O301  1  0.63031848  0.87740473  0.28654983  1
  O  O302  1  0.61625578  0.87946335  0.52784658  1
  O  O303  1  0.61659029  0.87523027  0.78855797  1
  O  O304  1  0.87474065  0.12299501  0.04637228  1
  O  O305  1  0.88042986  0.13593142  0.27450851  1
  O  O306  1  0.87371792  0.12898030  0.54695545  1
  O  O307  1  0.87645220  0.13142201  0.78722041  1
  O  O308  1  0.87809635  0.37615894  0.04826375  1
  O  O309  1  0.87667397  0.37576292  0.28329146  1
  O  O310  1  0.87425192  0.37242923  0.54898958  1
  O  O311  1  0.87112330  0.36829682  0.78647878  1
  O  O312  1  0.87480269  0.63177174  0.03849706  1
  O  O313  1  0.87789142  0.62148609  0.30121383  1
  O  O314  1  0.86486401  0.62344249  0.53271776  1
  O  O315  1  0.87155617  0.62615646  0.79799675  1
  O  O316  1  0.87410446  0.87338522  0.05242702  1
  O  O317  1  0.88422972  0.87290011  0.29088276  1
  O  O318  1  0.87647642  0.87367214  0.52756434  1
  O  O319  1  0.87354350  0.87493410  0.79800446  1
