# generated using pymatgen
data_VFe(PbO3)2
_symmetry_space_group_name_H-M   'P 1'
_cell_length_a   15.38252849
_cell_length_b   15.37518205
_cell_length_c   18.55675217
_cell_angle_alpha   90.04577499
_cell_angle_beta   89.93503099
_cell_angle_gamma   90.00080830
_symmetry_Int_Tables_number   1
_chemical_formula_structural   VFe(PbO3)2
_chemical_formula_sum   'V32 Fe32 Pb64 O192'
_cell_volume   4388.83794054
_cell_formula_units_Z   32
loop_
 _symmetry_equiv_pos_site_id
 _symmetry_equiv_pos_as_xyz
  1  'x, y, z'
loop_
 _atom_site_type_symbol
 _atom_site_label
 _atom_site_symmetry_multiplicity
 _atom_site_fract_x
 _atom_site_fract_y
 _atom_site_fract_z
 _atom_site_occupancy
  V  V0  1  0.62508851  0.87510205  0.88049084  1
  V  V1  1  0.12543149  0.37679584  0.38950457  1
  V  V2  1  0.12490428  0.87745001  0.64131972  1
  V  V3  1  0.37403820  0.12771756  0.39492836  1
  V  V4  1  0.87459522  0.62609351  0.38779816  1
  V  V5  1  0.87354182  0.62400165  0.88895163  1
  V  V6  1  0.87438362  0.87146600  0.63997496  1
  V  V7  1  0.12184736  0.62769238  0.64311750  1
  V  V8  1  0.62928707  0.62474130  0.64336072  1
  V  V9  1  0.87425283  0.37433254  0.38655496  1
  V  V10  1  0.37480113  0.37365917  0.13636363  1
  V  V11  1  0.87584906  0.87755387  0.39058200  1
  V  V12  1  0.87442009  0.12622587  0.39292777  1
  V  V13  1  0.87195962  0.62920688  0.13519193  1
  V  V14  1  0.62402912  0.37384333  0.89000368  1
  V  V15  1  0.37247400  0.87772202  0.13624204  1
  V  V16  1  0.62341188  0.62473287  0.38909640  1
  V  V17  1  0.37389412  0.87541418  0.39558745  1
  V  V18  1  0.62352098  0.87709758  0.13885536  1
  V  V19  1  0.87373536  0.12586425  0.88559446  1
  V  V20  1  0.36750093  0.37739440  0.63802652  1
  V  V21  1  0.37511103  0.37451621  0.88750887  1
  V  V22  1  0.37502251  0.62453556  0.38849026  1
  V  V23  1  0.62111618  0.37577360  0.39058228  1
  V  V24  1  0.12377581  0.62394723  0.88990218  1
  V  V25  1  0.87154579  0.12165431  0.13796512  1
  V  V26  1  0.12502228  0.12371552  0.39553170  1
  V  V27  1  0.61471119  0.37785852  0.63706057  1
  V  V28  1  0.12752631  0.12486785  0.13734537  1
  V  V29  1  0.86859124  0.37813580  0.64111166  1
  V  V30  1  0.12342454  0.12610797  0.88459255  1
  V  V31  1  0.12036066  0.37758221  0.64048094  1
  Fe  Fe32  1  0.12586440  0.37306578  0.12757499  1
  Fe  Fe33  1  0.87918889  0.62131930  0.63911301  1
  Fe  Fe34  1  0.12538751  0.87602782  0.38920637  1
  Fe  Fe35  1  0.12436250  0.87679322  0.88275737  1
  Fe  Fe36  1  0.87963563  0.12673502  0.63379042  1
  Fe  Fe37  1  0.62760681  0.62486606  0.88919823  1
  Fe  Fe38  1  0.62387337  0.12575783  0.39442942  1
  Fe  Fe39  1  0.62745231  0.87266723  0.62885621  1
  Fe  Fe40  1  0.62832888  0.12412312  0.88251443  1
  Fe  Fe41  1  0.12686887  0.62685993  0.13232809  1
  Fe  Fe42  1  0.37652444  0.62969911  0.13150104  1
  Fe  Fe43  1  0.87433121  0.37386369  0.13126703  1
  Fe  Fe44  1  0.87516491  0.87420731  0.88812131  1
  Fe  Fe45  1  0.37543538  0.12621029  0.88082206  1
  Fe  Fe46  1  0.62160567  0.12339548  0.13403864  1
  Fe  Fe47  1  0.37645656  0.87548961  0.87363724  1
  Fe  Fe48  1  0.12608996  0.62730330  0.38385753  1
  Fe  Fe49  1  0.62482399  0.87328963  0.39977959  1
  Fe  Fe50  1  0.62552591  0.37352871  0.13312117  1
  Fe  Fe51  1  0.37604256  0.87197892  0.64314496  1
  Fe  Fe52  1  0.37307997  0.12872216  0.64104111  1
  Fe  Fe53  1  0.12671501  0.37439903  0.89652759  1
  Fe  Fe54  1  0.12122430  0.12794999  0.63510169  1
  Fe  Fe55  1  0.62323958  0.62574951  0.13019743  1
  Fe  Fe56  1  0.37429497  0.12129985  0.13351049  1
  Fe  Fe57  1  0.37565919  0.62448452  0.88114412  1
  Fe  Fe58  1  0.87581049  0.37460833  0.89326039  1
  Fe  Fe59  1  0.87218262  0.87787107  0.13279531  1
  Fe  Fe60  1  0.12366007  0.87710690  0.13160421  1
  Fe  Fe61  1  0.37333319  0.37441270  0.38617615  1
  Fe  Fe62  1  0.62762844  0.12852674  0.63450219  1
  Fe  Fe63  1  0.37164316  0.61849336  0.64896968  1
  Pb  Pb64  1  0.00181105  -0.00979516  -0.00172970  1
  Pb  Pb65  1  0.00259176  -0.00555358  0.24804038  1
  Pb  Pb66  1  -0.00030708  0.00852507  0.50422951  1
  Pb  Pb67  1  -0.00086401  -0.00649262  0.75107251  1
  Pb  Pb68  1  0.00008265  0.25551709  -0.00029365  1
  Pb  Pb69  1  0.00080071  0.25043809  0.24366990  1
  Pb  Pb70  1  -0.00107971  0.24616955  0.50296007  1
  Pb  Pb71  1  -0.00321379  0.25709233  0.75342795  1
  Pb  Pb72  1  0.00574392  0.49907604  0.00195664  1
  Pb  Pb73  1  0.00370267  0.50250912  0.23957794  1
  Pb  Pb74  1  -0.00546697  0.50362038  0.49828557  1
  Pb  Pb75  1  -0.00102332  0.48716959  0.76151959  1
  Pb  Pb76  1  0.00876862  0.75433156  0.00071668  1
  Pb  Pb77  1  0.00523705  0.75300201  0.24459859  1
  Pb  Pb78  1  0.00002163  0.74565731  0.49724313  1
  Pb  Pb79  1  0.00011092  0.75962337  0.75794862  1
  Pb  Pb80  1  0.25548875  -0.00310348  -0.01186236  1
  Pb  Pb81  1  0.24451324  -0.00569332  0.25073850  1
  Pb  Pb82  1  0.25908293  0.00084022  0.50941489  1
  Pb  Pb83  1  0.25965130  0.00171307  0.74856706  1
  Pb  Pb84  1  0.25460709  0.24822340  -0.00218126  1
  Pb  Pb85  1  0.25707781  0.25707108  0.24907017  1
  Pb  Pb86  1  0.24635569  0.24345905  0.50532380  1
  Pb  Pb87  1  0.24908394  0.24505379  0.75120225  1
  Pb  Pb88  1  0.25240246  0.51323290  0.00325266  1
  Pb  Pb89  1  0.24585737  0.50506928  0.24281307  1
  Pb  Pb90  1  0.25517038  0.50855337  0.50201516  1
  Pb  Pb91  1  0.23977790  0.49310282  0.75832056  1
  Pb  Pb92  1  0.25116358  0.75179270  -0.00862949  1
  Pb  Pb93  1  0.23811013  0.74686651  0.24827098  1
  Pb  Pb94  1  0.25566319  0.75072555  0.50482705  1
  Pb  Pb95  1  0.25636292  0.75085183  0.75322132  1
  Pb  Pb96  1  0.49890721  0.01187163  -0.00805064  1
  Pb  Pb97  1  0.50581351  0.00431751  0.25469218  1
  Pb  Pb98  1  0.50130794  0.00103145  0.50781293  1
  Pb  Pb99  1  0.50111379  -0.00201409  0.73801023  1
  Pb  Pb100  1  0.50563129  0.24284247  -0.00074513  1
  Pb  Pb101  1  0.50109683  0.24593198  0.24669934  1
  Pb  Pb102  1  0.49604702  0.24009331  0.50824135  1
  Pb  Pb103  1  0.50206193  0.23348937  0.75537369  1
  Pb  Pb104  1  0.50174668  0.50731504  -0.00080891  1
  Pb  Pb105  1  0.49651897  0.49867469  0.24225332  1
  Pb  Pb106  1  0.49227336  0.50804974  0.50309918  1
  Pb  Pb107  1  0.50288354  0.51150931  0.76088758  1
  Pb  Pb108  1  0.49655398  0.74429294  -0.00952398  1
  Pb  Pb109  1  0.50097156  0.75267962  0.24667197  1
  Pb  Pb110  1  0.49095293  0.75662500  0.50992403  1
  Pb  Pb111  1  0.49496671  0.74823297  0.74837972  1
  Pb  Pb112  1  0.75219167  -0.00312133  -0.00400746  1
  Pb  Pb113  1  0.73476331  0.00042281  0.25978000  1
  Pb  Pb114  1  0.74178559  0.00294408  0.50416536  1
  Pb  Pb115  1  0.74536757  0.00500944  0.74214935  1
  Pb  Pb116  1  0.74683854  0.25571747  0.00268062  1
  Pb  Pb117  1  0.74404334  0.24730310  0.24607622  1
  Pb  Pb118  1  0.74939213  0.24604648  0.50197349  1
  Pb  Pb119  1  0.74933230  0.24631442  0.75002126  1
  Pb  Pb120  1  0.74612268  0.49136540  0.00344285  1
  Pb  Pb121  1  0.74753076  0.49911335  0.24133872  1
  Pb  Pb122  1  0.75340416  0.50288470  0.49925684  1
  Pb  Pb123  1  0.74685802  0.50094904  0.75742125  1
  Pb  Pb124  1  0.75093119  0.75196817  -0.00227456  1
  Pb  Pb125  1  0.74383777  0.75879442  0.25002274  1
  Pb  Pb126  1  0.74869139  0.74937844  0.50168728  1
  Pb  Pb127  1  0.75534572  0.75264507  0.75269889  1
  O  O128  1  0.12505637  0.00561608  0.16532803  1
  O  O129  1  0.12576994  0.00300942  0.42012185  1
  O  O130  1  0.12058611  -0.00648159  0.65825502  1
  O  O131  1  0.12342408  0.00889990  0.90854004  1
  O  O132  1  0.12565683  0.24310639  0.16148938  1
  O  O133  1  0.12259756  0.25233216  0.41756146  1
  O  O134  1  0.12291703  0.26098749  0.66256923  1
  O  O135  1  0.12445826  0.24197894  0.91432157  1
  O  O136  1  0.12492047  0.49922798  0.15871949  1
  O  O137  1  0.12278577  0.49371619  0.41066452  1
  O  O138  1  0.12524755  0.49538586  0.66954404  1
  O  O139  1  0.12525365  0.50612912  0.91629275  1
  O  O140  1  0.12438836  0.75249261  0.16222440  1
  O  O141  1  0.12521621  0.75109876  0.41804550  1
  O  O142  1  0.12134804  0.74546776  0.66247043  1
  O  O143  1  0.12361432  0.74373786  0.90944814  1
  O  O144  1  0.37641909  -0.00762688  0.16693075  1
  O  O145  1  0.37399352  0.00141249  0.41920255  1
  O  O146  1  0.37241347  0.00075551  0.66046935  1
  O  O147  1  0.37550241  -0.00003410  0.90356453  1
  O  O148  1  0.37276815  0.25250668  0.16208472  1
  O  O149  1  0.37248391  0.24598076  0.41568283  1
  O  O150  1  0.37550653  0.26410686  0.66485718  1
  O  O151  1  0.37820169  0.25588392  0.91317562  1
  O  O152  1  0.37520836  0.49356193  0.15806849  1
  O  O153  1  0.37381184  0.50132888  0.41591910  1
  O  O154  1  0.37414160  0.48863659  0.67092930  1
  O  O155  1  0.37732471  0.49269038  0.91048454  1
  O  O156  1  0.37939091  0.76192194  0.16196976  1
  O  O157  1  0.37449010  0.75126736  0.41745222  1
  O  O158  1  0.37370136  0.74384655  0.66566940  1
  O  O159  1  0.37567924  0.75073891  0.90462850  1
  O  O160  1  0.62493217  -0.00457863  0.16710839  1
  O  O161  1  0.62396120  0.00056929  0.42236835  1
  O  O162  1  0.63140022  -0.00034348  0.65317264  1
  O  O163  1  0.62866834  -0.00693825  0.90536341  1
  O  O164  1  0.62450566  0.24824481  0.16555044  1
  O  O165  1  0.62679918  0.25921439  0.41418187  1
  O  O166  1  0.62800333  0.26432879  0.66385620  1
  O  O167  1  0.62578216  0.25496036  0.91108550  1
  O  O168  1  0.62434805  0.50001836  0.16210042  1
  O  O169  1  0.62626460  0.49839935  0.41652188  1
  O  O170  1  0.62980174  0.49237790  0.67032501  1
  O  O171  1  0.62628096  0.49267750  0.91342516  1
  O  O172  1  0.62450021  0.75742228  0.16319937  1
  O  O173  1  0.62507682  0.74180847  0.41805012  1
  O  O174  1  0.63033846  0.74066080  0.65839763  1
  O  O175  1  0.62900567  0.75687121  0.90891387  1
  O  O176  1  0.87652968  0.00729417  0.16568329  1
  O  O177  1  0.87523328  -0.00339968  0.41455853  1
  O  O178  1  0.87697567  -0.00883273  0.65999083  1
  O  O179  1  0.87672414  0.00787528  0.91037308  1
  O  O180  1  0.87709851  0.23985115  0.16451125  1
  O  O181  1  0.87552141  0.25249477  0.41510419  1
  O  O182  1  0.88112878  0.26065717  0.66327724  1
  O  O183  1  0.87659956  0.24122464  0.91410148  1
  O  O184  1  0.87325051  0.50725235  0.15876385  1
  O  O185  1  0.87573430  0.49932852  0.41428303  1
  O  O186  1  0.87847024  0.49359988  0.66976064  1
  O  O187  1  0.87734196  0.50778948  0.91530236  1
  O  O188  1  0.87169592  0.74750085  0.16157154  1
  O  O189  1  0.87526689  0.75085529  0.41415205  1
  O  O190  1  0.87747400  0.75064518  0.66547790  1
  O  O191  1  0.87733218  0.74158865  0.91474675  1
  O  O192  1  0.00352960  0.12397188  0.16314810  1
  O  O193  1  -0.00102548  0.12526140  0.41781673  1
  O  O194  1  -0.00015423  0.12607653  0.66839223  1
  O  O195  1  0.00095866  0.12580695  0.90843415  1
  O  O196  1  -0.00057762  0.37185509  0.15989192  1
  O  O197  1  0.00070231  0.37440707  0.41425333  1
  O  O198  1  0.00255039  0.37911171  0.66385762  1
  O  O199  1  0.00022608  0.37470831  0.91955864  1
  O  O200  1  -0.00795460  0.62741596  0.15980999  1
  O  O201  1  -0.00274791  0.62391293  0.41312794  1
  O  O202  1  0.00755608  0.61837350  0.66849953  1
  O  O203  1  0.00143158  0.62390192  0.91243994  1
  O  O204  1  -0.00268400  0.87834565  0.16318905  1
  O  O205  1  -0.00746158  0.87496613  0.41551404  1
  O  O206  1  -0.00033137  0.87040257  0.66535550  1
  O  O207  1  -0.00002010  0.87516381  0.91456242  1
  O  O208  1  0.24491210  0.12282714  0.16312794  1
  O  O209  1  0.25306079  0.12509183  0.42014063  1
  O  O210  1  0.24507267  0.13018382  0.66542860  1
  O  O211  1  0.24426827  0.12698572  0.90748266  1
  O  O212  1  0.25346414  0.37252580  0.16050701  1
  O  O213  1  0.24166201  0.37248677  0.41333394  1
  O  O214  1  0.24799861  0.37679382  0.66221082  1
  O  O215  1  0.25861717  0.37300051  0.91187016  1
  O  O216  1  0.25412011  0.62712674  0.16332506  1
  O  O217  1  0.25363998  0.62478870  0.41535962  1
  O  O218  1  0.23811187  0.61954963  0.67043780  1
  O  O219  1  0.24584866  0.62343730  0.90861977  1
  O  O220  1  0.25548676  0.87808326  0.15804901  1
  O  O221  1  0.25642889  0.87632135  0.42003851  1
  O  O222  1  0.23962056  0.87007662  0.66264609  1
  O  O223  1  0.24979168  0.87533338  0.90454348  1
  O  O224  1  0.49708617  0.12190740  0.16835036  1
  O  O225  1  0.49248993  0.12628426  0.41717726  1
  O  O226  1  0.50214358  0.13112709  0.66112666  1
  O  O227  1  0.50252073  0.12694193  0.90763824  1
  O  O228  1  0.49390434  0.37224889  0.16025412  1
  O  O229  1  0.50536935  0.37742815  0.41295844  1
  O  O230  1  0.50075980  0.38013108  0.64969369  1
  O  O231  1  0.50170888  0.37456316  0.91224684  1
  O  O232  1  0.49923198  0.62842640  0.16576343  1
  O  O233  1  0.49897755  0.62302907  0.41877742  1
  O  O234  1  0.51031799  0.61631321  0.66542099  1
  O  O235  1  0.50108336  0.62260601  0.91075420  1
  O  O236  1  0.50321386  0.87782097  0.16402791  1
  O  O237  1  0.49140390  0.87431330  0.42003535  1
  O  O238  1  0.50539727  0.87102749  0.65901365  1
  O  O239  1  0.50872390  0.87378377  0.89973278  1
  O  O240  1  0.75479391  0.12343327  0.16002854  1
  O  O241  1  0.75357861  0.12671592  0.41751020  1
  O  O242  1  0.75470141  0.13163295  0.66195866  1
  O  O243  1  0.75663691  0.12445559  0.90842064  1
  O  O244  1  0.75238205  0.37257594  0.16675109  1
  O  O245  1  0.75031594  0.37764034  0.41458151  1
  O  O246  1  0.75447185  0.37714269  0.66048374  1
  O  O247  1  0.74569564  0.37402413  0.91235557  1
  O  O248  1  0.75276494  0.62782494  0.16112261  1
  O  O249  1  0.74991253  0.62273134  0.41545749  1
  O  O250  1  0.74813584  0.61730150  0.66786668  1
  O  O251  1  0.75681970  0.62502527  0.91155241  1
  O  O252  1  0.74364318  0.87684243  0.16510197  1
  O  O253  1  0.76009378  0.87323621  0.42002851  1
  O  O254  1  0.75613776  0.86925647  0.66065567  1
  O  O255  1  0.74670896  0.87475658  0.91278331  1
  O  O256  1  0.12731946  0.12277905  0.04702501  1
  O  O257  1  0.12754208  0.12545658  0.30478334  1
  O  O258  1  0.12017880  0.13163393  0.53456662  1
  O  O259  1  0.12428356  0.12863929  0.79350411  1
  O  O260  1  0.12723391  0.37031923  0.02758147  1
  O  O261  1  0.12408845  0.37245178  0.29870030  1
  O  O262  1  0.12216749  0.38138354  0.54994138  1
  O  O263  1  0.12276247  0.38037512  0.79501241  1
  O  O264  1  0.12937641  0.62741762  0.03248444  1
  O  O265  1  0.12812134  0.62833071  0.28423840  1
  O  O266  1  0.12363482  0.62251821  0.55192269  1
  O  O267  1  0.12327966  0.62003684  0.79885968  1
  O  O268  1  0.12096432  0.87728168  0.03172977  1
  O  O269  1  0.12879587  0.88001548  0.28931692  1
  O  O270  1  0.12249170  0.87200768  0.55053069  1
  O  O271  1  0.11352825  0.87511496  0.78224562  1
  O  O272  1  0.37851867  0.12078205  0.03404220  1
  O  O273  1  0.37126307  0.12374816  0.30428875  1
  O  O274  1  0.37316608  0.13338356  0.53958051  1
  O  O275  1  0.37272961  0.13371755  0.77944180  1
  O  O276  1  0.37389006  0.37173931  0.04576807  1
  O  O277  1  0.37181847  0.37016035  0.28785318  1
  O  O278  1  0.36634512  0.38001992  0.54651186  1
  O  O279  1  0.37728742  0.37240047  0.79684917  1
  O  O280  1  0.37540061  0.62573090  0.03131408  1
  O  O281  1  0.37702583  0.62676247  0.29788606  1
  O  O282  1  0.37136722  0.61211565  0.54744151  1
  O  O283  1  0.38080969  0.62155758  0.77925044  1
  O  O284  1  0.37675081  0.87965087  0.04542713  1
  O  O285  1  0.37401483  0.87627459  0.30527422  1
  O  O286  1  0.37108420  0.86795779  0.54098956  1
  O  O287  1  0.37353577  0.87330514  0.77192069  1
  O  O288  1  0.61651404  0.12218065  0.03411194  1
  O  O289  1  0.62428562  0.11729812  0.29376585  1
  O  O290  1  0.62421191  0.13626887  0.53251974  1
  O  O291  1  0.63057915  0.13196975  0.78160152  1
  O  O292  1  0.63347035  0.37168125  0.03355784  1
  O  O293  1  0.62425681  0.37686943  0.29973859  1
  O  O294  1  0.62658094  0.38000462  0.54659842  1
  O  O295  1  0.62384368  0.37452490  0.79872652  1
  O  O296  1  0.62093970  0.62681352  0.03030937  1
  O  O297  1  0.62247598  0.62524851  0.29844729  1
  O  O298  1  0.62997913  0.61565918  0.55256751  1
  O  O299  1  0.62740174  0.61513152  0.78856244  1
  O  O300  1  0.62388400  0.87920272  0.04862319  1
  O  O301  1  0.63228312  0.87666365  0.29865029  1
  O  O302  1  0.62795420  0.86738270  0.52776773  1
  O  O303  1  0.63368510  0.87262710  0.78930476  1
  O  O304  1  0.87444832  0.12124818  0.04725250  1
  O  O305  1  0.87606435  0.12488874  0.30228093  1
  O  O306  1  0.88275900  0.12868672  0.53344229  1
  O  O307  1  0.87424821  0.12861342  0.79428883  1
  O  O308  1  0.86615326  0.36956671  0.03117250  1
  O  O309  1  0.87554334  0.37463653  0.29618924  1
  O  O310  1  0.87389280  0.38124058  0.54977529  1
  O  O311  1  0.88386237  0.37344701  0.79245239  1
  O  O312  1  0.87177516  0.62962603  0.04464675  1
  O  O313  1  0.87316515  0.62676367  0.29756680  1
  O  O314  1  0.87924998  0.61734903  0.53997380  1
  O  O315  1  0.87422434  0.62411758  0.79753013  1
  O  O316  1  0.86854249  0.88165421  0.03310872  1
  O  O317  1  0.87275164  0.87613438  0.29969475  1
  O  O318  1  0.87791243  0.86896048  0.54946265  1
  O  O319  1  0.87795147  0.86759486  0.78759073  1
