# generated using pymatgen
data_VFe(PbO3)2
_symmetry_space_group_name_H-M   'P 1'
_cell_length_a   15.39108419
_cell_length_b   15.39693164
_cell_length_c   18.49771248
_cell_angle_alpha   89.99392363
_cell_angle_beta   89.97792062
_cell_angle_gamma   89.99124885
_symmetry_Int_Tables_number   1
_chemical_formula_structural   VFe(PbO3)2
_chemical_formula_sum   'V32 Fe32 Pb64 O192'
_cell_volume   4383.50373118
_cell_formula_units_Z   32
loop_
 _symmetry_equiv_pos_site_id
 _symmetry_equiv_pos_as_xyz
  1  'x, y, z'
loop_
 _atom_site_type_symbol
 _atom_site_label
 _atom_site_symmetry_multiplicity
 _atom_site_fract_x
 _atom_site_fract_y
 _atom_site_fract_z
 _atom_site_occupancy
  V  V0  1  0.12723487  0.12598177  0.39219157  1
  V  V1  1  0.37628826  0.12173705  0.89391428  1
  V  V2  1  0.62541149  0.37267748  0.13992232  1
  V  V3  1  0.87355824  0.37330997  0.14085050  1
  V  V4  1  0.87656878  0.62267690  0.63980790  1
  V  V5  1  0.87323358  0.87760004  0.14579842  1
  V  V6  1  0.37305748  0.12773938  0.38830056  1
  V  V7  1  0.87433445  0.12393926  0.14264360  1
  V  V8  1  0.62457922  0.12552423  0.88805355  1
  V  V9  1  0.62604808  0.63633373  0.89615483  1
  V  V10  1  0.12749875  0.87122431  0.63592437  1
  V  V11  1  0.62632206  0.37879722  0.89377225  1
  V  V12  1  0.87557024  0.37720939  0.63830040  1
  V  V13  1  0.62480922  0.87477987  0.15447632  1
  V  V14  1  0.62502747  0.62234695  0.63398992  1
  V  V15  1  0.37536058  0.62335484  0.64041559  1
  V  V16  1  0.12241233  0.87377107  0.89263020  1
  V  V17  1  0.12956678  0.62548435  0.38540936  1
  V  V18  1  0.87404570  0.12897402  0.39393065  1
  V  V19  1  0.37035856  0.37502128  0.38805783  1
  V  V20  1  0.37713146  0.87547189  0.89272631  1
  V  V21  1  0.12292957  0.12455722  0.13455576  1
  V  V22  1  0.86957856  0.37748732  0.89071507  1
  V  V23  1  0.62794415  0.12275073  0.14786100  1
  V  V24  1  0.62383442  0.88020997  0.88906264  1
  V  V25  1  0.62590393  0.37882557  0.63801809  1
  V  V26  1  0.12700296  0.37806650  0.64626354  1
  V  V27  1  0.11944500  0.62669271  0.13216070  1
  V  V28  1  0.12713142  0.37330359  0.38975901  1
  V  V29  1  0.62523507  0.12500468  0.63477658  1
  V  V30  1  0.87471207  0.12165749  0.88790603  1
  V  V31  1  0.12648037  0.12139487  0.88988208  1
  Fe  Fe32  1  0.12148115  0.37317606  0.89613194  1
  Fe  Fe33  1  0.37517111  0.87865809  0.14475133  1
  Fe  Fe34  1  0.87909854  0.62091491  0.37583223  1
  Fe  Fe35  1  0.37398872  0.37020556  0.12419394  1
  Fe  Fe36  1  0.62337841  0.87768943  0.37799416  1
  Fe  Fe37  1  0.12000689  0.37400652  0.12304598  1
  Fe  Fe38  1  0.87534746  0.62821063  0.14922425  1
  Fe  Fe39  1  0.87027167  0.63012927  0.88665285  1
  Fe  Fe40  1  0.12099004  0.87620862  0.13928201  1
  Fe  Fe41  1  0.12520789  0.12531153  0.63712366  1
  Fe  Fe42  1  0.87747134  0.12811518  0.63200597  1
  Fe  Fe43  1  0.37514394  0.87365499  0.63268787  1
  Fe  Fe44  1  0.37773835  0.37454778  0.89681464  1
  Fe  Fe45  1  0.37117487  0.62107221  0.37650438  1
  Fe  Fe46  1  0.62118001  0.62094005  0.37365330  1
  Fe  Fe47  1  0.88221649  0.37472293  0.38395932  1
  Fe  Fe48  1  0.37565900  0.12637223  0.13091059  1
  Fe  Fe49  1  0.87475909  0.87239980  0.62530990  1
  Fe  Fe50  1  0.12256036  0.62769869  0.88202556  1
  Fe  Fe51  1  0.62082610  0.12958877  0.38372640  1
  Fe  Fe52  1  0.37051059  0.87499885  0.37664093  1
  Fe  Fe53  1  0.12641614  0.62293660  0.64494989  1
  Fe  Fe54  1  0.86884024  0.87647872  0.88532422  1
  Fe  Fe55  1  0.37758947  0.37679310  0.63975179  1
  Fe  Fe56  1  0.37415425  0.12765074  0.63604851  1
  Fe  Fe57  1  0.62426643  0.37108503  0.38073302  1
  Fe  Fe58  1  0.62372496  0.86858812  0.62847136  1
  Fe  Fe59  1  0.37622132  0.62707229  0.89786992  1
  Fe  Fe60  1  0.62760585  0.62501601  0.14797131  1
  Fe  Fe61  1  0.37321362  0.62403194  0.13231497  1
  Fe  Fe62  1  0.12651957  0.87850463  0.38070975  1
  Fe  Fe63  1  0.88140079  0.87532042  0.39512220  1
  Pb  Pb64  1  0.00388119  -0.00575652  0.00238790  1
  Pb  Pb65  1  -0.00090305  -0.00414859  0.25830978  1
  Pb  Pb66  1  -0.00089512  0.00484489  0.50378422  1
  Pb  Pb67  1  -0.00582835  -0.00394030  0.74079969  1
  Pb  Pb68  1  -0.00021990  0.24817063  0.00029601  1
  Pb  Pb69  1  -0.00477431  0.25292360  0.25001330  1
  Pb  Pb70  1  0.00461317  0.24295980  0.50720874  1
  Pb  Pb71  1  0.00409922  0.25441469  0.75281932  1
  Pb  Pb72  1  0.00021878  0.50538711  -0.00366225  1
  Pb  Pb73  1  -0.00424177  0.49745994  0.24794121  1
  Pb  Pb74  1  0.00712953  0.50690796  0.50088915  1
  Pb  Pb75  1  0.01012134  0.49720350  0.76045782  1
  Pb  Pb76  1  -0.00940732  0.74673032  -0.00113518  1
  Pb  Pb77  1  -0.00156739  0.76337196  0.25758208  1
  Pb  Pb78  1  0.00062257  0.75104741  0.49440894  1
  Pb  Pb79  1  -0.00289471  0.74533268  0.74955002  1
  Pb  Pb80  1  0.24938329  -0.01317205  0.00894402  1
  Pb  Pb81  1  0.25092837  -0.00559011  0.24640515  1
  Pb  Pb82  1  0.25804499  0.00035895  0.50030152  1
  Pb  Pb83  1  0.25309621  0.00126963  0.74413834  1
  Pb  Pb84  1  0.25370303  0.25255034  -0.00190290  1
  Pb  Pb85  1  0.25137512  0.25373990  0.23731921  1
  Pb  Pb86  1  0.25341579  0.24730195  0.50875539  1
  Pb  Pb87  1  0.25203605  0.25673602  0.75401528  1
  Pb  Pb88  1  0.24772355  0.49971149  -0.00749606  1
  Pb  Pb89  1  0.25083227  0.49890235  0.23244839  1
  Pb  Pb90  1  0.24502646  0.50448095  0.50517020  1
  Pb  Pb91  1  0.26237887  0.49835746  0.76480517  1
  Pb  Pb92  1  0.25071396  0.74782531  0.00241604  1
  Pb  Pb93  1  0.25325898  0.75222838  0.24140686  1
  Pb  Pb94  1  0.25780775  0.75757533  0.49319294  1
  Pb  Pb95  1  0.25058055  0.74126013  0.75341231  1
  Pb  Pb96  1  0.49194549  -0.00126492  0.00860490  1
  Pb  Pb97  1  0.49661084  -0.00201671  0.25474613  1
  Pb  Pb98  1  0.50222359  -0.01197421  0.49455027  1
  Pb  Pb99  1  0.50032620  -0.00289412  0.74114155  1
  Pb  Pb100  1  0.49579874  0.24532714  0.00295582  1
  Pb  Pb101  1  0.50667078  0.25127026  0.25031135  1
  Pb  Pb102  1  0.48807415  0.25259180  0.50243717  1
  Pb  Pb103  1  0.49534943  0.25691606  0.75040541  1
  Pb  Pb104  1  0.49282481  0.50645063  0.00859216  1
  Pb  Pb105  1  0.49552953  0.50377420  0.24393062  1
  Pb  Pb106  1  0.49930479  0.49994765  0.49003222  1
  Pb  Pb107  1  0.49148118  0.50200605  0.75965223  1
  Pb  Pb108  1  0.48809965  0.75599807  0.01530237  1
  Pb  Pb109  1  0.49042137  0.73589131  0.25085675  1
  Pb  Pb110  1  0.49902986  0.75259441  0.48209579  1
  Pb  Pb111  1  0.49800954  0.74543212  0.74618590  1
  Pb  Pb112  1  0.74595786  -0.00064219  0.00096024  1
  Pb  Pb113  1  0.75140241  -0.00408428  0.26337271  1
  Pb  Pb114  1  0.74382442  -0.01185848  0.49643807  1
  Pb  Pb115  1  0.75739711  -0.00933634  0.73950994  1
  Pb  Pb116  1  0.74932465  0.24577105  0.00120675  1
  Pb  Pb117  1  0.74398216  0.25274207  0.25819265  1
  Pb  Pb118  1  0.74772910  0.25395641  0.49447694  1
  Pb  Pb119  1  0.74923077  0.25079335  0.74438972  1
  Pb  Pb120  1  0.74914260  0.51674025  0.01708497  1
  Pb  Pb121  1  0.75137257  0.50322846  0.25377794  1
  Pb  Pb122  1  0.75143616  0.50076589  0.48249481  1
  Pb  Pb123  1  0.75374645  0.50858971  0.75061451  1
  Pb  Pb124  1  0.75026865  0.74192621  0.01300850  1
  Pb  Pb125  1  0.74783337  0.74977074  0.25902591  1
  Pb  Pb126  1  0.74725113  0.75061114  0.48274534  1
  Pb  Pb127  1  0.75794001  0.75283822  0.74678833  1
  O  O128  1  0.11853780  0.01044144  0.16306830  1
  O  O129  1  0.12810391  0.01018973  0.41068283  1
  O  O130  1  0.12596536  -0.00963484  0.66059903  1
  O  O131  1  0.12526241  -0.00023530  0.91822354  1
  O  O132  1  0.11731320  0.24270387  0.15753966  1
  O  O133  1  0.12921795  0.25384110  0.41592174  1
  O  O134  1  0.12387105  0.25899567  0.66830773  1
  O  O135  1  0.12057292  0.23712177  0.91339454  1
  O  O136  1  0.12191723  0.50329757  0.15191058  1
  O  O137  1  0.12982143  0.49478337  0.41495823  1
  O  O138  1  0.12296701  0.49420418  0.67334169  1
  O  O139  1  0.11802931  0.50197592  0.91215689  1
  O  O140  1  0.12147261  0.74428743  0.15901736  1
  O  O141  1  0.12882672  0.74180251  0.40386050  1
  O  O142  1  0.12638672  0.75428552  0.66522571  1
  O  O143  1  0.12441406  0.75843206  0.91337500  1
  O  O144  1  0.37706750  0.00706387  0.16615206  1
  O  O145  1  0.36798646  0.01093679  0.40608382  1
  O  O146  1  0.37666082  0.00050105  0.66361981  1
  O  O147  1  0.37690902  -0.00206530  0.92097653  1
  O  O148  1  0.37567977  0.24881986  0.16174307  1
  O  O149  1  0.36714930  0.25222659  0.41620585  1
  O  O150  1  0.37556391  0.25225894  0.67172282  1
  O  O151  1  0.37601610  0.24229395  0.91183863  1
  O  O152  1  0.37474881  0.49492701  0.15108267  1
  O  O153  1  0.36940065  0.49133089  0.40837677  1
  O  O154  1  0.37666589  0.50500850  0.66999367  1
  O  O155  1  0.38031810  0.50080933  0.92028067  1
  O  O156  1  0.37453828  0.74999066  0.16039806  1
  O  O157  1  0.37021494  0.74778181  0.40207932  1
  O  O158  1  0.37693020  0.74244720  0.66372542  1
  O  O159  1  0.37945013  0.75687969  0.92012076  1
  O  O160  1  0.63149130  0.00608322  0.17092220  1
  O  O161  1  0.62343442  0.00540656  0.40939210  1
  O  O162  1  0.62410320  0.00842165  0.65563266  1
  O  O163  1  0.62345184  0.00164960  0.91755256  1
  O  O164  1  0.63190882  0.24870884  0.16534008  1
  O  O165  1  0.62294833  0.25070358  0.41970615  1
  O  O166  1  0.62750246  0.25267778  0.66380380  1
  O  O167  1  0.62898984  0.24770149  0.91802985  1
  O  O168  1  0.63108250  0.48778661  0.15925991  1
  O  O169  1  0.62071638  0.49532236  0.40829936  1
  O  O170  1  0.62632768  0.50287299  0.66719882  1
  O  O171  1  0.63204744  0.49143065  0.91685411  1
  O  O172  1  0.63052317  0.75848278  0.16676174  1
  O  O173  1  0.62259337  0.74891667  0.39946717  1
  O  O174  1  0.62443671  0.74066595  0.65975361  1
  O  O175  1  0.62617052  0.75068251  0.91331605  1
  O  O176  1  0.87361235  0.00136167  0.17147476  1
  O  O177  1  0.88362027  0.01215967  0.41498858  1
  O  O178  1  0.87495310  -0.00084578  0.65675969  1
  O  O179  1  0.87238372  0.00244747  0.91647029  1
  O  O180  1  0.87543356  0.24838468  0.16675741  1
  O  O181  1  0.88372487  0.24708508  0.41685336  1
  O  O182  1  0.87404197  0.25638690  0.66448733  1
  O  O183  1  0.87268183  0.24330655  0.91585562  1
  O  O184  1  0.87426232  0.49007935  0.16032872  1
  O  O185  1  0.88163806  0.49932255  0.41225188  1
  O  O186  1  0.87489431  0.50168300  0.66893223  1
  O  O187  1  0.86886639  0.49276792  0.90994285  1
  O  O188  1  0.87365823  0.76110345  0.16769868  1
  O  O189  1  0.88161664  0.74369476  0.40912537  1
  O  O190  1  0.87305831  0.74303700  0.65769310  1
  O  O191  1  0.86909035  0.75457321  0.91849062  1
  O  O192  1  -0.00395361  0.12520194  0.16500393  1
  O  O193  1  0.00856692  0.13105619  0.41514881  1
  O  O194  1  0.00131168  0.12539794  0.66746924  1
  O  O195  1  0.00142426  0.11911831  0.91348502  1
  O  O196  1  -0.00547146  0.37075530  0.15840574  1
  O  O197  1  0.01261512  0.37432906  0.41502863  1
  O  O198  1  -0.00015997  0.37708617  0.66866964  1
  O  O199  1  -0.01542162  0.36924064  0.91596210  1
  O  O200  1  0.00549001  0.62363743  0.16050532  1
  O  O201  1  0.01259464  0.61868474  0.41050917  1
  O  O202  1  -0.00684997  0.62405041  0.66528351  1
  O  O203  1  -0.00430575  0.62912783  0.91344736  1
  O  O204  1  -0.00736862  0.88010679  0.16577809  1
  O  O205  1  0.00873946  0.87576465  0.41903240  1
  O  O206  1  0.00549868  0.87096789  0.65645992  1
  O  O207  1  0.00374599  0.87870439  0.91173909  1
  O  O208  1  0.24057711  0.12677090  0.15261614  1
  O  O209  1  0.24855317  0.13174881  0.41703732  1
  O  O210  1  0.24843183  0.12693186  0.67002733  1
  O  O211  1  0.24481157  0.12062719  0.91290551  1
  O  O212  1  0.24501033  0.36946214  0.14933134  1
  O  O213  1  0.24759817  0.37323885  0.41804680  1
  O  O214  1  0.24511012  0.37854843  0.66881235  1
  O  O215  1  0.24899068  0.37171053  0.91226392  1
  O  O216  1  0.24069905  0.62441190  0.15425836  1
  O  O217  1  0.24551413  0.61788512  0.41374455  1
  O  O218  1  0.25797444  0.62329837  0.66706571  1
  O  O219  1  0.24713682  0.62935569  0.91468384  1
  O  O220  1  0.24587751  0.87997852  0.16057964  1
  O  O221  1  0.24808972  0.87810975  0.41247992  1
  O  O222  1  0.24662255  0.87116928  0.66438780  1
  O  O223  1  0.24884954  0.87754956  0.91693439  1
  O  O224  1  0.51035401  0.12729257  0.16174618  1
  O  O225  1  0.48828092  0.13251548  0.40729125  1
  O  O226  1  0.50839460  0.13095848  0.66317738  1
  O  O227  1  0.50235409  0.12365375  0.91571292  1
  O  O228  1  0.50840583  0.36783283  0.15376842  1
  O  O229  1  0.48776269  0.37034916  0.40743117  1
  O  O230  1  0.50676926  0.37728300  0.66839329  1
  O  O231  1  0.51216312  0.37005849  0.91549441  1
  O  O232  1  0.50022012  0.62302679  0.15876430  1
  O  O233  1  0.49515572  0.61967625  0.40700194  1
  O  O234  1  0.49803030  0.62272528  0.66350666  1
  O  O235  1  0.51330216  0.62195238  0.92098649  1
  O  O236  1  0.50824524  0.88204862  0.16565819  1
  O  O237  1  0.49567996  0.87979467  0.40306084  1
  O  O238  1  0.50132754  0.87280892  0.66406479  1
  O  O239  1  0.50364396  0.87651701  0.92003947  1
  O  O240  1  0.75266118  0.12617762  0.17255315  1
  O  O241  1  0.75735504  0.13038133  0.40828871  1
  O  O242  1  0.74425882  0.12914510  0.65957814  1
  O  O243  1  0.74860841  0.12198386  0.91654980  1
  O  O244  1  0.75365517  0.36877879  0.16604665  1
  O  O245  1  0.75344735  0.37157897  0.40821276  1
  O  O246  1  0.75046200  0.37863385  0.66658678  1
  O  O247  1  0.75228309  0.36533683  0.91865452  1
  O  O248  1  0.75176501  0.62463732  0.17416735  1
  O  O249  1  0.74996092  0.62094974  0.39804424  1
  O  O250  1  0.75241693  0.62127567  0.66035707  1
  O  O251  1  0.74367558  0.62403770  0.92253111  1
  O  O252  1  0.75487831  0.88084869  0.17371613  1
  O  O253  1  0.75136191  0.87779217  0.40649350  1
  O  O254  1  0.74808161  0.87373209  0.65632916  1
  O  O255  1  0.74011951  0.87895062  0.91673073  1
  O  O256  1  0.11639441  0.12133861  0.04317826  1
  O  O257  1  0.12850356  0.12990256  0.30137464  1
  O  O258  1  0.12420268  0.13174221  0.53725294  1
  O  O259  1  0.12496692  0.11892304  0.79914995  1
  O  O260  1  0.11329412  0.36790408  0.02234939  1
  O  O261  1  0.12900557  0.37367892  0.29860605  1
  O  O262  1  0.12616336  0.38074794  0.55499027  1
  O  O263  1  0.11239048  0.37104480  0.79479051  1
  O  O264  1  0.11658074  0.62996652  0.04048954  1
  O  O265  1  0.13088618  0.61865913  0.29480266  1
  O  O266  1  0.12614207  0.61255950  0.54494970  1
  O  O267  1  0.12271382  0.63140275  0.78049613  1
  O  O268  1  0.12070510  0.88378862  0.03831278  1
  O  O269  1  0.11657578  0.87918585  0.27948874  1
  O  O270  1  0.13187321  0.86963675  0.54487228  1
  O  O271  1  0.12604631  0.87647754  0.80209292  1
  O  O272  1  0.38161237  0.12478520  0.03049429  1
  O  O273  1  0.36700958  0.13363050  0.29732015  1
  O  O274  1  0.37106697  0.13314444  0.53593185  1
  O  O275  1  0.37642429  0.11661476  0.80276275  1
  O  O276  1  0.38127904  0.36315729  0.02303157  1
  O  O277  1  0.36513689  0.36963904  0.29702474  1
  O  O278  1  0.37735855  0.37112856  0.54050791  1
  O  O279  1  0.38084513  0.38342233  0.79373857  1
  O  O280  1  0.38024734  0.63236972  0.02967808  1
  O  O281  1  0.37381689  0.61778792  0.27563520  1
  O  O282  1  0.37388572  0.62024589  0.54950284  1
  O  O283  1  0.38149849  0.62334222  0.79609117  1
  O  O284  1  0.38283007  0.87924109  0.04195553  1
  O  O285  1  0.36951745  0.88238148  0.27512180  1
  O  O286  1  0.37166256  0.87569057  0.53267953  1
  O  O287  1  0.37814038  0.87495096  0.80164575  1
  O  O288  1  0.63411253  0.12190235  0.05633994  1
  O  O289  1  0.62326319  0.13871265  0.28350216  1
  O  O290  1  0.62379446  0.12830115  0.54391092  1
  O  O291  1  0.62542892  0.12567119  0.79742829  1
  O  O292  1  0.63416253  0.36747779  0.04884049  1
  O  O293  1  0.62208045  0.36392994  0.28046142  1
  O  O294  1  0.62461729  0.37888862  0.54717600  1
  O  O295  1  0.62973061  0.37695777  0.80267637  1
  O  O296  1  0.63999723  0.62470627  0.04495212  1
  O  O297  1  0.61629898  0.61781545  0.27197342  1
  O  O298  1  0.62263744  0.61971548  0.54325234  1
  O  O299  1  0.62776572  0.62778569  0.80516726  1
  O  O300  1  0.63300590  0.88274351  0.06310406  1
  O  O301  1  0.63077845  0.88421117  0.27601897  1
  O  O302  1  0.62172597  0.87875362  0.52835476  1
  O  O303  1  0.62282987  0.87794129  0.79796916  1
  O  O304  1  0.87125663  0.12105142  0.05158039  1
  O  O305  1  0.88230332  0.13061281  0.30232038  1
  O  O306  1  0.88716933  0.13024200  0.53273932  1
  O  O307  1  0.87337984  0.12233771  0.79687546  1
  O  O308  1  0.86939618  0.36910097  0.04972565  1
  O  O309  1  0.88938105  0.37382525  0.28417828  1
  O  O310  1  0.87707943  0.37911528  0.54759124  1
  O  O311  1  0.86850995  0.37297405  0.79957178  1
  O  O312  1  0.86520199  0.63065157  0.04609198  1
  O  O313  1  0.88519075  0.61495959  0.27433416  1
  O  O314  1  0.87912092  0.61717979  0.54918315  1
  O  O315  1  0.86481871  0.63193971  0.78664808  1
  O  O316  1  0.86939699  0.88085331  0.05455546  1
  O  O317  1  0.88889504  0.88103116  0.29290450  1
  O  O318  1  0.87536977  0.87328580  0.52470199  1
  O  O319  1  0.86534949  0.87399833  0.78528792  1
