# generated using pymatgen
data_VFe(PbO3)2
_symmetry_space_group_name_H-M   'P 1'
_cell_length_a   15.37969356
_cell_length_b   15.38467655
_cell_length_c   18.50284232
_cell_angle_alpha   89.99063444
_cell_angle_beta   89.98420268
_cell_angle_gamma   89.97483557
_symmetry_Int_Tables_number   1
_chemical_formula_structural   VFe(PbO3)2
_chemical_formula_sum   'V32 Fe32 Pb64 O192'
_cell_volume   4377.98667892
_cell_formula_units_Z   32
loop_
 _symmetry_equiv_pos_site_id
 _symmetry_equiv_pos_as_xyz
  1  'x, y, z'
loop_
 _atom_site_type_symbol
 _atom_site_label
 _atom_site_symmetry_multiplicity
 _atom_site_fract_x
 _atom_site_fract_y
 _atom_site_fract_z
 _atom_site_occupancy
  V  V0  1  0.12401354  0.38129552  0.88796491  1
  V  V1  1  0.36853041  0.87070405  0.64433238  1
  V  V2  1  0.62774137  0.37518807  0.88831838  1
  V  V3  1  0.87266321  0.62650507  0.63814884  1
  V  V4  1  0.12532760  0.62334922  0.64094181  1
  V  V5  1  0.87398657  0.87784267  0.39057349  1
  V  V6  1  0.37588117  0.87912393  0.38825070  1
  V  V7  1  0.87409734  0.87433539  0.89261001  1
  V  V8  1  0.37386306  0.87441254  0.89521361  1
  V  V9  1  0.62229253  0.12308015  0.39241246  1
  V  V10  1  0.11997972  0.87538848  0.64242960  1
  V  V11  1  0.37572961  0.37139470  0.38861282  1
  V  V12  1  0.87628682  0.12611949  0.13762019  1
  V  V13  1  0.37170305  0.62424841  0.89254089  1
  V  V14  1  0.37338845  0.62386489  0.13454105  1
  V  V15  1  0.12801167  0.87374206  0.38667192  1
  V  V16  1  0.62110711  0.87718319  0.38580295  1
  V  V17  1  0.87550715  0.62070391  0.89580133  1
  V  V18  1  0.87315928  0.37568917  0.13803799  1
  V  V19  1  0.62233891  0.37346779  0.39108152  1
  V  V20  1  0.62327742  0.62111932  0.64125716  1
  V  V21  1  0.62349941  0.87379245  0.64508978  1
  V  V22  1  0.12260455  0.87404534  0.89106456  1
  V  V23  1  0.12453869  0.87430058  0.13584067  1
  V  V24  1  0.37601303  0.12581798  0.39205695  1
  V  V25  1  0.87514821  0.11669966  0.64123783  1
  V  V26  1  0.62634828  0.12793639  0.13132724  1
  V  V27  1  0.87490041  0.37453002  0.64007636  1
  V  V28  1  0.37419610  0.37818636  0.64084287  1
  V  V29  1  0.62183527  0.62599612  0.89566109  1
  V  V30  1  0.12383000  0.12884278  0.89121381  1
  V  V31  1  0.12592563  0.62589352  0.38685750  1
  Fe  Fe32  1  0.12572289  0.37624576  0.63534725  1
  Fe  Fe33  1  0.37519813  0.38021344  0.89719629  1
  Fe  Fe34  1  0.87357048  0.86949651  0.63566566  1
  Fe  Fe35  1  0.87227120  0.12569656  0.38591827  1
  Fe  Fe36  1  0.87539499  0.37246749  0.38296528  1
  Fe  Fe37  1  0.62302908  0.62861621  0.37912456  1
  Fe  Fe38  1  0.87594121  0.87856693  0.13175501  1
  Fe  Fe39  1  0.37280916  0.12367403  0.64291436  1
  Fe  Fe40  1  0.12502874  0.62543291  0.12841480  1
  Fe  Fe41  1  0.62560281  0.87221583  0.89548814  1
  Fe  Fe42  1  0.62587422  0.62314289  0.13737591  1
  Fe  Fe43  1  0.12748757  0.37323488  0.38095364  1
  Fe  Fe44  1  0.12511737  0.12779440  0.63734032  1
  Fe  Fe45  1  0.12364768  0.62945601  0.89677995  1
  Fe  Fe46  1  0.87729535  0.37655585  0.88563558  1
  Fe  Fe47  1  0.87687445  0.62643539  0.13769153  1
  Fe  Fe48  1  0.87415545  0.62471950  0.38032170  1
  Fe  Fe49  1  0.62677512  0.37339086  0.13273747  1
  Fe  Fe50  1  0.37468353  0.62422606  0.38622045  1
  Fe  Fe51  1  0.12336841  0.12470943  0.13091574  1
  Fe  Fe52  1  0.62796600  0.12429503  0.87901834  1
  Fe  Fe53  1  0.37689791  0.37324397  0.12525686  1
  Fe  Fe54  1  0.62398245  0.37606735  0.63650029  1
  Fe  Fe55  1  0.87721295  0.12673253  0.88334974  1
  Fe  Fe56  1  0.37443673  0.87589822  0.12953986  1
  Fe  Fe57  1  0.12478995  0.37498655  0.13802374  1
  Fe  Fe58  1  0.37481234  0.12479232  0.12244591  1
  Fe  Fe59  1  0.62652519  0.87656382  0.12588853  1
  Fe  Fe60  1  0.37517369  0.12584828  0.89112222  1
  Fe  Fe61  1  0.12626839  0.12131681  0.38453516  1
  Fe  Fe62  1  0.37649695  0.62778276  0.63696177  1
  Fe  Fe63  1  0.62409417  0.12638655  0.64800364  1
  Pb  Pb64  1  0.00186624  -0.00061729  0.00241980  1
  Pb  Pb65  1  0.00384880  0.00959010  0.25093021  1
  Pb  Pb66  1  0.00324276  0.00492756  0.49814133  1
  Pb  Pb67  1  -0.00586941  0.00506797  0.75385555  1
  Pb  Pb68  1  0.00900775  0.25130508  0.00085690  1
  Pb  Pb69  1  0.00332425  0.25594418  0.25212240  1
  Pb  Pb70  1  0.00445452  0.24877062  0.49141070  1
  Pb  Pb71  1  -0.00673994  0.25183516  0.74916873  1
  Pb  Pb72  1  0.00747569  0.50011547  0.00730066  1
  Pb  Pb73  1  0.00042562  0.49781592  0.24610906  1
  Pb  Pb74  1  0.00209781  0.49354266  0.49304092  1
  Pb  Pb75  1  -0.00193241  0.49878592  0.75215326  1
  Pb  Pb76  1  -0.01125301  0.74877474  0.00867673  1
  Pb  Pb77  1  -0.00529861  0.74539246  0.24402860  1
  Pb  Pb78  1  -0.00556830  0.75522570  0.49813629  1
  Pb  Pb79  1  0.00359462  0.73961609  0.75513424  1
  Pb  Pb80  1  0.25064337  0.00554302  0.00357950  1
  Pb  Pb81  1  0.24721778  0.00814720  0.24190401  1
  Pb  Pb82  1  0.25053314  0.00922541  0.50543765  1
  Pb  Pb83  1  0.25384018  0.00779031  0.75718986  1
  Pb  Pb84  1  0.25721773  0.25179835  0.00181610  1
  Pb  Pb85  1  0.24525470  0.24752084  0.23751906  1
  Pb  Pb86  1  0.24050644  0.24661412  0.50054090  1
  Pb  Pb87  1  0.25452227  0.24908644  0.75142600  1
  Pb  Pb88  1  0.24051218  0.49368737  0.00746937  1
  Pb  Pb89  1  0.24704619  0.49342106  0.24294999  1
  Pb  Pb90  1  0.24826395  0.49433423  0.49995192  1
  Pb  Pb91  1  0.25130927  0.49808348  0.75423462  1
  Pb  Pb92  1  0.25398108  0.75443275  0.00449583  1
  Pb  Pb93  1  0.25768900  0.74377783  0.24697969  1
  Pb  Pb94  1  0.25550087  0.74661285  0.50006362  1
  Pb  Pb95  1  0.24206904  0.74056330  0.75637412  1
  Pb  Pb96  1  0.50441155  0.00214620  -0.00578695  1
  Pb  Pb97  1  0.49767500  -0.00221321  0.23612136  1
  Pb  Pb98  1  0.49775696  0.01100931  0.51143147  1
  Pb  Pb99  1  0.50016944  0.00638694  0.75813822  1
  Pb  Pb100  1  0.49476121  0.25029290  -0.00719386  1
  Pb  Pb101  1  0.49554761  0.25195734  0.23826637  1
  Pb  Pb102  1  0.50582578  0.24807575  0.51023247  1
  Pb  Pb103  1  0.49645995  0.24496921  0.75256747  1
  Pb  Pb104  1  0.51240077  0.49912737  0.00836833  1
  Pb  Pb105  1  0.50212634  0.50443171  0.24528741  1
  Pb  Pb106  1  0.49916787  0.50098526  0.49766116  1
  Pb  Pb107  1  0.48917153  0.49140640  0.75794794  1
  Pb  Pb108  1  0.50240901  0.75597706  0.00721955  1
  Pb  Pb109  1  0.50307834  0.74608490  0.24289840  1
  Pb  Pb110  1  0.49559283  0.74515762  0.49714935  1
  Pb  Pb111  1  0.50638334  0.75629783  0.75727491  1
  Pb  Pb112  1  0.74787164  -0.00181155  -0.00512481  1
  Pb  Pb113  1  0.75279537  0.00360840  0.24432889  1
  Pb  Pb114  1  0.74363443  0.00227146  0.50287108  1
  Pb  Pb115  1  0.74082820  -0.00298905  0.75775334  1
  Pb  Pb116  1  0.75346796  0.25093001  -0.00816356  1
  Pb  Pb117  1  0.76087994  0.24952286  0.25360272  1
  Pb  Pb118  1  0.74362540  0.24936051  0.50245806  1
  Pb  Pb119  1  0.75031058  0.24608160  0.75059314  1
  Pb  Pb120  1  0.74490372  0.50306462  0.00783063  1
  Pb  Pb121  1  0.74978955  0.50788876  0.24783910  1
  Pb  Pb122  1  0.75052395  0.50266758  0.49118264  1
  Pb  Pb123  1  0.75477566  0.49645512  0.75227263  1
  Pb  Pb124  1  0.75545281  0.74275979  0.00938930  1
  Pb  Pb125  1  0.74865383  0.74934394  0.23957552  1
  Pb  Pb126  1  0.75162179  0.75350560  0.49484049  1
  Pb  Pb127  1  0.74518242  0.75313309  0.75533053  1
  O  O128  1  0.12323147  -0.00466513  0.16268440  1
  O  O129  1  0.12588185  -0.00846489  0.41543590  1
  O  O130  1  0.12560826  -0.01014135  0.66622517  1
  O  O131  1  0.12613846  -0.00747174  0.91492409  1
  O  O132  1  0.12222343  0.24914354  0.15954774  1
  O  O133  1  0.12990959  0.24807962  0.41035129  1
  O  O134  1  0.12473204  0.25258916  0.66592304  1
  O  O135  1  0.12287291  0.24857829  0.90604345  1
  O  O136  1  0.12482766  0.50185417  0.16326510  1
  O  O137  1  0.12855763  0.50797965  0.40841177  1
  O  O138  1  0.12412528  0.50370207  0.66637716  1
  O  O139  1  0.12381678  0.49767584  0.91055462  1
  O  O140  1  0.12615062  0.75556145  0.15624543  1
  O  O141  1  0.12647505  0.75074643  0.41603398  1
  O  O142  1  0.12449152  0.75216309  0.67010357  1
  O  O143  1  0.12572401  0.75922532  0.91821186  1
  O  O144  1  0.37659867  0.00167304  0.15585523  1
  O  O145  1  0.37628821  -0.00345436  0.41597480  1
  O  O146  1  0.37524967  -0.01419084  0.67125502  1
  O  O147  1  0.37243825  -0.00832006  0.91069240  1
  O  O148  1  0.37646474  0.24713724  0.15520386  1
  O  O149  1  0.37609130  0.25168918  0.41703265  1
  O  O150  1  0.37333439  0.25761914  0.66338669  1
  O  O151  1  0.37312120  0.25286741  0.91022820  1
  O  O152  1  0.37472195  0.50608724  0.15462692  1
  O  O153  1  0.37788869  0.49162663  0.41130934  1
  O  O154  1  0.37578252  0.49982425  0.66593844  1
  O  O155  1  0.37721704  0.51151380  0.91851660  1
  O  O156  1  0.37343969  0.74650342  0.16020181  1
  O  O157  1  0.37506832  0.75868472  0.41366919  1
  O  O158  1  0.37832049  0.75512822  0.67079331  1
  O  O159  1  0.37662332  0.74550186  0.91882611  1
  O  O160  1  0.62768493  0.01063427  0.15730658  1
  O  O161  1  0.62261086  -0.00176051  0.42064443  1
  O  O162  1  0.62625903  -0.00900741  0.66745508  1
  O  O163  1  0.62688613  -0.00067633  0.90998359  1
  O  O164  1  0.62955832  0.24278827  0.16067544  1
  O  O165  1  0.61980536  0.24893252  0.41992981  1
  O  O166  1  0.62541457  0.25429828  0.66989621  1
  O  O167  1  0.62836941  0.25790507  0.90198393  1
  O  O168  1  0.62543484  0.49666831  0.16643123  1
  O  O169  1  0.61921536  0.49181436  0.40817069  1
  O  O170  1  0.62677868  0.50583729  0.66342715  1
  O  O171  1  0.62902828  0.50561415  0.91710806  1
  O  O172  1  0.62471689  0.75093735  0.15499350  1
  O  O173  1  0.62288501  0.75764172  0.40993521  1
  O  O174  1  0.62614885  0.74831562  0.66988366  1
  O  O175  1  0.62749222  0.74187168  0.91795719  1
  O  O176  1  0.87477567  0.00736836  0.16119548  1
  O  O177  1  0.87249548  -0.00622085  0.41617637  1
  O  O178  1  0.87586645  -0.00029451  0.66166921  1
  O  O179  1  0.87923521  -0.00659348  0.91101012  1
  O  O180  1  0.87306604  0.24594679  0.16230403  1
  O  O181  1  0.87184589  0.24967925  0.41831920  1
  O  O182  1  0.87687947  0.25383931  0.65949216  1
  O  O183  1  0.87924017  0.25215128  0.91411828  1
  O  O184  1  0.87593145  0.49264412  0.15590514  1
  O  O185  1  0.87361341  0.49952362  0.41312147  1
  O  O186  1  0.87390778  0.50253780  0.66659111  1
  O  O187  1  0.87593644  0.50493900  0.91536302  1
  O  O188  1  0.87618310  0.75489490  0.16299452  1
  O  O189  1  0.87399778  0.75506136  0.41254947  1
  O  O190  1  0.87328582  0.74464586  0.66772946  1
  O  O191  1  0.87782327  0.75157483  0.91669701  1
  O  O192  1  -0.00705867  0.12505922  0.15995687  1
  O  O193  1  -0.00074594  0.12041423  0.41349471  1
  O  O194  1  -0.00484711  0.12338784  0.66473566  1
  O  O195  1  0.00633978  0.12019857  0.91452102  1
  O  O196  1  -0.00859532  0.37026804  0.16250021  1
  O  O197  1  0.00275303  0.37613688  0.41169274  1
  O  O198  1  -0.00647899  0.38046495  0.66280084  1
  O  O199  1  0.00754220  0.37605690  0.91407415  1
  O  O200  1  0.00268257  0.62608936  0.16132367  1
  O  O201  1  0.00787919  0.62794594  0.41072589  1
  O  O202  1  -0.00163691  0.62644225  0.66659860  1
  O  O203  1  -0.00670897  0.62768108  0.91577857  1
  O  O204  1  0.00695443  0.87730866  0.16263864  1
  O  O205  1  -0.00221710  0.87365450  0.41211943  1
  O  O206  1  0.00418415  0.87128256  0.66415166  1
  O  O207  1  0.00304169  0.87428757  0.91326918  1
  O  O208  1  0.24972936  0.12237374  0.15472099  1
  O  O209  1  0.25563045  0.12060308  0.41575035  1
  O  O210  1  0.24815111  0.12184022  0.67179039  1
  O  O211  1  0.24039388  0.12055884  0.91170424  1
  O  O212  1  0.25394808  0.37568128  0.15922708  1
  O  O213  1  0.25804625  0.37517579  0.41149412  1
  O  O214  1  0.25607878  0.38021848  0.66718511  1
  O  O215  1  0.23996060  0.37650145  0.91330562  1
  O  O216  1  0.25376797  0.62678364  0.15886595  1
  O  O217  1  0.24502288  0.62873955  0.41497730  1
  O  O218  1  0.24805845  0.62838897  0.66690713  1
  O  O219  1  0.25618818  0.62854279  0.91186775  1
  O  O220  1  0.24370430  0.87645781  0.16038208  1
  O  O221  1  0.25479953  0.87497783  0.41286948  1
  O  O222  1  0.25027708  0.86909785  0.66507019  1
  O  O223  1  0.25009745  0.87126785  0.91561349  1
  O  O224  1  0.50817054  0.12644014  0.15042153  1
  O  O225  1  0.49881219  0.12283345  0.42377777  1
  O  O226  1  0.49648508  0.12204300  0.67082246  1
  O  O227  1  0.50355462  0.12574120  0.90763950  1
  O  O228  1  0.50003376  0.37332597  0.15959975  1
  O  O229  1  0.49755855  0.37049073  0.41827419  1
  O  O230  1  0.49307349  0.37796158  0.66660934  1
  O  O231  1  0.51046381  0.38276407  0.91219445  1
  O  O232  1  0.49285600  0.62574832  0.15854852  1
  O  O233  1  0.50038917  0.62601735  0.41510736  1
  O  O234  1  0.50771838  0.62845944  0.66483196  1
  O  O235  1  0.50313801  0.62606774  0.91533610  1
  O  O236  1  0.50123090  0.87721980  0.15824620  1
  O  O237  1  0.49517941  0.87705582  0.41374163  1
  O  O238  1  0.50292972  0.87112247  0.66877528  1
  O  O239  1  0.49314713  0.86949833  0.91355576  1
  O  O240  1  0.75142741  0.12565204  0.16074661  1
  O  O241  1  0.74354209  0.12254142  0.41909136  1
  O  O242  1  0.75920631  0.12562439  0.66485199  1
  O  O243  1  0.75226652  0.12522521  0.91082527  1
  O  O244  1  0.75661185  0.37095464  0.16233524  1
  O  O245  1  0.73959251  0.37115988  0.41091021  1
  O  O246  1  0.75644846  0.37824391  0.66450124  1
  O  O247  1  0.74603187  0.38134194  0.91139787  1
  O  O248  1  0.75205192  0.62303432  0.16247193  1
  O  O249  1  0.74697042  0.62510654  0.41064286  1
  O  O250  1  0.74624807  0.62601900  0.66709492  1
  O  O251  1  0.75338335  0.62723630  0.91735664  1
  O  O252  1  0.74989880  0.88091532  0.15890874  1
  O  O253  1  0.74976001  0.87635947  0.41203633  1
  O  O254  1  0.74475564  0.87105724  0.66731047  1
  O  O255  1  0.75862400  0.87173380  0.91178228  1
  O  O256  1  0.11978076  0.12087380  0.03035766  1
  O  O257  1  0.12621546  0.11421073  0.28434982  1
  O  O258  1  0.13099321  0.11996949  0.53725114  1
  O  O259  1  0.12074581  0.11941873  0.79967439  1
  O  O260  1  0.12076680  0.38246274  0.03593718  1
  O  O261  1  0.12451371  0.37545946  0.28041231  1
  O  O262  1  0.13347819  0.38163768  0.53536395  1
  O  O263  1  0.12388989  0.38074918  0.79633069  1
  O  O264  1  0.12531224  0.61528269  0.02659962  1
  O  O265  1  0.12917298  0.63036864  0.29615734  1
  O  O266  1  0.12432634  0.62664122  0.54999346  1
  O  O267  1  0.12307534  0.63540612  0.79543914  1
  O  O268  1  0.12401300  0.87899340  0.04428428  1
  O  O269  1  0.12710550  0.87273855  0.29606181  1
  O  O270  1  0.12357705  0.87248643  0.55153127  1
  O  O271  1  0.12408524  0.87350996  0.79985733  1
  O  O272  1  0.37155894  0.12608822  0.02053104  1
  O  O273  1  0.38000971  0.12561960  0.30137138  1
  O  O274  1  0.37320436  0.11363108  0.54249183  1
  O  O275  1  0.36920310  0.12061314  0.78874172  1
  O  O276  1  0.37245155  0.37157733  0.02299164  1
  O  O277  1  0.38012784  0.36842616  0.29807047  1
  O  O278  1  0.37313373  0.38027291  0.54970253  1
  O  O279  1  0.37494783  0.39035720  0.79564854  1
  O  O280  1  0.37314580  0.62799196  0.04348233  1
  O  O281  1  0.37270748  0.63082446  0.28709760  1
  O  O282  1  0.37530531  0.63280607  0.53732109  1
  O  O283  1  0.37716039  0.62446132  0.80075492  1
  O  O284  1  0.37181083  0.86784884  0.02960104  1
  O  O285  1  0.37647311  0.88009928  0.29741972  1
  O  O286  1  0.37289712  0.87167097  0.55337638  1
  O  O287  1  0.37229613  0.86746539  0.80402662  1
  O  O288  1  0.63202768  0.12853817  0.04008227  1
  O  O289  1  0.61992007  0.12410120  0.30148946  1
  O  O290  1  0.62100630  0.12204951  0.54652637  1
  O  O291  1  0.63118820  0.11996009  0.77653531  1
  O  O292  1  0.62851747  0.38136055  0.03292860  1
  O  O293  1  0.61763130  0.36590016  0.30072396  1
  O  O294  1  0.62077366  0.37117065  0.53705523  1
  O  O295  1  0.62712898  0.38570567  0.79699150  1
  O  O296  1  0.62824361  0.61413836  0.03545813  1
  O  O297  1  0.61822213  0.62405883  0.27887081  1
  O  O298  1  0.62493606  0.62544317  0.55021032  1
  O  O299  1  0.62464321  0.62361409  0.80438567  1
  O  O300  1  0.62241761  0.87946039  0.02391181  1
  O  O301  1  0.62057555  0.88319754  0.29520993  1
  O  O302  1  0.62237729  0.87190899  0.55425924  1
  O  O303  1  0.62797171  0.86643460  0.79343021  1
  O  O304  1  0.87481350  0.12731020  0.04634437  1
  O  O305  1  0.86769849  0.12482767  0.28613382  1
  O  O306  1  0.87506567  0.11973734  0.55015666  1
  O  O307  1  0.88342494  0.12503954  0.78311072  1
  O  O308  1  0.87452777  0.36956495  0.04655231  1
  O  O309  1  0.87476565  0.36605582  0.28316380  1
  O  O310  1  0.87364798  0.37961915  0.54935178  1
  O  O311  1  0.87948089  0.38146515  0.78575095  1
  O  O312  1  0.87405151  0.63430545  0.03559354  1
  O  O313  1  0.87680059  0.62629903  0.28067292  1
  O  O314  1  0.87262188  0.62574519  0.54706941  1
  O  O315  1  0.87346746  0.62397463  0.80423290  1
  O  O316  1  0.88216608  0.87391001  0.03178339  1
  O  O317  1  0.87463404  0.87952679  0.29990820  1
  O  O318  1  0.87367471  0.86554788  0.53662047  1
  O  O319  1  0.87753532  0.87160476  0.80110815  1
