# generated using pymatgen
data_VFe(PbO3)2
_symmetry_space_group_name_H-M   'P 1'
_cell_length_a   15.38202056
_cell_length_b   15.39502149
_cell_length_c   18.54118381
_cell_angle_alpha   90.03532870
_cell_angle_beta   90.00180337
_cell_angle_gamma   90.00839069
_symmetry_Int_Tables_number   1
_chemical_formula_structural   VFe(PbO3)2
_chemical_formula_sum   'V32 Fe32 Pb64 O192'
_cell_volume   4390.67264500
_cell_formula_units_Z   32
loop_
 _symmetry_equiv_pos_site_id
 _symmetry_equiv_pos_as_xyz
  1  'x, y, z'
loop_
 _atom_site_type_symbol
 _atom_site_label
 _atom_site_symmetry_multiplicity
 _atom_site_fract_x
 _atom_site_fract_y
 _atom_site_fract_z
 _atom_site_occupancy
  V  V0  1  0.87329437  0.12768023  0.64342710  1
  V  V1  1  0.62437354  0.62511324  0.89130917  1
  V  V2  1  0.38474795  0.37166478  0.64282632  1
  V  V3  1  0.87498298  0.87159797  0.13407504  1
  V  V4  1  0.37626747  0.62555407  0.39480214  1
  V  V5  1  0.12593968  0.37183987  0.64115388  1
  V  V6  1  0.12610544  0.37571024  0.13666837  1
  V  V7  1  0.37417375  0.12524398  0.38774279  1
  V  V8  1  0.62476352  0.87646393  0.89238591  1
  V  V9  1  0.12601449  0.62614097  0.39772634  1
  V  V10  1  0.87417609  0.37502356  0.89627441  1
  V  V11  1  0.12582608  0.37803165  0.88552915  1
  V  V12  1  0.62575060  0.62186659  0.63682274  1
  V  V13  1  0.37497716  0.87129538  0.88672307  1
  V  V14  1  0.87647567  0.62606193  0.39425813  1
  V  V15  1  0.62728444  0.37660089  0.89093456  1
  V  V16  1  0.88042285  0.37083462  0.63969050  1
  V  V17  1  0.61318770  0.37813599  0.38610746  1
  V  V18  1  0.12763580  0.62570424  0.13920591  1
  V  V19  1  0.87897571  0.37334814  0.38707334  1
  V  V20  1  0.11948725  0.87234656  0.88468505  1
  V  V21  1  0.12739090  0.12711176  0.64551002  1
  V  V22  1  0.12226877  0.12252966  0.38865529  1
  V  V23  1  0.87549300  0.87481558  0.38943202  1
  V  V24  1  0.62485860  0.89237904  0.63475184  1
  V  V25  1  0.62239273  0.87350001  0.38825152  1
  V  V26  1  0.87446992  0.62777380  0.88960275  1
  V  V27  1  0.12540144  0.87617755  0.39771884  1
  V  V28  1  0.37563784  0.37686407  0.14164075  1
  V  V29  1  0.62524092  0.37707968  0.13589278  1
  V  V30  1  0.37277965  0.62255406  0.13900704  1
  V  V31  1  0.63361377  0.37511983  0.63922180  1
  Fe  Fe32  1  0.87610450  0.12626831  0.13072014  1
  Fe  Fe33  1  0.12377068  0.87906958  0.63369707  1
  Fe  Fe34  1  0.87840194  0.62367804  0.13495143  1
  Fe  Fe35  1  0.12771188  0.12307602  0.12737021  1
  Fe  Fe36  1  0.62307207  0.62483378  0.13706638  1
  Fe  Fe37  1  0.62757246  0.13560876  0.63441278  1
  Fe  Fe38  1  0.37716950  0.87724296  0.63316801  1
  Fe  Fe39  1  0.36874920  0.37530646  0.38389530  1
  Fe  Fe40  1  0.62212901  0.12458133  0.12897645  1
  Fe  Fe41  1  0.62381523  0.12638497  0.89763764  1
  Fe  Fe42  1  0.87654937  0.12354688  0.38038995  1
  Fe  Fe43  1  0.12595080  0.37530489  0.38826635  1
  Fe  Fe44  1  0.87326936  0.12123623  0.89840168  1
  Fe  Fe45  1  0.12376204  0.62348386  0.63898888  1
  Fe  Fe46  1  0.37945794  0.12659129  0.64430194  1
  Fe  Fe47  1  0.87453300  0.37911617  0.13079021  1
  Fe  Fe48  1  0.62679636  0.12168806  0.38666532  1
  Fe  Fe49  1  0.87237432  0.62098096  0.63222436  1
  Fe  Fe50  1  0.87292333  0.87738116  0.64345817  1
  Fe  Fe51  1  0.12487680  0.87179630  0.13000847  1
  Fe  Fe52  1  0.12400086  0.62460379  0.87725436  1
  Fe  Fe53  1  0.87013085  0.87256675  0.88185781  1
  Fe  Fe54  1  0.37446559  0.87458989  0.39254918  1
  Fe  Fe55  1  0.62379429  0.87202559  0.13019843  1
  Fe  Fe56  1  0.37749254  0.62261860  0.64039725  1
  Fe  Fe57  1  0.37243377  0.87287929  0.13235122  1
  Fe  Fe58  1  0.37714655  0.37727743  0.88162316  1
  Fe  Fe59  1  0.37493883  0.12577404  0.88556064  1
  Fe  Fe60  1  0.37424848  0.62441986  0.87937591  1
  Fe  Fe61  1  0.62676811  0.62653569  0.38659444  1
  Fe  Fe62  1  0.37165761  0.12701547  0.13126640  1
  Fe  Fe63  1  0.12422657  0.12479221  0.88935640  1
  Pb  Pb64  1  0.00054021  0.00507342  -0.00157684  1
  Pb  Pb65  1  0.00050984  0.00329260  0.23928837  1
  Pb  Pb66  1  -0.00489253  -0.01225178  0.50713190  1
  Pb  Pb67  1  0.00047779  0.00585744  0.75514767  1
  Pb  Pb68  1  0.00108570  0.24390169  0.00185120  1
  Pb  Pb69  1  -0.00474646  0.24623836  0.24109513  1
  Pb  Pb70  1  0.00169372  0.24938816  0.49720837  1
  Pb  Pb71  1  0.00179952  0.24137171  0.76073476  1
  Pb  Pb72  1  -0.00833388  0.50223200  0.00180159  1
  Pb  Pb73  1  0.00307342  0.49513609  0.24947915  1
  Pb  Pb74  1  0.00279080  0.50821062  0.50581142  1
  Pb  Pb75  1  0.00298108  0.50424529  0.74918355  1
  Pb  Pb76  1  0.00026333  0.75091871  -0.00401639  1
  Pb  Pb77  1  -0.00107133  0.75181837  0.24808519  1
  Pb  Pb78  1  0.00259353  0.74963835  0.51020606  1
  Pb  Pb79  1  0.00067194  0.74975207  0.73934518  1
  Pb  Pb80  1  0.24915488  -0.00293090  -0.00388837  1
  Pb  Pb81  1  0.25226862  -0.00283966  0.23958425  1
  Pb  Pb82  1  0.25227663  -0.00319085  0.50379841  1
  Pb  Pb83  1  0.25568343  0.00056783  0.74760298  1
  Pb  Pb84  1  0.25378175  0.23933249  -0.00387638  1
  Pb  Pb85  1  0.24807567  0.25612355  0.24836246  1
  Pb  Pb86  1  0.25568028  0.24895569  0.49940585  1
  Pb  Pb87  1  0.25768948  0.25054079  0.75726531  1
  Pb  Pb88  1  0.25201183  0.50519770  -0.00989852  1
  Pb  Pb89  1  0.24705644  0.49263928  0.25664917  1
  Pb  Pb90  1  0.25056418  0.50710500  0.50704419  1
  Pb  Pb91  1  0.25390390  0.50588834  0.75112840  1
  Pb  Pb92  1  0.24986224  0.75744183  -0.00393946  1
  Pb  Pb93  1  0.25502913  0.75892110  0.25328471  1
  Pb  Pb94  1  0.24465004  0.75035765  0.51028548  1
  Pb  Pb95  1  0.24781951  0.74774440  0.73911241  1
  Pb  Pb96  1  0.49339221  0.00177837  0.00067412  1
  Pb  Pb97  1  0.49775232  -0.00156626  0.23865733  1
  Pb  Pb98  1  0.49100338  0.00537089  0.50398541  1
  Pb  Pb99  1  0.50007002  0.01361856  0.75362553  1
  Pb  Pb100  1  0.49254337  0.24031930  0.00092600  1
  Pb  Pb101  1  0.50288765  0.24389315  0.24560540  1
  Pb  Pb102  1  0.49905582  0.23586608  0.50484897  1
  Pb  Pb103  1  0.50536928  0.23933335  0.76202910  1
  Pb  Pb104  1  0.50297978  0.50431398  -0.00202426  1
  Pb  Pb105  1  0.50231308  0.50327754  0.25185851  1
  Pb  Pb106  1  0.49415220  0.50628794  0.50388693  1
  Pb  Pb107  1  0.49224364  0.49686475  0.75510945  1
  Pb  Pb108  1  0.49932501  0.75562427  0.00338847  1
  Pb  Pb109  1  0.49841075  0.75718554  0.24875805  1
  Pb  Pb110  1  0.49379655  0.75146034  0.50428797  1
  Pb  Pb111  1  0.49692164  0.74567299  0.74583309  1
  Pb  Pb112  1  0.74995820  0.00354509  0.00133993  1
  Pb  Pb113  1  0.74369955  0.00940875  0.24250958  1
  Pb  Pb114  1  0.75306901  -0.00177242  0.49679960  1
  Pb  Pb115  1  0.76161477  0.00616781  0.76285999  1
  Pb  Pb116  1  0.75078016  0.24410654  0.00595130  1
  Pb  Pb117  1  0.75209213  0.23829210  0.24669647  1
  Pb  Pb118  1  0.74783179  0.24552500  0.49523830  1
  Pb  Pb119  1  0.75173662  0.23437964  0.76429447  1
  Pb  Pb120  1  0.75621623  0.50671755  0.00676167  1
  Pb  Pb121  1  0.74917452  0.50515049  0.24653536  1
  Pb  Pb122  1  0.75859559  0.50102714  0.49743365  1
  Pb  Pb123  1  0.75311027  0.49516964  0.75042254  1
  Pb  Pb124  1  0.73822506  0.74596098  0.00548185  1
  Pb  Pb125  1  0.74422773  0.74445036  0.24544259  1
  Pb  Pb126  1  0.75795951  0.75423982  0.50246744  1
  Pb  Pb127  1  0.75379953  0.75269391  0.74738684  1
  O  O128  1  0.12374203  -0.00287750  0.15836671  1
  O  O129  1  0.12727086  0.00568668  0.41804907  1
  O  O130  1  0.12175879  0.01005879  0.66625832  1
  O  O131  1  0.12647092  -0.01090309  0.90972707  1
  O  O132  1  0.12656889  0.25924562  0.15629059  1
  O  O133  1  0.12705445  0.24051789  0.41467115  1
  O  O134  1  0.12029344  0.24703741  0.67219757  1
  O  O135  1  0.11929060  0.26208334  0.91105241  1
  O  O136  1  0.12751592  0.50168171  0.16438131  1
  O  O137  1  0.12649278  0.50747805  0.41686255  1
  O  O138  1  0.11992346  0.48853145  0.65912133  1
  O  O139  1  0.11802095  0.49563637  0.91045118  1
  O  O140  1  0.12568615  0.74196881  0.16401818  1
  O  O141  1  0.12569778  0.74864278  0.42279700  1
  O  O142  1  0.12401317  0.75219678  0.65888609  1
  O  O143  1  0.12594233  0.75372282  0.90726665  1
  O  O144  1  0.37362125  -0.00016938  0.15846307  1
  O  O145  1  0.37670973  0.00687130  0.41442648  1
  O  O146  1  0.38171640  -0.00004135  0.66777431  1
  O  O147  1  0.37721773  -0.00986017  0.90954651  1
  O  O148  1  0.37259261  0.25729571  0.16350262  1
  O  O149  1  0.37238257  0.24417097  0.41206879  1
  O  O150  1  0.37076750  0.25697448  0.66771946  1
  O  O151  1  0.37563209  0.25480594  0.90979003  1
  O  O152  1  0.37039556  0.50440574  0.16811954  1
  O  O153  1  0.37088188  0.50622529  0.41636524  1
  O  O154  1  0.37123169  0.48880731  0.66404510  1
  O  O155  1  0.37733779  0.50087354  0.91446453  1
  O  O156  1  0.36995357  0.73859774  0.16440013  1
  O  O157  1  0.37506339  0.74331495  0.42023734  1
  O  O158  1  0.38265274  0.75119295  0.66031713  1
  O  O159  1  0.37739458  0.75220388  0.90824426  1
  O  O160  1  0.62463568  -0.00221101  0.15652628  1
  O  O161  1  0.62847102  -0.00784580  0.41061510  1
  O  O162  1  0.62408020  0.00510203  0.64701105  1
  O  O163  1  0.62196732  -0.00792882  0.91240534  1
  O  O164  1  0.62198324  0.25991837  0.15920471  1
  O  O165  1  0.62862853  0.26551400  0.41332038  1
  O  O166  1  0.62611874  0.26238533  0.66774304  1
  O  O167  1  0.62951510  0.26302334  0.91429459  1
  O  O168  1  0.61961292  0.49564657  0.16547643  1
  O  O169  1  0.62999948  0.49080642  0.41601400  1
  O  O170  1  0.62427069  0.49097222  0.66889809  1
  O  O171  1  0.62959337  0.50348865  0.91661400  1
  O  O172  1  0.62466781  0.74939243  0.16640244  1
  O  O173  1  0.62773055  0.75465078  0.41542199  1
  O  O174  1  0.62606625  0.73412031  0.65657789  1
  O  O175  1  0.62446081  0.74493022  0.91250581  1
  O  O176  1  0.87678191  -0.00917477  0.15518370  1
  O  O177  1  0.87468431  -0.00344017  0.41286890  1
  O  O178  1  0.86907929  0.01050174  0.66699714  1
  O  O179  1  0.87188292  -0.00749604  0.91715057  1
  O  O180  1  0.87658820  0.25486136  0.15784873  1
  O  O181  1  0.88183918  0.25497301  0.40860974  1
  O  O182  1  0.87544422  0.24818318  0.67180020  1
  O  O183  1  0.87155275  0.25901161  0.91428440  1
  O  O184  1  0.87913633  0.49984336  0.16866374  1
  O  O185  1  0.88252885  0.49877009  0.41459279  1
  O  O186  1  0.87685786  0.49118093  0.66535446  1
  O  O187  1  0.87302622  0.50560479  0.91554990  1
  O  O188  1  0.87876420  0.75190678  0.16522650  1
  O  O189  1  0.87732503  0.75085997  0.42004354  1
  O  O190  1  0.86585629  0.74764115  0.66084996  1
  O  O191  1  0.87207419  0.74459525  0.91059202  1
  O  O192  1  0.00198065  0.12612896  0.15829036  1
  O  O193  1  0.00567178  0.12287869  0.41087853  1
  O  O194  1  -0.00501915  0.12703342  0.66849905  1
  O  O195  1  -0.00053561  0.12546625  0.91610343  1
  O  O196  1  0.00862422  0.38012398  0.15952946  1
  O  O197  1  -0.00105384  0.37569794  0.41753965  1
  O  O198  1  0.00171832  0.36796231  0.66985010  1
  O  O199  1  -0.00534016  0.37958628  0.91256740  1
  O  O200  1  0.00968504  0.62295802  0.16586720  1
  O  O201  1  0.00500786  0.62790078  0.41955741  1
  O  O202  1  -0.00384992  0.62216029  0.66227515  1
  O  O203  1  -0.00626736  0.62632720  0.90781938  1
  O  O204  1  -0.00409915  0.87011064  0.16267860  1
  O  O205  1  -0.00052342  0.87511410  0.42096157  1
  O  O206  1  -0.00152754  0.88026998  0.66420914  1
  O  O207  1  0.00260589  0.86969105  0.90321755  1
  O  O208  1  0.24850621  0.12809725  0.16185266  1
  O  O209  1  0.25164878  0.12276037  0.41365923  1
  O  O210  1  0.24522741  0.12805826  0.66318792  1
  O  O211  1  0.24981118  0.12475394  0.90946016  1
  O  O212  1  0.24634810  0.38000308  0.16471818  1
  O  O213  1  0.24844621  0.37428817  0.42245259  1
  O  O214  1  0.24031575  0.36869870  0.66261437  1
  O  O215  1  0.24186236  0.38026438  0.90515312  1
  O  O216  1  0.24715367  0.62244486  0.16588478  1
  O  O217  1  0.24946679  0.62790201  0.42008527  1
  O  O218  1  0.25081571  0.62062404  0.66053121  1
  O  O219  1  0.24822425  0.62218449  0.90627841  1
  O  O220  1  0.24830235  0.86942297  0.16510852  1
  O  O221  1  0.24745570  0.87579307  0.42086475  1
  O  O222  1  0.25082790  0.87989826  0.65982512  1
  O  O223  1  0.25339578  0.87171895  0.90593667  1
  O  O224  1  0.49837252  0.12922693  0.16114474  1
  O  O225  1  0.49606289  0.12812660  0.41043956  1
  O  O226  1  0.50607129  0.13312904  0.67032980  1
  O  O227  1  0.49840140  0.12499931  0.91539222  1
  O  O228  1  0.49966900  0.37880484  0.16625755  1
  O  O229  1  0.49894764  0.37975302  0.40150595  1
  O  O230  1  0.49944830  0.37509468  0.65827984  1
  O  O231  1  0.51024781  0.38345081  0.90883491  1
  O  O232  1  0.48967906  0.62191714  0.16144744  1
  O  O233  1  0.49712323  0.62230570  0.41483657  1
  O  O234  1  0.50860868  0.61292270  0.66524645  1
  O  O235  1  0.50671119  0.62274624  0.91007436  1
  O  O236  1  0.49724314  0.86961182  0.16218857  1
  O  O237  1  0.50677753  0.87251962  0.41140634  1
  O  O238  1  0.51529392  0.87169839  0.66528717  1
  O  O239  1  0.50018760  0.86953098  0.91372274  1
  O  O240  1  0.74907295  0.12655463  0.15718874  1
  O  O241  1  0.75259614  0.12873341  0.41387492  1
  O  O242  1  0.75355804  0.13229193  0.66601190  1
  O  O243  1  0.74792386  0.12569307  0.92077413  1
  O  O244  1  0.74164261  0.38090911  0.15535148  1
  O  O245  1  0.76446273  0.37763069  0.41125777  1
  O  O246  1  0.75075384  0.37672297  0.66028917  1
  O  O247  1  0.75045160  0.38311212  0.91909962  1
  O  O248  1  0.75142128  0.62262157  0.16334135  1
  O  O249  1  0.75368732  0.62308688  0.41571110  1
  O  O250  1  0.74324456  0.61125272  0.66097567  1
  O  O251  1  0.74978422  0.62510198  0.91518389  1
  O  O252  1  0.75833255  0.87005887  0.15691507  1
  O  O253  1  0.74991909  0.87277470  0.41535174  1
  O  O254  1  0.73435598  0.87405299  0.66707885  1
  O  O255  1  0.74126805  0.86893673  0.91287542  1
  O  O256  1  0.12579550  0.12662597  0.02628537  1
  O  O257  1  0.12420968  0.12169709  0.29813447  1
  O  O258  1  0.12121958  0.13037184  0.55498421  1
  O  O259  1  0.11542227  0.12493929  0.78839133  1
  O  O260  1  0.12894379  0.37981656  0.04622101  1
  O  O261  1  0.12935197  0.37800574  0.28898435  1
  O  O262  1  0.12104660  0.36446432  0.55020803  1
  O  O263  1  0.12098852  0.37690106  0.79439576  1
  O  O264  1  0.12696534  0.62555712  0.04833721  1
  O  O265  1  0.12651242  0.62976419  0.30730993  1
  O  O266  1  0.12443835  0.62400326  0.53707865  1
  O  O267  1  0.12187999  0.62066149  0.77731926  1
  O  O268  1  0.12845214  0.86573018  0.03033220  1
  O  O269  1  0.12209919  0.87531018  0.30676969  1
  O  O270  1  0.12091250  0.88199951  0.53287906  1
  O  O271  1  0.12534062  0.87463493  0.79373103  1
  O  O272  1  0.37423298  0.13047808  0.03001220  1
  O  O273  1  0.37305110  0.12481813  0.29730417  1
  O  O274  1  0.38737501  0.12720615  0.54297894  1
  O  O275  1  0.38205869  0.12587994  0.78293902  1
  O  O276  1  0.37461567  0.38031901  0.05079156  1
  O  O277  1  0.36038417  0.37771925  0.28468159  1
  O  O278  1  0.37504060  0.37076736  0.55150926  1
  O  O279  1  0.37309284  0.37807676  0.78163360  1
  O  O280  1  0.36995319  0.62122305  0.04802039  1
  O  O281  1  0.37303542  0.62707611  0.30423280  1
  O  O282  1  0.38418371  0.61648108  0.53956685  1
  O  O283  1  0.38075734  0.61664452  0.77869284  1
  O  O284  1  0.37093788  0.86665253  0.03202352  1
  O  O285  1  0.37113617  0.86703798  0.29301904  1
  O  O286  1  0.38498789  0.88121078  0.53184799  1
  O  O287  1  0.38021409  0.87218250  0.79587740  1
  O  O288  1  0.62092692  0.12981931  0.02782309  1
  O  O289  1  0.63226454  0.12893580  0.28684843  1
  O  O290  1  0.62275574  0.14208355  0.53366791  1
  O  O291  1  0.62559224  0.13486704  0.79479329  1
  O  O292  1  0.61841611  0.37981264  0.04516691  1
  O  O293  1  0.62489389  0.37872475  0.29535747  1
  O  O294  1  0.62799792  0.37630063  0.54857084  1
  O  O295  1  0.63346280  0.37883734  0.79979928  1
  O  O296  1  0.62452209  0.62790503  0.03684845  1
  O  O297  1  0.62516188  0.61968015  0.28758551  1
  O  O298  1  0.62212120  0.61508926  0.54529973  1
  O  O299  1  0.62873032  0.62173094  0.80059823  1
  O  O300  1  0.62151901  0.86220346  0.03009594  1
  O  O301  1  0.62521540  0.87120613  0.29720906  1
  O  O302  1  0.62612260  0.87627417  0.54392804  1
  O  O303  1  0.62214494  0.87409732  0.80167844  1
  O  O304  1  0.87551661  0.12534057  0.02896821  1
  O  O305  1  0.87210752  0.12734730  0.28072614  1
  O  O306  1  0.87632235  0.12944239  0.55259975  1
  O  O307  1  0.86546921  0.12250548  0.79530584  1
  O  O308  1  0.87697839  0.38813842  0.03100282  1
  O  O309  1  0.88172402  0.37697954  0.29603786  1
  O  O310  1  0.88243462  0.36739526  0.54879013  1
  O  O311  1  0.87030726  0.37932624  0.80513351  1
  O  O312  1  0.88035273  0.62107602  0.03512425  1
  O  O313  1  0.88059162  0.62808353  0.30337658  1
  O  O314  1  0.87632050  0.61912366  0.53204090  1
  O  O315  1  0.86837287  0.62262614  0.79870517  1
  O  O316  1  0.87965531  0.86552954  0.04318288  1
  O  O317  1  0.87813437  0.87052188  0.29901795  1
  O  O318  1  0.86883332  0.88342193  0.54266949  1
  O  O319  1  0.85971795  0.87798051  0.78124301  1
