# generated using pymatgen
data_VFe(PbO3)2
_symmetry_space_group_name_H-M   'P 1'
_cell_length_a   15.38311161
_cell_length_b   15.37600780
_cell_length_c   18.50686320
_cell_angle_alpha   89.98808652
_cell_angle_beta   89.98582915
_cell_angle_gamma   89.99341509
_symmetry_Int_Tables_number   1
_chemical_formula_structural   VFe(PbO3)2
_chemical_formula_sum   'V32 Fe32 Pb64 O192'
_cell_volume   4377.44371818
_cell_formula_units_Z   32
loop_
 _symmetry_equiv_pos_site_id
 _symmetry_equiv_pos_as_xyz
  1  'x, y, z'
loop_
 _atom_site_type_symbol
 _atom_site_label
 _atom_site_symmetry_multiplicity
 _atom_site_fract_x
 _atom_site_fract_y
 _atom_site_fract_z
 _atom_site_occupancy
  V  V0  1  0.87288599  0.12282684  0.88822711  1
  V  V1  1  0.12479831  0.37295238  0.64433730  1
  V  V2  1  0.37687893  0.12332425  0.88837614  1
  V  V3  1  0.37445528  0.62203026  0.38984592  1
  V  V4  1  0.87448862  0.62306679  0.39235169  1
  V  V5  1  0.12569020  0.87446869  0.63549595  1
  V  V6  1  0.87317116  0.62610215  0.88678150  1
  V  V7  1  0.87516552  0.87567206  0.88980244  1
  V  V8  1  0.12335176  0.37365306  0.13513505  1
  V  V9  1  0.37239148  0.37830263  0.39212423  1
  V  V10  1  0.62396259  0.62060647  0.39423762  1
  V  V11  1  0.12168590  0.62745266  0.13588587  1
  V  V12  1  0.37748627  0.87817687  0.88855496  1
  V  V13  1  0.37651649  0.12574461  0.14298367  1
  V  V14  1  0.87226387  0.62364874  0.13946054  1
  V  V15  1  0.87559512  0.12333643  0.63599674  1
  V  V16  1  0.61962575  0.37914710  0.39289442  1
  V  V17  1  0.37524831  0.87619637  0.63276288  1
  V  V18  1  0.12450168  0.12420182  0.63805085  1
  V  V19  1  0.12504544  0.88106298  0.14697943  1
  V  V20  1  0.12451156  0.61745347  0.39098756  1
  V  V21  1  0.12685818  0.87638823  0.89339793  1
  V  V22  1  0.87841027  0.12456520  0.14599962  1
  V  V23  1  0.12344735  0.62416061  0.64313071  1
  V  V24  1  0.62564815  0.37426761  0.63713065  1
  V  V25  1  0.12631232  0.12669760  0.13734348  1
  V  V26  1  0.12462938  0.13333741  0.38733459  1
  V  V27  1  0.62764976  0.12560112  0.14318826  1
  V  V28  1  0.62196093  0.62437543  0.13530484  1
  V  V29  1  0.62545688  0.37289550  0.88530066  1
  V  V30  1  0.87841924  0.87500600  0.63366937  1
  V  V31  1  0.87225407  0.37651461  0.39238280  1
  Fe  Fe32  1  0.62695263  0.62852759  0.88348030  1
  Fe  Fe33  1  0.62481201  0.12155529  0.88658626  1
  Fe  Fe34  1  0.37380684  0.62807105  0.64283534  1
  Fe  Fe35  1  0.12410662  0.37324905  0.88151875  1
  Fe  Fe36  1  0.87601952  0.87434487  0.14954695  1
  Fe  Fe37  1  0.87720614  0.12782913  0.38207589  1
  Fe  Fe38  1  0.12251113  0.62956656  0.88636510  1
  Fe  Fe39  1  0.87713064  0.87280831  0.37941174  1
  Fe  Fe40  1  0.37518723  0.62854411  0.88228737  1
  Fe  Fe41  1  0.37122973  0.62410195  0.13039243  1
  Fe  Fe42  1  0.62603266  0.13023761  0.38938093  1
  Fe  Fe43  1  0.37348129  0.87340075  0.14453386  1
  Fe  Fe44  1  0.12518311  0.11951563  0.88932417  1
  Fe  Fe45  1  0.37378852  0.87221845  0.38123066  1
  Fe  Fe46  1  0.12642246  0.87388620  0.38237788  1
  Fe  Fe47  1  0.87243925  0.37426018  0.13468607  1
  Fe  Fe48  1  0.87281698  0.37309091  0.87737371  1
  Fe  Fe49  1  0.62482544  0.12515698  0.62849056  1
  Fe  Fe50  1  0.87684176  0.62697369  0.63362968  1
  Fe  Fe51  1  0.62588221  0.37286745  0.13472119  1
  Fe  Fe52  1  0.37342230  0.12805792  0.38998584  1
  Fe  Fe53  1  0.37608919  0.37248631  0.87728521  1
  Fe  Fe54  1  0.62556952  0.87463736  0.14598193  1
  Fe  Fe55  1  0.62469877  0.87255885  0.38348031  1
  Fe  Fe56  1  0.87645181  0.37455399  0.64750467  1
  Fe  Fe57  1  0.12452186  0.37913420  0.38821846  1
  Fe  Fe58  1  0.62546555  0.87623848  0.62628625  1
  Fe  Fe59  1  0.37238022  0.12301540  0.62945907  1
  Fe  Fe60  1  0.37654496  0.37354025  0.13099495  1
  Fe  Fe61  1  0.62656079  0.87741860  0.88636536  1
  Fe  Fe62  1  0.62730714  0.62768660  0.63544821  1
  Fe  Fe63  1  0.37511025  0.37453698  0.64702252  1
  Pb  Pb64  1  -0.00931428  -0.00461713  0.00669654  1
  Pb  Pb65  1  -0.00289859  -0.00253765  0.25745163  1
  Pb  Pb66  1  -0.00066519  -0.00213019  0.48886589  1
  Pb  Pb67  1  0.00358193  0.00570295  0.74991489  1
  Pb  Pb68  1  -0.00197671  0.25327420  -0.00723640  1
  Pb  Pb69  1  -0.00207839  0.24941516  0.25069829  1
  Pb  Pb70  1  -0.00491914  0.25932826  0.50345745  1
  Pb  Pb71  1  0.00502633  0.25295876  0.75598957  1
  Pb  Pb72  1  -0.00156888  0.49490686  -0.00879184  1
  Pb  Pb73  1  0.00632390  0.49411591  0.24922210  1
  Pb  Pb74  1  -0.01172155  0.49678828  0.51022134  1
  Pb  Pb75  1  0.00411990  0.49832013  0.75425221  1
  Pb  Pb76  1  -0.00947274  0.75751690  0.00536528  1
  Pb  Pb77  1  0.00247937  0.75331802  0.25585898  1
  Pb  Pb78  1  -0.00197470  0.74647556  0.49622308  1
  Pb  Pb79  1  0.00424651  0.74811193  0.75062925  1
  Pb  Pb80  1  0.25830753  -0.00634509  0.00680736  1
  Pb  Pb81  1  0.25948395  0.00239143  0.25913548  1
  Pb  Pb82  1  0.25424636  0.00034877  0.49179368  1
  Pb  Pb83  1  0.24562251  0.00445352  0.74745642  1
  Pb  Pb84  1  0.25273781  0.25569352  -0.00728030  1
  Pb  Pb85  1  0.25193479  0.24782645  0.25074298  1
  Pb  Pb86  1  0.25985918  0.25432289  0.50681335  1
  Pb  Pb87  1  0.25072270  0.25333542  0.75203546  1
  Pb  Pb88  1  0.25487229  0.50160931  -0.01359603  1
  Pb  Pb89  1  0.24459628  0.49329964  0.24376322  1
  Pb  Pb90  1  0.26171585  0.49963784  0.51241198  1
  Pb  Pb91  1  0.25738469  0.50283593  0.75613382  1
  Pb  Pb92  1  0.26000925  0.74765259  0.00323138  1
  Pb  Pb93  1  0.24989456  0.75238164  0.25150022  1
  Pb  Pb94  1  0.25489586  0.74578854  0.49692349  1
  Pb  Pb95  1  0.25005266  0.74517687  0.75324967  1
  Pb  Pb96  1  0.50652793  -0.00944979  0.00628903  1
  Pb  Pb97  1  0.49975891  -0.00525905  0.25705271  1
  Pb  Pb98  1  0.50444241  -0.00096311  0.48765211  1
  Pb  Pb99  1  0.51089750  0.00203727  0.74246421  1
  Pb  Pb100  1  0.50124044  0.25875491  -0.00022211  1
  Pb  Pb101  1  0.50063961  0.24140149  0.25466047  1
  Pb  Pb102  1  0.49696840  0.24046541  0.50516746  1
  Pb  Pb103  1  0.49620131  0.24428224  0.74278205  1
  Pb  Pb104  1  0.49202952  0.50119709  -0.00952158  1
  Pb  Pb105  1  0.49371011  0.49548979  0.24128753  1
  Pb  Pb106  1  0.49330474  0.50651454  0.51313819  1
  Pb  Pb107  1  0.49845782  0.50819879  0.74809126  1
  Pb  Pb108  1  0.49873484  0.74719906  -0.00156293  1
  Pb  Pb109  1  0.49548621  0.75539849  0.24832871  1
  Pb  Pb110  1  0.50623645  0.75036738  0.49999510  1
  Pb  Pb111  1  0.50572708  0.74472660  0.74810554  1
  Pb  Pb112  1  0.74590758  -0.00771589  0.00641441  1
  Pb  Pb113  1  0.74258166  -0.00168870  0.25821383  1
  Pb  Pb114  1  0.74642339  -0.00108623  0.48646897  1
  Pb  Pb115  1  0.73826069  -0.00167429  0.74842537  1
  Pb  Pb116  1  0.75030963  0.25696891  0.00100362  1
  Pb  Pb117  1  0.74877688  0.24213038  0.25523185  1
  Pb  Pb118  1  0.74888122  0.24756779  0.50168996  1
  Pb  Pb119  1  0.75009763  0.25006751  0.74802906  1
  Pb  Pb120  1  0.74907054  0.48949274  -0.00204728  1
  Pb  Pb121  1  0.74928485  0.49589684  0.24745919  1
  Pb  Pb122  1  0.75182821  0.50629700  0.50941726  1
  Pb  Pb123  1  0.75346282  0.50589827  0.74442892  1
  Pb  Pb124  1  0.74276064  0.75811782  0.00267816  1
  Pb  Pb125  1  0.74844300  0.75686085  0.25356870  1
  Pb  Pb126  1  0.74394648  0.75252968  0.49918783  1
  Pb  Pb127  1  0.73823452  0.75242906  0.74762223  1
  O  O128  1  0.12381867  0.00026272  0.16595723  1
  O  O129  1  0.12521174  0.00868780  0.40582416  1
  O  O130  1  0.12398548  -0.00114740  0.66356713  1
  O  O131  1  0.12337212  -0.00780457  0.92232731  1
  O  O132  1  0.12382661  0.24865145  0.16326073  1
  O  O133  1  0.12388838  0.25156716  0.41436647  1
  O  O134  1  0.12412876  0.25153557  0.66225207  1
  O  O135  1  0.12309404  0.24508598  0.91470925  1
  O  O136  1  0.12129164  0.50107695  0.16056234  1
  O  O137  1  0.12552732  0.50438605  0.42225848  1
  O  O138  1  0.12298319  0.50355673  0.66403584  1
  O  O139  1  0.12077456  0.50181881  0.91126355  1
  O  O140  1  0.12233699  0.74489327  0.16243061  1
  O  O141  1  0.12693657  0.73549160  0.41402321  1
  O  O142  1  0.12215158  0.75042894  0.66438552  1
  O  O143  1  0.12223121  0.76136454  0.91947674  1
  O  O144  1  0.37169739  0.00792973  0.16844074  1
  O  O145  1  0.37115561  0.00006402  0.40826210  1
  O  O146  1  0.36576849  -0.00729924  0.65668960  1
  O  O147  1  0.37291820  -0.00342960  0.91859800  1
  O  O148  1  0.37299618  0.24447050  0.16499571  1
  O  O149  1  0.37511678  0.26247874  0.41445611  1
  O  O150  1  0.37202732  0.24624927  0.66430132  1
  O  O151  1  0.37706481  0.24125510  0.90700844  1
  O  O152  1  0.37414406  0.49990629  0.16053114  1
  O  O153  1  0.37803924  0.49734781  0.42227093  1
  O  O154  1  0.37235939  0.50176218  0.66912490  1
  O  O155  1  0.37737800  0.49910376  0.90218270  1
  O  O156  1  0.37070238  0.74490888  0.16656630  1
  O  O157  1  0.37497164  0.74142737  0.41161684  1
  O  O158  1  0.36906713  0.76076768  0.66199461  1
  O  O159  1  0.37164624  0.76136338  0.91079071  1
  O  O160  1  0.62392461  0.00905679  0.16941754  1
  O  O161  1  0.62575029  0.00082288  0.40475968  1
  O  O162  1  0.62844073  -0.00110317  0.65804232  1
  O  O163  1  0.62530848  -0.00021888  0.92338892  1
  O  O164  1  0.62445511  0.24253166  0.16544997  1
  O  O165  1  0.62796116  0.26462489  0.41574180  1
  O  O166  1  0.62674329  0.25241049  0.66071090  1
  O  O167  1  0.62707045  0.25133317  0.91079252  1
  O  O168  1  0.62830748  0.50740333  0.16188340  1
  O  O169  1  0.62696868  0.49717016  0.42292405  1
  O  O170  1  0.62731177  0.49378463  0.66054211  1
  O  O171  1  0.62656302  0.49301637  0.90678737  1
  O  O172  1  0.62864289  0.73908360  0.16500761  1
  O  O173  1  0.62439051  0.73889434  0.41024597  1
  O  O174  1  0.62722332  0.75658184  0.66120762  1
  O  O175  1  0.62834424  0.75339503  0.91685262  1
  O  O176  1  0.87785624  0.00766435  0.16977585  1
  O  O177  1  0.87994100  0.00061010  0.40556339  1
  O  O178  1  0.88396345  0.00275782  0.65913860  1
  O  O179  1  0.87679530  -0.00127087  0.91845384  1
  O  O180  1  0.87531231  0.24461092  0.16491088  1
  O  O181  1  0.87647882  0.25916685  0.41391032  1
  O  O182  1  0.87993834  0.23911084  0.66454923  1
  O  O183  1  0.87305513  0.24174751  0.90702517  1
  O  O184  1  0.87618966  0.50576760  0.16488014  1
  O  O185  1  0.87433802  0.49831737  0.42051171  1
  O  O186  1  0.87805695  0.50246310  0.66660358  1
  O  O187  1  0.87359950  0.50629704  0.90325595  1
  O  O188  1  0.87869115  0.73871476  0.16705419  1
  O  O189  1  0.87715820  0.74295354  0.41210155  1
  O  O190  1  0.88308245  0.75988338  0.65637430  1
  O  O191  1  0.87498954  0.75305378  0.91641819  1
  O  O192  1  0.00077073  0.12598309  0.16609839  1
  O  O193  1  0.00633332  0.13081314  0.41245083  1
  O  O194  1  0.00163930  0.12395878  0.66658371  1
  O  O195  1  -0.00894115  0.12063584  0.91656205  1
  O  O196  1  0.00117706  0.37440963  0.16285552  1
  O  O197  1  -0.00666460  0.37966460  0.41575382  1
  O  O198  1  0.00774223  0.37480127  0.66843099  1
  O  O199  1  -0.00456442  0.37288754  0.90956254  1
  O  O200  1  0.00216936  0.62246699  0.16398791  1
  O  O201  1  0.00389420  0.62030633  0.41272667  1
  O  O202  1  0.00478868  0.62780560  0.66655459  1
  O  O203  1  -0.01016955  0.63013480  0.91556654  1
  O  O204  1  0.00744733  0.87349902  0.16972206  1
  O  O205  1  0.00311899  0.86984131  0.41222689  1
  O  O206  1  0.00183704  0.87828751  0.66453949  1
  O  O207  1  -0.00024745  0.87658832  0.91810098  1
  O  O208  1  0.24939291  0.12611283  0.16598074  1
  O  O209  1  0.24143803  0.13199788  0.41396431  1
  O  O210  1  0.24433289  0.12382545  0.66280872  1
  O  O211  1  0.25886755  0.11984595  0.91610915  1
  O  O212  1  0.24523242  0.37424661  0.15952253  1
  O  O213  1  0.25634266  0.38076591  0.41408305  1
  O  O214  1  0.24045282  0.37645930  0.66685184  1
  O  O215  1  0.25098775  0.37119607  0.90749579  1
  O  O216  1  0.23845889  0.62231334  0.15818563  1
  O  O217  1  0.25003009  0.61824544  0.41486651  1
  O  O218  1  0.24126442  0.62832854  0.66628926  1
  O  O219  1  0.24874143  0.63002273  0.91151432  1
  O  O220  1  0.24158221  0.87380225  0.16821295  1
  O  O221  1  0.24863835  0.87004470  0.41320115  1
  O  O222  1  0.24460410  0.87451834  0.66377621  1
  O  O223  1  0.24806712  0.87826407  0.91423345  1
  O  O224  1  0.49755244  0.12567507  0.16461023  1
  O  O225  1  0.49927099  0.13321250  0.41254572  1
  O  O226  1  0.49846646  0.12155664  0.65599647  1
  O  O227  1  0.49233979  0.11889105  0.91535825  1
  O  O228  1  0.50140578  0.37250501  0.16519780  1
  O  O229  1  0.50216275  0.38052177  0.41390094  1
  O  O230  1  0.50887209  0.37413555  0.66362292  1
  O  O231  1  0.50591914  0.37045924  0.90681673  1
  O  O232  1  0.50631441  0.62439542  0.15636993  1
  O  O233  1  0.50294575  0.61781877  0.41619489  1
  O  O234  1  0.50121912  0.62820026  0.66372603  1
  O  O235  1  0.50127017  0.63012337  0.91117602  1
  O  O236  1  0.49955272  0.87553466  0.16786263  1
  O  O237  1  0.49845840  0.87049203  0.40837498  1
  O  O238  1  0.49150284  0.87810252  0.64889860  1
  O  O239  1  0.49363059  0.87801298  0.91054945  1
  O  O240  1  0.74908596  0.12489889  0.16426185  1
  O  O241  1  0.75371526  0.13171259  0.41320669  1
  O  O242  1  0.75949423  0.12281299  0.65535284  1
  O  O243  1  0.75748056  0.11945641  0.91442897  1
  O  O244  1  0.74948711  0.37448613  0.16900309  1
  O  O245  1  0.75297022  0.37986624  0.41642629  1
  O  O246  1  0.74428412  0.37136299  0.66438226  1
  O  O247  1  0.74747944  0.37248748  0.91047119  1
  O  O248  1  0.75323471  0.62344861  0.16196336  1
  O  O249  1  0.74656337  0.61929492  0.41544099  1
  O  O250  1  0.75324071  0.62879985  0.66211844  1
  O  O251  1  0.75787193  0.62846468  0.91334588  1
  O  O252  1  0.75103326  0.87489212  0.17058994  1
  O  O253  1  0.75231883  0.86973251  0.40635771  1
  O  O254  1  0.76326429  0.88016083  0.65259857  1
  O  O255  1  0.75643020  0.87787210  0.91619600  1
  O  O256  1  0.12581746  0.12434135  0.04681236  1
  O  O257  1  0.12526372  0.13555917  0.29574823  1
  O  O258  1  0.12285648  0.12520027  0.54730625  1
  O  O259  1  0.12435682  0.11404246  0.78960562  1
  O  O260  1  0.12104749  0.37326295  0.04398058  1
  O  O261  1  0.12514839  0.38584530  0.28882840  1
  O  O262  1  0.12311183  0.37524850  0.55273123  1
  O  O263  1  0.12029687  0.37045869  0.78147906  1
  O  O264  1  0.11807929  0.62793920  0.04532924  1
  O  O265  1  0.12600919  0.61453453  0.29953892  1
  O  O266  1  0.12345994  0.62492186  0.55226413  1
  O  O267  1  0.11976343  0.63573292  0.78660964  1
  O  O268  1  0.12396313  0.87738517  0.05580514  1
  O  O269  1  0.12379108  0.86712974  0.28229043  1
  O  O270  1  0.12502984  0.87327783  0.54455203  1
  O  O271  1  0.12465410  0.87759835  0.80243559  1
  O  O272  1  0.37608863  0.12403151  0.05223078  1
  O  O273  1  0.36727496  0.13231710  0.28878638  1
  O  O274  1  0.36856746  0.13369092  0.52845635  1
  O  O275  1  0.37514469  0.11684793  0.79728781  1
  O  O276  1  0.38230277  0.36789791  0.03116753  1
  O  O277  1  0.37518057  0.38186006  0.30098023  1
  O  O278  1  0.36850692  0.37827758  0.54489593  1
  O  O279  1  0.37189862  0.36796779  0.77634083  1
  O  O280  1  0.37496042  0.63047946  0.02996885  1
  O  O281  1  0.37511217  0.61675253  0.29894336  1
  O  O282  1  0.37265097  0.61869086  0.54114920  1
  O  O283  1  0.37188337  0.63404554  0.78018990  1
  O  O284  1  0.36713396  0.87712309  0.04364806  1
  O  O285  1  0.36913064  0.87408251  0.27935255  1
  O  O286  1  0.36654507  0.87292260  0.54152715  1
  O  O287  1  0.37472737  0.88219563  0.79816192  1
  O  O288  1  0.62519341  0.12412731  0.05211845  1
  O  O289  1  0.62637193  0.13635350  0.28761237  1
  O  O290  1  0.62681925  0.13181431  0.52801737  1
  O  O291  1  0.62557529  0.11171073  0.78671895  1
  O  O292  1  0.63143614  0.36982934  0.03453511  1
  O  O293  1  0.62358113  0.38225847  0.30194016  1
  O  O294  1  0.62669333  0.37391303  0.54597860  1
  O  O295  1  0.62929559  0.36965412  0.79463616  1
  O  O296  1  0.62605212  0.62599408  0.04400186  1
  O  O297  1  0.62377365  0.61440567  0.30380871  1
  O  O298  1  0.62611635  0.62725623  0.53462027  1
  O  O299  1  0.62760374  0.63637856  0.78307813  1
  O  O300  1  0.62909500  0.87901095  0.04410631  1
  O  O301  1  0.62567103  0.87190167  0.28071170  1
  O  O302  1  0.62698935  0.86730266  0.52562633  1
  O  O303  1  0.63167199  0.88253011  0.78567851  1
  O  O304  1  0.87708998  0.12258417  0.05498801  1
  O  O305  1  0.87800503  0.13416312  0.28219543  1
  O  O306  1  0.88199422  0.12648401  0.54482818  1
  O  O307  1  0.87542716  0.11760021  0.79711398  1
  O  O308  1  0.86462243  0.37486431  0.03488879  1
  O  O309  1  0.87201395  0.37971682  0.30120223  1
  O  O310  1  0.88399113  0.37403398  0.54620882  1
  O  O311  1  0.87329358  0.36708901  0.77667191  1
  O  O312  1  0.87344215  0.62457326  0.04864397  1
  O  O313  1  0.87401582  0.61863217  0.30127533  1
  O  O314  1  0.87886638  0.62026580  0.53296676  1
  O  O315  1  0.87576081  0.63358697  0.79574411  1
  O  O316  1  0.88302226  0.87565864  0.04815309  1
  O  O317  1  0.88487926  0.86983581  0.27777062  1
  O  O318  1  0.88407756  0.87700483  0.54256428  1
  O  O319  1  0.87501300  0.87643199  0.79903882  1
