# generated using pymatgen
data_VFe(PbO3)2
_symmetry_space_group_name_H-M   'P 1'
_cell_length_a   15.38242385
_cell_length_b   15.39063256
_cell_length_c   18.46165174
_cell_angle_alpha   89.96792421
_cell_angle_beta   89.98926340
_cell_angle_gamma   90.01626127
_symmetry_Int_Tables_number   1
_chemical_formula_structural   VFe(PbO3)2
_chemical_formula_sum   'V32 Fe32 Pb64 O192'
_cell_volume   4370.70711031
_cell_formula_units_Z   32
loop_
 _symmetry_equiv_pos_site_id
 _symmetry_equiv_pos_as_xyz
  1  'x, y, z'
loop_
 _atom_site_type_symbol
 _atom_site_label
 _atom_site_symmetry_multiplicity
 _atom_site_fract_x
 _atom_site_fract_y
 _atom_site_fract_z
 _atom_site_occupancy
  V  V0  1  0.62312263  0.87258639  0.14597897  1
  V  V1  1  0.12591187  0.12333627  0.89064542  1
  V  V2  1  0.62572627  0.62070866  0.38202428  1
  V  V3  1  0.12643724  0.62464720  0.13468550  1
  V  V4  1  0.62381191  0.12202193  0.13886455  1
  V  V5  1  0.12264602  0.38850646  0.90659101  1
  V  V6  1  0.62395597  0.62384879  0.14006898  1
  V  V7  1  0.62534776  0.87056522  0.89134298  1
  V  V8  1  0.87513101  0.87619304  0.63951101  1
  V  V9  1  0.37751557  0.62480761  0.89338212  1
  V  V10  1  0.12111355  0.12646443  0.64295299  1
  V  V11  1  0.62493737  0.37438657  0.63948455  1
  V  V12  1  0.62218571  0.37553966  0.89196476  1
  V  V13  1  0.62557562  0.62573733  0.89520454  1
  V  V14  1  0.62701140  0.87334966  0.63603955  1
  V  V15  1  0.62629613  0.62337255  0.63617104  1
  V  V16  1  0.12536474  0.62044068  0.38318489  1
  V  V17  1  0.87509953  0.12498751  0.38723852  1
  V  V18  1  0.37308406  0.37391486  0.89490354  1
  V  V19  1  0.37499318  0.62527431  0.63657622  1
  V  V20  1  0.37394101  0.12585275  0.64352484  1
  V  V21  1  0.37369769  0.37298107  0.38752186  1
  V  V22  1  0.12240225  0.12866534  0.38864700  1
  V  V23  1  0.37618560  0.87412029  0.63683089  1
  V  V24  1  0.36875593  0.12505464  0.38902354  1
  V  V25  1  0.37467974  0.12478521  0.13700163  1
  V  V26  1  0.37491482  0.87808444  0.14509839  1
  V  V27  1  0.87845170  0.87316598  0.88753085  1
  V  V28  1  0.12324590  0.87537419  0.13958200  1
  V  V29  1  0.12385139  0.62404454  0.64213422  1
  V  V30  1  0.87501634  0.62573502  0.64060049  1
  V  V31  1  0.37824912  0.87378300  0.88836521  1
  Fe  Fe32  1  0.12594069  0.63010803  0.88873914  1
  Fe  Fe33  1  0.12749367  0.11943631  0.13003617  1
  Fe  Fe34  1  0.37393935  0.87619574  0.38591191  1
  Fe  Fe35  1  0.12528330  0.37230390  0.38389816  1
  Fe  Fe36  1  0.12441216  0.87714363  0.64764090  1
  Fe  Fe37  1  0.87270529  0.62753161  0.88761516  1
  Fe  Fe38  1  0.62722876  0.37289535  0.37869074  1
  Fe  Fe39  1  0.87083715  0.12316796  0.89343350  1
  Fe  Fe40  1  0.87739551  0.37402025  0.38149097  1
  Fe  Fe41  1  0.37423598  0.62840770  0.14825117  1
  Fe  Fe42  1  0.62189290  0.37383637  0.13793473  1
  Fe  Fe43  1  0.12833872  0.87350466  0.87803506  1
  Fe  Fe44  1  0.12620180  0.87683778  0.38597900  1
  Fe  Fe45  1  0.12744833  0.37317624  0.12104749  1
  Fe  Fe46  1  0.87652407  0.37646893  0.63834055  1
  Fe  Fe47  1  0.87587969  0.12168652  0.12667333  1
  Fe  Fe48  1  0.87358697  0.37776883  0.89771085  1
  Fe  Fe49  1  0.87437176  0.12694730  0.63572676  1
  Fe  Fe50  1  0.87368971  0.37301470  0.12559132  1
  Fe  Fe51  1  0.62360971  0.12805023  0.38559457  1
  Fe  Fe52  1  0.87594596  0.87686949  0.38156490  1
  Fe  Fe53  1  0.62162305  0.12259819  0.88425288  1
  Fe  Fe54  1  0.62459335  0.12404211  0.63725210  1
  Fe  Fe55  1  0.12723248  0.37532342  0.63913511  1
  Fe  Fe56  1  0.87450652  0.62812930  0.14694327  1
  Fe  Fe57  1  0.87915872  0.62370082  0.37594221  1
  Fe  Fe58  1  0.37812591  0.12427320  0.88473554  1
  Fe  Fe59  1  0.37218200  0.62226895  0.37714524  1
  Fe  Fe60  1  0.87309534  0.87832068  0.14051221  1
  Fe  Fe61  1  0.37644156  0.37284707  0.13231704  1
  Fe  Fe62  1  0.37488144  0.37788166  0.63873688  1
  Fe  Fe63  1  0.62508937  0.87725704  0.38293556  1
  Pb  Pb64  1  0.00072673  0.00526886  0.00117236  1
  Pb  Pb65  1  -0.00546051  0.00198561  0.24567333  1
  Pb  Pb66  1  0.00409402  -0.00548567  0.50195758  1
  Pb  Pb67  1  -0.00602580  0.00729461  0.75455788  1
  Pb  Pb68  1  -0.00316654  0.24865435  -0.00013807  1
  Pb  Pb69  1  0.00059659  0.25303114  0.23165416  1
  Pb  Pb70  1  -0.00815284  0.25455169  0.50326604  1
  Pb  Pb71  1  -0.01206023  0.26104028  0.75801811  1
  Pb  Pb72  1  -0.01954165  0.51441165  0.00743261  1
  Pb  Pb73  1  -0.00785587  0.48871583  0.24202112  1
  Pb  Pb74  1  -0.00185781  0.49098209  0.49521063  1
  Pb  Pb75  1  -0.00643705  0.49706998  0.75688357  1
  Pb  Pb76  1  -0.00241227  0.74844409  0.00073366  1
  Pb  Pb77  1  -0.00576301  0.75384746  0.25115557  1
  Pb  Pb78  1  0.00295113  0.75234395  0.49301407  1
  Pb  Pb79  1  0.00497576  0.74381619  0.75420941  1
  Pb  Pb80  1  0.24405563  0.00095630  -0.00167461  1
  Pb  Pb81  1  0.24940864  -0.00689552  0.25454762  1
  Pb  Pb82  1  0.24321355  -0.00735447  0.50477508  1
  Pb  Pb83  1  0.25265818  -0.00043565  0.75225003  1
  Pb  Pb84  1  0.24489831  0.24706975  0.00127379  1
  Pb  Pb85  1  0.23797751  0.25831804  0.24373756  1
  Pb  Pb86  1  0.24951355  0.25915301  0.50571562  1
  Pb  Pb87  1  0.25104001  0.25166124  0.75418478  1
  Pb  Pb88  1  0.26569248  0.50579437  0.00991478  1
  Pb  Pb89  1  0.24767278  0.49628710  0.24227620  1
  Pb  Pb90  1  0.24798179  0.49100988  0.50109367  1
  Pb  Pb91  1  0.24482809  0.50316260  0.75320514  1
  Pb  Pb92  1  0.25267198  0.74723031  0.00175153  1
  Pb  Pb93  1  0.24915365  0.75803808  0.25608235  1
  Pb  Pb94  1  0.24891904  0.74917543  0.49383322  1
  Pb  Pb95  1  0.24319162  0.74862068  0.75239274  1
  Pb  Pb96  1  0.50074382  0.00232906  -0.00069130  1
  Pb  Pb97  1  0.50657716  0.00244952  0.25860161  1
  Pb  Pb98  1  0.50673474  0.00503295  0.49788950  1
  Pb  Pb99  1  0.50256921  0.00596710  0.75186559  1
  Pb  Pb100  1  0.50143796  0.25757501  0.00322030  1
  Pb  Pb101  1  0.50775268  0.24914865  0.25086344  1
  Pb  Pb102  1  0.50523041  0.24860588  0.49874969  1
  Pb  Pb103  1  0.50094690  0.24166697  0.75308806  1
  Pb  Pb104  1  0.49968647  0.49288520  0.01069372  1
  Pb  Pb105  1  0.49432060  0.49872613  0.24594293  1
  Pb  Pb106  1  0.49550875  0.49496000  0.49366634  1
  Pb  Pb107  1  0.50239702  0.50070712  0.74898954  1
  Pb  Pb108  1  0.49483304  0.74281967  0.00840699  1
  Pb  Pb109  1  0.49551047  0.75628039  0.25723114  1
  Pb  Pb110  1  0.49799171  0.74855494  0.48892537  1
  Pb  Pb111  1  0.50111155  0.75087392  0.74557148  1
  Pb  Pb112  1  0.75688664  -0.00273841  0.00367721  1
  Pb  Pb113  1  0.74612249  -0.00015959  0.25192431  1
  Pb  Pb114  1  0.74802067  0.00826310  0.49693811  1
  Pb  Pb115  1  0.74924983  0.01259172  0.75188436  1
  Pb  Pb116  1  0.75364654  0.24744928  -0.00245297  1
  Pb  Pb117  1  0.75227218  0.25552190  0.24326165  1
  Pb  Pb118  1  0.75498024  0.25079235  0.49852812  1
  Pb  Pb119  1  0.75857538  0.24586536  0.75250537  1
  Pb  Pb120  1  0.74945274  0.49426272  0.00609907  1
  Pb  Pb121  1  0.75736266  0.48746780  0.24684952  1
  Pb  Pb122  1  0.75765432  0.49333328  0.49119272  1
  Pb  Pb123  1  0.76032415  0.49992088  0.75540511  1
  Pb  Pb124  1  0.76318303  0.75238084  0.01253065  1
  Pb  Pb125  1  0.75790725  0.75296058  0.25397910  1
  Pb  Pb126  1  0.75336768  0.75062628  0.48802085  1
  Pb  Pb127  1  0.75584625  0.74611994  0.75004852  1
  O  O128  1  0.13055225  -0.00707767  0.16432572  1
  O  O129  1  0.12882055  0.01054402  0.41637231  1
  O  O130  1  0.12760813  0.00925564  0.67070722  1
  O  O131  1  0.12830606  -0.00217507  0.91131409  1
  O  O132  1  0.12975994  0.24633940  0.15222478  1
  O  O133  1  0.12881067  0.24271358  0.41553746  1
  O  O134  1  0.12925528  0.24174658  0.66921788  1
  O  O135  1  0.12747524  0.23858022  0.91394086  1
  O  O136  1  0.12950975  0.50662480  0.14510971  1
  O  O137  1  0.12611863  0.50314388  0.40918004  1
  O  O138  1  0.12708187  0.50682521  0.66758445  1
  O  O139  1  0.12964940  0.50222023  0.91875916  1
  O  O140  1  0.12960723  0.75859419  0.16305675  1
  O  O141  1  0.12641811  0.74350644  0.40977698  1
  O  O142  1  0.12522903  0.74445183  0.66489829  1
  O  O143  1  0.12873637  0.75479286  0.91601463  1
  O  O144  1  0.37826233  -0.00210477  0.16805545  1
  O  O145  1  0.37148296  0.00886677  0.41063685  1
  O  O146  1  0.37674083  0.00073777  0.66439897  1
  O  O147  1  0.38139091  -0.00935953  0.90915283  1
  O  O148  1  0.37708617  0.23957465  0.15566195  1
  O  O149  1  0.37280194  0.25263343  0.41530159  1
  O  O150  1  0.37554431  0.24521330  0.66460342  1
  O  O151  1  0.37887636  0.25588211  0.91162124  1
  O  O152  1  0.37492451  0.49997699  0.16225907  1
  O  O153  1  0.37356937  0.49362145  0.40850578  1
  O  O154  1  0.37450349  0.50714253  0.66804651  1
  O  O155  1  0.37666797  0.49939607  0.91820222  1
  O  O156  1  0.37618177  0.76010730  0.16713901  1
  O  O157  1  0.37304446  0.74588587  0.41139112  1
  O  O158  1  0.37658106  0.74801327  0.66461500  1
  O  O159  1  0.37868984  0.75198337  0.91787186  1
  O  O160  1  0.61854224  -0.00025936  0.16613578  1
  O  O161  1  0.62350728  0.00359611  0.41503349  1
  O  O162  1  0.62498770  -0.00790104  0.66205953  1
  O  O163  1  0.61914744  -0.01246130  0.91101506  1
  O  O164  1  0.61989590  0.23970376  0.15795317  1
  O  O165  1  0.62183092  0.25153644  0.41515573  1
  O  O166  1  0.62152779  0.25805651  0.66007303  1
  O  O167  1  0.61938214  0.25839118  0.90843629  1
  O  O168  1  0.62152774  0.50775856  0.15760332  1
  O  O169  1  0.62413896  0.50233292  0.40885675  1
  O  O170  1  0.62433326  0.50137295  0.66730377  1
  O  O171  1  0.62021540  0.50471620  0.91765337  1
  O  O172  1  0.62130652  0.75542563  0.16671725  1
  O  O173  1  0.62440144  0.74160184  0.40755493  1
  O  O174  1  0.62592614  0.74810318  0.66498573  1
  O  O175  1  0.61830506  0.74770111  0.91890510  1
  O  O176  1  0.87211903  0.00213484  0.16606538  1
  O  O177  1  0.87848643  0.00857875  0.41157776  1
  O  O178  1  0.87317731  -0.00637409  0.66229750  1
  O  O179  1  0.86677360  -0.01206821  0.91183149  1
  O  O180  1  0.87291501  0.24629941  0.15090902  1
  O  O181  1  0.87911685  0.24282654  0.41228647  1
  O  O182  1  0.87463950  0.25199120  0.66941576  1
  O  O183  1  0.87418497  0.24982493  0.91397471  1
  O  O184  1  0.87580140  0.50040022  0.15661053  1
  O  O185  1  0.87769395  0.50206400  0.41026647  1
  O  O186  1  0.87558888  0.50414429  0.66781568  1
  O  O187  1  0.87096320  0.50512547  0.91813619  1
  O  O188  1  0.87423398  0.75411777  0.16839588  1
  O  O189  1  0.87732776  0.74757376  0.40914136  1
  O  O190  1  0.87456470  0.75085073  0.66632523  1
  O  O191  1  0.86814223  0.75666834  0.91580785  1
  O  O192  1  0.00191923  0.11976407  0.15613648  1
  O  O193  1  0.00512329  0.12598162  0.41023002  1
  O  O194  1  0.00452523  0.12361172  0.66462507  1
  O  O195  1  0.00543721  0.11694642  0.91173577  1
  O  O196  1  0.00312166  0.37481861  0.14733542  1
  O  O197  1  0.00177193  0.37203901  0.41296549  1
  O  O198  1  0.00360171  0.37629141  0.67070131  1
  O  O199  1  0.00725292  0.37530118  0.91591529  1
  O  O200  1  0.01316048  0.63178626  0.16173310  1
  O  O201  1  0.00809076  0.62420750  0.41040309  1
  O  O202  1  0.00286511  0.62619172  0.66518978  1
  O  O203  1  -0.00113205  0.63034612  0.91673691  1
  O  O204  1  0.00658339  0.87701797  0.15707351  1
  O  O205  1  0.00148326  0.87868226  0.41531401  1
  O  O206  1  -0.00915830  0.87438706  0.66688238  1
  O  O207  1  -0.00597074  0.87343107  0.90092755  1
  O  O208  1  0.25957013  0.11639441  0.15829530  1
  O  O209  1  0.25180864  0.12898256  0.41651549  1
  O  O210  1  0.25302512  0.12339296  0.66749492  1
  O  O211  1  0.25027211  0.12005665  0.91148112  1
  O  O212  1  0.25033107  0.37432368  0.15687772  1
  O  O213  1  0.25415473  0.37337408  0.41475137  1
  O  O214  1  0.25063256  0.37535455  0.67426529  1
  O  O215  1  0.25712981  0.37544776  0.91539700  1
  O  O216  1  0.24058734  0.63179513  0.16506085  1
  O  O217  1  0.24399485  0.62259388  0.40895141  1
  O  O218  1  0.24825859  0.62664560  0.66344674  1
  O  O219  1  0.25711207  0.62651211  0.91898997  1
  O  O220  1  0.25408565  0.87767889  0.16406483  1
  O  O221  1  0.24936753  0.87688082  0.42039881  1
  O  O222  1  0.25736978  0.87557405  0.66500042  1
  O  O223  1  0.26082885  0.87302081  0.90745588  1
  O  O224  1  0.49694624  0.11965131  0.16538154  1
  O  O225  1  0.48808908  0.12906929  0.41413520  1
  O  O226  1  0.49538748  0.12381298  0.66427673  1
  O  O227  1  0.50024209  0.12344441  0.91904620  1
  O  O228  1  0.49789121  0.37210219  0.16626355  1
  O  O229  1  0.49348212  0.37465753  0.40888956  1
  O  O230  1  0.50475100  0.38005980  0.66666335  1
  O  O231  1  0.49994974  0.38044538  0.91721224  1
  O  O232  1  0.50725224  0.63217590  0.16746990  1
  O  O233  1  0.50408008  0.62126529  0.40693544  1
  O  O234  1  0.50131232  0.62562563  0.66348861  1
  O  O235  1  0.50052690  0.62590980  0.92262262  1
  O  O236  1  0.49877149  0.87698313  0.16803670  1
  O  O237  1  0.49964164  0.87448541  0.41347504  1
  O  O238  1  0.50065107  0.87102726  0.66386264  1
  O  O239  1  0.49910013  0.86852926  0.91911222  1
  O  O240  1  0.73991229  0.11921901  0.15570554  1
  O  O241  1  0.75689702  0.12640484  0.40703844  1
  O  O242  1  0.74883270  0.12540271  0.66604908  1
  O  O243  1  0.74266999  0.12276696  0.91522694  1
  O  O244  1  0.74815834  0.37362775  0.15824890  1
  O  O245  1  0.75177083  0.37341795  0.41086559  1
  O  O246  1  0.74137927  0.37817957  0.66519640  1
  O  O247  1  0.73857970  0.38003210  0.91327787  1
  O  O248  1  0.73950134  0.63254089  0.16327453  1
  O  O249  1  0.74478945  0.62289269  0.40572910  1
  O  O250  1  0.74960688  0.62497945  0.66558627  1
  O  O251  1  0.74004171  0.62775227  0.91681033  1
  O  O252  1  0.74030214  0.87826318  0.16488938  1
  O  O253  1  0.75092987  0.87629581  0.41272041  1
  O  O254  1  0.75359211  0.87059676  0.66315585  1
  O  O255  1  0.74058299  0.86894902  0.91369878  1
  O  O256  1  0.12935937  0.11159794  0.02953142  1
  O  O257  1  0.12597033  0.12820708  0.29733935  1
  O  O258  1  0.12432648  0.12597701  0.55167006  1
  O  O259  1  0.12593441  0.12265988  0.79891370  1
  O  O260  1  0.13413934  0.36392072  0.01752981  1
  O  O261  1  0.13209165  0.36828228  0.28373937  1
  O  O262  1  0.13522724  0.37623173  0.53858435  1
  O  O263  1  0.13165120  0.37629502  0.81464436  1
  O  O264  1  0.12783195  0.63820995  0.04319795  1
  O  O265  1  0.12376958  0.62015970  0.29213153  1
  O  O266  1  0.12289935  0.62270563  0.55132692  1
  O  O267  1  0.12913505  0.63030353  0.78825700  1
  O  O268  1  0.12964988  0.87674222  0.04789803  1
  O  O269  1  0.13462716  0.87815800  0.28612019  1
  O  O270  1  0.12189388  0.88578962  0.54671419  1
  O  O271  1  0.12940148  0.87088764  0.77647466  1
  O  O272  1  0.37867062  0.11785121  0.04532519  1
  O  O273  1  0.36807425  0.13026891  0.29814390  1
  O  O274  1  0.37215834  0.12453186  0.55251503  1
  O  O275  1  0.38283260  0.12369581  0.78471462  1
  O  O276  1  0.38286034  0.37706108  0.03124850  1
  O  O277  1  0.36974775  0.36993656  0.29624915  1
  O  O278  1  0.37108575  0.38053260  0.53903153  1
  O  O279  1  0.37742346  0.37820354  0.80346496  1
  O  O280  1  0.37134236  0.63069976  0.04572755  1
  O  O281  1  0.37357574  0.62437143  0.27657345  1
  O  O282  1  0.37526403  0.62303827  0.54545195  1
  O  O283  1  0.37842896  0.62603773  0.80215350  1
  O  O284  1  0.37619270  0.87865237  0.05362889  1
  O  O285  1  0.36730287  0.87429700  0.28571885  1
  O  O286  1  0.37642768  0.87412623  0.54562288  1
  O  O287  1  0.38381960  0.86878877  0.79713476  1
  O  O288  1  0.61748493  0.11733959  0.04745911  1
  O  O289  1  0.61864819  0.12452229  0.28481480  1
  O  O290  1  0.62091452  0.12207905  0.53661467  1
  O  O291  1  0.61722897  0.12098944  0.78259266  1
  O  O292  1  0.61640354  0.37686930  0.03611394  1
  O  O293  1  0.62917081  0.36674854  0.27787457  1
  O  O294  1  0.62316109  0.37946529  0.54816387  1
  O  O295  1  0.61865889  0.38253359  0.80088452  1
  O  O296  1  0.62186457  0.63024170  0.04835495  1
  O  O297  1  0.62559484  0.62055787  0.29119365  1
  O  O298  1  0.62697676  0.62170972  0.54550349  1
  O  O299  1  0.62286334  0.62560402  0.80404807  1
  O  O300  1  0.62158541  0.87384171  0.05456595  1
  O  O301  1  0.62149392  0.88261223  0.28261381  1
  O  O302  1  0.62653994  0.87120603  0.54502302  1
  O  O303  1  0.62208658  0.86645671  0.80022722  1
  O  O304  1  0.87451176  0.11326771  0.02397808  1
  O  O305  1  0.87947087  0.12555728  0.29600705  1
  O  O306  1  0.87396883  0.13131456  0.53607444  1
  O  O307  1  0.87164576  0.11886644  0.79090211  1
  O  O308  1  0.86824632  0.37835788  0.02307043  1
  O  O309  1  0.87560897  0.37842550  0.28002983  1
  O  O310  1  0.87702800  0.37297648  0.53779343  1
  O  O311  1  0.87793667  0.38095164  0.79434634  1
  O  O312  1  0.87958966  0.63574825  0.04335249  1
  O  O313  1  0.88033263  0.62508682  0.27429463  1
  O  O314  1  0.87616414  0.62562528  0.54969589  1
  O  O315  1  0.87029304  0.62629706  0.78683580  1
  O  O316  1  0.86577082  0.87458316  0.03881651  1
  O  O317  1  0.87650545  0.87686094  0.28069848  1
  O  O318  1  0.87611832  0.87384624  0.54827153  1
  O  O319  1  0.86795799  0.87099633  0.79644863  1
