# generated using pymatgen
data_VFe(PbO3)2
_symmetry_space_group_name_H-M   'P 1'
_cell_length_a   15.37390703
_cell_length_b   15.37304588
_cell_length_c   18.54295381
_cell_angle_alpha   89.99368188
_cell_angle_beta   90.00359497
_cell_angle_gamma   90.00341398
_symmetry_Int_Tables_number   1
_chemical_formula_structural   VFe(PbO3)2
_chemical_formula_sum   'V32 Fe32 Pb64 O192'
_cell_volume   4382.51171893
_cell_formula_units_Z   32
loop_
 _symmetry_equiv_pos_site_id
 _symmetry_equiv_pos_as_xyz
  1  'x, y, z'
loop_
 _atom_site_type_symbol
 _atom_site_label
 _atom_site_symmetry_multiplicity
 _atom_site_fract_x
 _atom_site_fract_y
 _atom_site_fract_z
 _atom_site_occupancy
  V  V0  1  0.12480199  0.87504500  0.14322328  1
  V  V1  1  0.62606883  0.37411896  0.39322299  1
  V  V2  1  0.88090516  0.62527651  0.89107091  1
  V  V3  1  0.37394340  0.87673682  0.89041202  1
  V  V4  1  0.87547606  0.37363684  0.38823980  1
  V  V5  1  0.87548646  0.37892677  0.63694491  1
  V  V6  1  0.87432929  0.87481978  0.38569816  1
  V  V7  1  0.12654645  0.12613493  0.14298835  1
  V  V8  1  0.37578215  0.37209087  0.88622877  1
  V  V9  1  0.37516903  0.62558784  0.14332894  1
  V  V10  1  0.37699436  0.87103148  0.63577959  1
  V  V11  1  0.37511300  0.12467888  0.14112811  1
  V  V12  1  0.12736843  0.12502014  0.88810036  1
  V  V13  1  0.37626113  0.62369935  0.88857845  1
  V  V14  1  0.87521437  0.87126084  0.63945147  1
  V  V15  1  0.87272777  0.12452985  0.39117620  1
  V  V16  1  0.61811745  0.12428230  0.88922930  1
  V  V17  1  0.12339734  0.37384020  0.39289180  1
  V  V18  1  0.87331456  0.87480269  0.13770130  1
  V  V19  1  0.62344914  0.37437470  0.13762960  1
  V  V20  1  0.37773516  0.62695501  0.63670198  1
  V  V21  1  0.87411588  0.12644190  0.89067242  1
  V  V22  1  0.37865353  0.62449790  0.38606083  1
  V  V23  1  0.12657951  0.62324247  0.14220808  1
  V  V24  1  0.12279294  0.37681455  0.89044807  1
  V  V25  1  0.12758508  0.87509244  0.63698179  1
  V  V26  1  0.62558334  0.62323286  0.89162669  1
  V  V27  1  0.62601617  0.87566826  0.38918563  1
  V  V28  1  0.87253516  0.62321360  0.38989167  1
  V  V29  1  0.37662999  0.12526422  0.39069200  1
  V  V30  1  0.62296042  0.62384484  0.14266653  1
  V  V31  1  0.63285677  0.62882448  0.63746609  1
  Fe  Fe32  1  0.62820219  0.12179621  0.63027291  1
  Fe  Fe33  1  0.37184222  0.12445188  0.88091104  1
  Fe  Fe34  1  0.12218194  0.87537982  0.38459273  1
  Fe  Fe35  1  0.87676190  0.12425819  0.13342407  1
  Fe  Fe36  1  0.87668942  0.62518991  0.13412951  1
  Fe  Fe37  1  0.37225186  0.87656502  0.14910684  1
  Fe  Fe38  1  0.37301018  0.37497198  0.14130341  1
  Fe  Fe39  1  0.87694365  0.37578562  0.13283340  1
  Fe  Fe40  1  0.87685937  0.62690798  0.63302664  1
  Fe  Fe41  1  0.62491879  0.87162363  0.63402476  1
  Fe  Fe42  1  0.62492722  0.37548144  0.88431818  1
  Fe  Fe43  1  0.87211191  0.37467022  0.89133583  1
  Fe  Fe44  1  0.37534398  0.37518758  0.39639995  1
  Fe  Fe45  1  0.62391346  0.87456445  0.13070388  1
  Fe  Fe46  1  0.62621640  0.87471212  0.89499626  1
  Fe  Fe47  1  0.37499978  0.12139609  0.63314910  1
  Fe  Fe48  1  0.12769673  0.37431969  0.13530397  1
  Fe  Fe49  1  0.37508306  0.37688973  0.62396586  1
  Fe  Fe50  1  0.12608842  0.37616936  0.62878140  1
  Fe  Fe51  1  0.13077299  0.62389816  0.88516532  1
  Fe  Fe52  1  0.87564348  0.12314587  0.63397050  1
  Fe  Fe53  1  0.62678131  0.12611027  0.39079995  1
  Fe  Fe54  1  0.12509252  0.62678110  0.63287439  1
  Fe  Fe55  1  0.62553529  0.37750554  0.63505343  1
  Fe  Fe56  1  0.12111255  0.12495269  0.63003038  1
  Fe  Fe57  1  0.62693840  0.62395080  0.38091432  1
  Fe  Fe58  1  0.37638083  0.87533450  0.37845792  1
  Fe  Fe59  1  0.62371185  0.12632379  0.13429614  1
  Fe  Fe60  1  0.12414430  0.87557100  0.88589024  1
  Fe  Fe61  1  0.87474932  0.87639631  0.88757104  1
  Fe  Fe62  1  0.12354889  0.12404860  0.39043338  1
  Fe  Fe63  1  0.12511404  0.62490910  0.38720341  1
  Pb  Pb64  1  -0.00240799  0.00471902  -0.00107683  1
  Pb  Pb65  1  0.00618935  0.00059388  0.25415669  1
  Pb  Pb66  1  -0.00053090  0.00588694  0.49984972  1
  Pb  Pb67  1  -0.00067033  -0.00754113  0.74901147  1
  Pb  Pb68  1  -0.00269351  0.25242906  0.00220554  1
  Pb  Pb69  1  -0.00261212  0.25079905  0.24568126  1
  Pb  Pb70  1  -0.00017945  0.24469038  0.50370673  1
  Pb  Pb71  1  -0.00068753  0.25065806  0.74309621  1
  Pb  Pb72  1  -0.00702970  0.49940545  0.00521394  1
  Pb  Pb73  1  -0.00098019  0.49931578  0.24675856  1
  Pb  Pb74  1  0.00316530  0.50478987  0.50200534  1
  Pb  Pb75  1  0.00354406  0.50569696  0.74485184  1
  Pb  Pb76  1  0.00359066  0.75207490  -0.00252874  1
  Pb  Pb77  1  0.00641494  0.74988511  0.25347422  1
  Pb  Pb78  1  -0.00048681  0.74066443  0.49926819  1
  Pb  Pb79  1  0.00481284  0.75215803  0.75154748  1
  Pb  Pb80  1  0.25948246  -0.00629895  0.00512850  1
  Pb  Pb81  1  0.23959140  0.00211590  0.25928692  1
  Pb  Pb82  1  0.25055921  0.00298865  0.49417423  1
  Pb  Pb83  1  0.25242310  0.00610845  0.74596890  1
  Pb  Pb84  1  0.24887307  0.25720830  0.00088271  1
  Pb  Pb85  1  0.25152658  0.25437764  0.25581553  1
  Pb  Pb86  1  0.24618466  0.25105443  0.50249392  1
  Pb  Pb87  1  0.25360364  0.24960182  0.73485271  1
  Pb  Pb88  1  0.25120157  0.48871752  0.00300343  1
  Pb  Pb89  1  0.24995149  0.49805581  0.25555961  1
  Pb  Pb90  1  0.24326016  0.49859725  0.50075190  1
  Pb  Pb91  1  0.24602197  0.50276774  0.74140668  1
  Pb  Pb92  1  0.25082491  0.74976341  -0.00064362  1
  Pb  Pb93  1  0.23986974  0.74972757  0.25776701  1
  Pb  Pb94  1  0.24675789  0.75057386  0.49020209  1
  Pb  Pb95  1  0.24045702  0.75007231  0.75208425  1
  Pb  Pb96  1  0.49872446  -0.00999397  0.00747649  1
  Pb  Pb97  1  0.50155962  -0.00265670  0.24831923  1
  Pb  Pb98  1  0.50050074  0.00785880  0.50227792  1
  Pb  Pb99  1  0.50293190  0.00451939  0.74570189  1
  Pb  Pb100  1  0.50095602  0.24634473  -0.00250813  1
  Pb  Pb101  1  0.49611064  0.25298453  0.25468115  1
  Pb  Pb102  1  0.49411097  0.24518596  0.50619874  1
  Pb  Pb103  1  0.49938905  0.24933662  0.73561513  1
  Pb  Pb104  1  0.49293830  0.49280244  -0.00001344  1
  Pb  Pb105  1  0.49465024  0.49368736  0.25602419  1
  Pb  Pb106  1  0.50335304  0.49379361  0.50098708  1
  Pb  Pb107  1  0.50278605  0.49391501  0.74591152  1
  Pb  Pb108  1  0.49844508  0.75604564  0.00503949  1
  Pb  Pb109  1  0.49779753  0.75571171  0.25048709  1
  Pb  Pb110  1  0.50703849  0.75344750  0.49591936  1
  Pb  Pb111  1  0.50596635  0.75545073  0.75437831  1
  Pb  Pb112  1  0.74822356  0.00808098  0.00199105  1
  Pb  Pb113  1  0.74056258  0.00784355  0.24690237  1
  Pb  Pb114  1  0.74623504  0.00312098  0.50363846  1
  Pb  Pb115  1  0.74697198  -0.00338767  0.74680802  1
  Pb  Pb116  1  0.74908688  0.24519520  0.00139045  1
  Pb  Pb117  1  0.74716934  0.24226854  0.24748189  1
  Pb  Pb118  1  0.74699192  0.24747388  0.50508658  1
  Pb  Pb119  1  0.74749933  0.25244796  0.74429687  1
  Pb  Pb120  1  0.75644789  0.49808066  0.00310806  1
  Pb  Pb121  1  0.74803512  0.50235981  0.24701450  1
  Pb  Pb122  1  0.74842081  0.49638107  0.50195085  1
  Pb  Pb123  1  0.75581852  0.48427806  0.75897109  1
  Pb  Pb124  1  0.74785622  0.75227201  0.00052665  1
  Pb  Pb125  1  0.74566401  0.74547869  0.24639593  1
  Pb  Pb126  1  0.75111763  0.75233645  0.49971133  1
  Pb  Pb127  1  0.75202427  0.76334247  0.75811521  1
  O  O128  1  0.12541628  0.00207743  0.16741659  1
  O  O129  1  0.12183186  -0.00111143  0.41583228  1
  O  O130  1  0.12086291  -0.00844718  0.65988440  1
  O  O131  1  0.12272296  0.00801328  0.91183836  1
  O  O132  1  0.12675732  0.24319225  0.16437759  1
  O  O133  1  0.12222651  0.25465592  0.41340311  1
  O  O134  1  0.12233447  0.25153541  0.65963556  1
  O  O135  1  0.12493001  0.24924823  0.91516226  1
  O  O136  1  0.12878447  0.50623392  0.16336331  1
  O  O137  1  0.12269621  0.49599879  0.41262647  1
  O  O138  1  0.12623895  0.50121620  0.66212645  1
  O  O139  1  0.12878569  0.49370366  0.91076450  1
  O  O140  1  0.12595538  0.74752567  0.16668500  1
  O  O141  1  0.12239870  0.75020823  0.41281454  1
  O  O142  1  0.12601641  0.75610861  0.66268744  1
  O  O143  1  0.12880308  0.74877593  0.91879038  1
  O  O144  1  0.37163034  0.01045161  0.16942601  1
  O  O145  1  0.37818871  0.00385954  0.40966334  1
  O  O146  1  0.37301427  -0.01294317  0.66124304  1
  O  O147  1  0.37364643  -0.00360267  0.91569127  1
  O  O148  1  0.37122845  0.24294623  0.16843303  1
  O  O149  1  0.37715061  0.24374644  0.41637409  1
  O  O150  1  0.37672159  0.25037092  0.65270768  1
  O  O151  1  0.37363198  0.25123347  0.91084060  1
  O  O152  1  0.37202604  0.50648586  0.17044140  1
  O  O153  1  0.37774231  0.50801972  0.41308515  1
  O  O154  1  0.37555192  0.50997849  0.65541066  1
  O  O155  1  0.37556151  0.49710800  0.91434439  1
  O  O156  1  0.37290891  0.74184721  0.16644722  1
  O  O157  1  0.37892643  0.74474932  0.40867980  1
  O  O158  1  0.37143778  0.75509819  0.66585210  1
  O  O159  1  0.37445915  0.75395388  0.91383195  1
  O  O160  1  0.62508550  -0.00060075  0.16090819  1
  O  O161  1  0.63125974  -0.00683880  0.41129499  1
  O  O162  1  0.62699013  -0.00509339  0.66290644  1
  O  O163  1  0.62665381  0.00773117  0.91393917  1
  O  O164  1  0.62168449  0.25733643  0.16304697  1
  O  O165  1  0.63000810  0.25645192  0.41600897  1
  O  O166  1  0.62628842  0.25002229  0.65706240  1
  O  O167  1  0.62556570  0.24346415  0.91236561  1
  O  O168  1  0.62062691  0.49529318  0.16607981  1
  O  O169  1  0.62911836  0.49632056  0.41336897  1
  O  O170  1  0.62044000  0.51500671  0.66288944  1
  O  O171  1  0.61951341  0.50726709  0.91532422  1
  O  O172  1  0.62387706  0.74696427  0.16283757  1
  O  O173  1  0.62982425  0.75370121  0.41097426  1
  O  O174  1  0.62120242  0.74418339  0.66914513  1
  O  O175  1  0.62060228  0.74087661  0.92070492  1
  O  O176  1  0.87790040  -0.00847370  0.16235471  1
  O  O177  1  0.87214260  0.00359137  0.41080488  1
  O  O178  1  0.87694358  -0.01043168  0.66272422  1
  O  O179  1  0.87718978  0.00761742  0.91403176  1
  O  O180  1  0.87736516  0.25049907  0.16276631  1
  O  O181  1  0.87340078  0.24990430  0.41514892  1
  O  O182  1  0.87313672  0.25872897  0.66014497  1
  O  O183  1  0.87723936  0.24464285  0.91478058  1
  O  O184  1  0.87600061  0.50055705  0.16680251  1
  O  O185  1  0.87418446  0.50140841  0.41240920  1
  O  O186  1  0.87415844  0.49774950  0.66200667  1
  O  O187  1  0.87368811  0.50690579  0.91567472  1
  O  O188  1  0.87866415  0.75487355  0.16327830  1
  O  O189  1  0.87294075  0.74666155  0.40955512  1
  O  O190  1  0.87705584  0.75499936  0.66547115  1
  O  O191  1  0.87214096  0.74148618  0.91542796  1
  O  O192  1  0.00626783  0.12231760  0.16347282  1
  O  O193  1  -0.00869196  0.12668636  0.41306262  1
  O  O194  1  -0.00167955  0.12360716  0.66767994  1
  O  O195  1  0.00193897  0.12798807  0.91445279  1
  O  O196  1  0.00408260  0.37613929  0.16561554  1
  O  O197  1  -0.00150675  0.37559045  0.41531791  1
  O  O198  1  -0.00629108  0.37829743  0.65856018  1
  O  O199  1  0.00600149  0.37422706  0.91176758  1
  O  O200  1  0.00753342  0.62592284  0.16252707  1
  O  O201  1  -0.00739226  0.62387022  0.41128473  1
  O  O202  1  0.00020587  0.62693758  0.66529022  1
  O  O203  1  -0.00196644  0.62386734  0.90939717  1
  O  O204  1  0.00120352  0.87411310  0.16581915  1
  O  O205  1  -0.00944364  0.87555744  0.41216489  1
  O  O206  1  0.00115777  0.87175623  0.66116934  1
  O  O207  1  -0.00056682  0.87417455  0.91845840  1
  O  O208  1  0.24777666  0.12409357  0.16833885  1
  O  O209  1  0.25580859  0.12516840  0.41223445  1
  O  O210  1  0.24716508  0.11961328  0.65799176  1
  O  O211  1  0.24337824  0.12592749  0.91132115  1
  O  O212  1  0.24896322  0.37451262  0.17372895  1
  O  O213  1  0.24341520  0.37487990  0.41139454  1
  O  O214  1  0.25290061  0.37791713  0.65702969  1
  O  O215  1  0.24866798  0.37269997  0.91439632  1
  O  O216  1  0.24935443  0.62602969  0.16783531  1
  O  O217  1  0.25751496  0.62511520  0.41010691  1
  O  O218  1  0.25765867  0.63048303  0.66112905  1
  O  O219  1  0.25752795  0.62450423  0.91824466  1
  O  O220  1  0.24310524  0.87529801  0.16832699  1
  O  O221  1  0.25243471  0.87464347  0.40756071  1
  O  O222  1  0.24755746  0.87427525  0.65832014  1
  O  O223  1  0.25490685  0.87681656  0.91635012  1
  O  O224  1  0.49266930  0.12736359  0.16133049  1
  O  O225  1  0.49840653  0.12463481  0.41310421  1
  O  O226  1  0.50162453  0.11894965  0.66093489  1
  O  O227  1  0.50159027  0.12539802  0.90919053  1
  O  O228  1  0.50199973  0.37537592  0.16851875  1
  O  O229  1  0.50902313  0.37575678  0.41405833  1
  O  O230  1  0.49862394  0.38137958  0.65920305  1
  O  O231  1  0.49813153  0.37324267  0.91457210  1
  O  O232  1  0.49427708  0.62315195  0.16641589  1
  O  O233  1  0.49916379  0.62526209  0.40949460  1
  O  O234  1  0.49292393  0.63248132  0.66519931  1
  O  O235  1  0.49701132  0.62543923  0.91853931  1
  O  O236  1  0.50090579  0.87481500  0.16640907  1
  O  O237  1  0.50812695  0.87371912  0.40719558  1
  O  O238  1  0.49342700  0.87010532  0.66036591  1
  O  O239  1  0.49257473  0.87580403  0.91658426  1
  O  O240  1  0.75085340  0.12600772  0.16374606  1
  O  O241  1  0.75605989  0.12668443  0.41668526  1
  O  O242  1  0.75259666  0.12201113  0.66511018  1
  O  O243  1  0.75291543  0.12621541  0.91136865  1
  O  O244  1  0.74091631  0.37716731  0.15683164  1
  O  O245  1  0.75216029  0.37649221  0.41758664  1
  O  O246  1  0.75408760  0.38020415  0.66360328  1
  O  O247  1  0.74656497  0.37674544  0.91792915  1
  O  O248  1  0.74758097  0.62357416  0.16279606  1
  O  O249  1  0.75456759  0.62412183  0.41333596  1
  O  O250  1  0.74600788  0.63087721  0.65337429  1
  O  O251  1  0.74436109  0.62383910  0.91332650  1
  O  O252  1  0.75571340  0.87139849  0.15579920  1
  O  O253  1  0.75188846  0.87358319  0.41668959  1
  O  O254  1  0.75510467  0.86994915  0.66264200  1
  O  O255  1  0.75146982  0.87345492  0.92048542  1
  O  O256  1  0.12902943  0.12342535  0.05230981  1
  O  O257  1  0.12399067  0.11661253  0.29002882  1
  O  O258  1  0.11673166  0.12585020  0.52894660  1
  O  O259  1  0.12451157  0.12737988  0.79748374  1
  O  O260  1  0.13434735  0.37262975  0.03544402  1
  O  O261  1  0.12130603  0.37447868  0.30145277  1
  O  O262  1  0.12750527  0.37837979  0.52879105  1
  O  O263  1  0.12638061  0.37330762  0.79991218  1
  O  O264  1  0.12977710  0.62573852  0.05135894  1
  O  O265  1  0.12593682  0.63043786  0.28696022  1
  O  O266  1  0.12114187  0.62377453  0.53199857  1
  O  O267  1  0.13347545  0.62825701  0.78573047  1
  O  O268  1  0.12480983  0.87534682  0.05187719  1
  O  O269  1  0.11854296  0.87542397  0.28350951  1
  O  O270  1  0.12561249  0.87307103  0.54620704  1
  O  O271  1  0.12355067  0.87070255  0.78655335  1
  O  O272  1  0.37029433  0.12297277  0.04985811  1
  O  O273  1  0.37729749  0.12926347  0.29948082  1
  O  O274  1  0.38245284  0.11726465  0.53266785  1
  O  O275  1  0.37120985  0.11589707  0.78200218  1
  O  O276  1  0.36970062  0.37779964  0.04145327  1
  O  O277  1  0.38075943  0.37286770  0.29489408  1
  O  O278  1  0.37849725  0.37732464  0.52208456  1
  O  O279  1  0.37542919  0.37671860  0.79556678  1
  O  O280  1  0.37369053  0.62286396  0.05261875  1
  O  O281  1  0.37702732  0.62226506  0.29474228  1
  O  O282  1  0.38032451  0.63262840  0.54614899  1
  O  O283  1  0.37624090  0.62472542  0.79789685  1
  O  O284  1  0.37408808  0.88557159  0.04727385  1
  O  O285  1  0.38259417  0.87546425  0.27812724  1
  O  O286  1  0.37731725  0.86970560  0.54490028  1
  O  O287  1  0.37373074  0.87706715  0.79985249  1
  O  O288  1  0.62736288  0.13083780  0.03451682  1
  O  O289  1  0.63461133  0.12672721  0.29060771  1
  O  O290  1  0.62917180  0.11826174  0.52829015  1
  O  O291  1  0.62206675  0.12270453  0.79821821  1
  O  O292  1  0.61614256  0.37526784  0.04672108  1
  O  O293  1  0.62754976  0.37373727  0.30198875  1
  O  O294  1  0.63050151  0.38589158  0.53535507  1
  O  O295  1  0.62809903  0.38382762  0.78421582  1
  O  O296  1  0.62012706  0.62087346  0.05190522  1
  O  O297  1  0.63262845  0.62355083  0.28172459  1
  O  O298  1  0.62245400  0.63191116  0.54615878  1
  O  O299  1  0.62261585  0.62744527  0.80101534  1
  O  O300  1  0.61414373  0.87268724  0.02972143  1
  O  O301  1  0.63103715  0.87460349  0.29793867  1
  O  O302  1  0.62717162  0.86663061  0.53468157  1
  O  O303  1  0.62641115  0.86519297  0.79444254  1
  O  O304  1  0.87588086  0.12341271  0.03387051  1
  O  O305  1  0.87128639  0.12717569  0.29992416  1
  O  O306  1  0.87850430  0.12458748  0.53429680  1
  O  O307  1  0.87568847  0.12614716  0.80016973  1
  O  O308  1  0.88118605  0.38220312  0.03170464  1
  O  O309  1  0.87481491  0.37299277  0.29771347  1
  O  O310  1  0.87160280  0.37930042  0.54572808  1
  O  O311  1  0.86691201  0.38010252  0.79149692  1
  O  O312  1  0.87801943  0.61627669  0.03509312  1
  O  O313  1  0.87227171  0.62261119  0.29867968  1
  O  O314  1  0.88193788  0.62895497  0.53372178  1
  O  O315  1  0.87475302  0.62496161  0.80020220  1
  O  O316  1  0.87891474  0.87441216  0.04671680  1
  O  O317  1  0.87031566  0.87602630  0.29500901  1
  O  O318  1  0.87462356  0.87051943  0.54843429  1
  O  O319  1  0.87260329  0.87177047  0.78800131  1
