# generated using pymatgen
data_VFe(PbO3)2
_symmetry_space_group_name_H-M   'P 1'
_cell_length_a   15.37957133
_cell_length_b   15.38406423
_cell_length_c   18.47049049
_cell_angle_alpha   89.98291743
_cell_angle_beta   90.00912394
_cell_angle_gamma   90.01330381
_symmetry_Int_Tables_number   1
_chemical_formula_structural   VFe(PbO3)2
_chemical_formula_sum   'V32 Fe32 Pb64 O192'
_cell_volume   4370.12346573
_cell_formula_units_Z   32
loop_
 _symmetry_equiv_pos_site_id
 _symmetry_equiv_pos_as_xyz
  1  'x, y, z'
loop_
 _atom_site_type_symbol
 _atom_site_label
 _atom_site_symmetry_multiplicity
 _atom_site_fract_x
 _atom_site_fract_y
 _atom_site_fract_z
 _atom_site_occupancy
  V  V0  1  0.87411703  0.12433231  0.14455764  1
  V  V1  1  0.37779962  0.37595618  0.63283648  1
  V  V2  1  0.37811186  0.87457589  0.64005826  1
  V  V3  1  0.62227422  0.37589501  0.63184411  1
  V  V4  1  0.37531571  0.62181201  0.38273563  1
  V  V5  1  0.62723314  0.37658049  0.89483897  1
  V  V6  1  0.62424957  0.87485281  0.63392258  1
  V  V7  1  0.12474654  0.12818011  0.88728432  1
  V  V8  1  0.62683295  0.12285085  0.38831836  1
  V  V9  1  0.87203162  0.62422994  0.88923261  1
  V  V10  1  0.62763269  0.87280379  0.89115437  1
  V  V11  1  0.12669156  0.87514200  0.63513020  1
  V  V12  1  0.12063995  0.12217348  0.39413131  1
  V  V13  1  0.87606288  0.87299297  0.14473428  1
  V  V14  1  0.37210808  0.62623328  0.14477755  1
  V  V15  1  0.12390184  0.87600547  0.14423316  1
  V  V16  1  0.62724817  0.87522756  0.14661676  1
  V  V17  1  0.12253433  0.12551329  0.13940670  1
  V  V18  1  0.36888330  0.12275952  0.13980140  1
  V  V19  1  0.87503067  0.87663025  0.38807527  1
  V  V20  1  0.12572972  0.62154491  0.88836188  1
  V  V21  1  0.37653114  0.62240493  0.89279629  1
  V  V22  1  0.62482292  0.62515646  0.14495303  1
  V  V23  1  0.62218691  0.12243984  0.13985301  1
  V  V24  1  0.37621256  0.12732201  0.89162084  1
  V  V25  1  0.12516196  0.62558702  0.14556675  1
  V  V26  1  0.12250301  0.37454453  0.14456371  1
  V  V27  1  0.37531618  0.37543585  0.89192001  1
  V  V28  1  0.37599647  0.87387185  0.38629973  1
  V  V29  1  0.87088076  0.12668460  0.88680933  1
  V  V30  1  0.87430909  0.37299705  0.38894679  1
  V  V31  1  0.37390637  0.12276948  0.38758241  1
  Fe  Fe32  1  0.87470344  0.87406790  0.88181817  1
  Fe  Fe33  1  0.12775523  0.37312155  0.39633647  1
  Fe  Fe34  1  0.12804146  0.62691425  0.62701366  1
  Fe  Fe35  1  0.12680315  0.62824576  0.38814482  1
  Fe  Fe36  1  0.12517826  0.37657954  0.88462095  1
  Fe  Fe37  1  0.12862055  0.12389358  0.62982395  1
  Fe  Fe38  1  0.62239301  0.62333644  0.88922732  1
  Fe  Fe39  1  0.87466492  0.12430481  0.62828053  1
  Fe  Fe40  1  0.12347786  0.87264426  0.88535511  1
  Fe  Fe41  1  0.37522392  0.87396082  0.13722328  1
  Fe  Fe42  1  0.37474892  0.12593260  0.63530912  1
  Fe  Fe43  1  0.62265236  0.62514751  0.63080224  1
  Fe  Fe44  1  0.37419943  0.87412744  0.88978598  1
  Fe  Fe45  1  0.87537185  0.62515781  0.14765653  1
  Fe  Fe46  1  0.87693778  0.37469434  0.13870842  1
  Fe  Fe47  1  0.87337609  0.87574544  0.63389391  1
  Fe  Fe48  1  0.62176472  0.12570073  0.63493216  1
  Fe  Fe49  1  0.62680429  0.37270705  0.14965163  1
  Fe  Fe50  1  0.37255680  0.37667099  0.15113255  1
  Fe  Fe51  1  0.87498867  0.62624301  0.62467665  1
  Fe  Fe52  1  0.37650553  0.37127402  0.37832626  1
  Fe  Fe53  1  0.87557407  0.62568983  0.38485571  1
  Fe  Fe54  1  0.87449495  0.37523106  0.88368901  1
  Fe  Fe55  1  0.37471720  0.62522474  0.63118577  1
  Fe  Fe56  1  0.62354202  0.87746663  0.38361481  1
  Fe  Fe57  1  0.12750889  0.87830631  0.38518257  1
  Fe  Fe58  1  0.62298913  0.12739518  0.88841422  1
  Fe  Fe59  1  0.87209608  0.37555250  0.62781592  1
  Fe  Fe60  1  0.12668247  0.37507878  0.62357219  1
  Fe  Fe61  1  0.87471718  0.12469243  0.39071214  1
  Fe  Fe62  1  0.62453408  0.62760110  0.38448501  1
  Fe  Fe63  1  0.62375401  0.37346588  0.37842565  1
  Pb  Pb64  1  -0.00092055  -0.00090795  -0.00650309  1
  Pb  Pb65  1  -0.00234132  0.00188820  0.25686835  1
  Pb  Pb66  1  -0.00907821  -0.00208519  0.50442271  1
  Pb  Pb67  1  -0.00269167  -0.00082050  0.74233257  1
  Pb  Pb68  1  -0.00539110  0.25597678  -0.00395033  1
  Pb  Pb69  1  -0.00206046  0.24689206  0.25720154  1
  Pb  Pb70  1  -0.00320205  0.25833698  0.50480986  1
  Pb  Pb71  1  0.00082294  0.25656225  0.73580302  1
  Pb  Pb72  1  -0.00699860  0.49801983  0.00056108  1
  Pb  Pb73  1  -0.00113973  0.50533384  0.25796206  1
  Pb  Pb74  1  0.00178221  0.50583688  0.49491521  1
  Pb  Pb75  1  0.00051236  0.49519182  0.73378898  1
  Pb  Pb76  1  -0.00398089  0.74458858  -0.00136026  1
  Pb  Pb77  1  0.00168382  0.74180619  0.25983361  1
  Pb  Pb78  1  0.00101879  0.74562446  0.49501025  1
  Pb  Pb79  1  -0.00165234  0.75162143  0.74115752  1
  Pb  Pb80  1  0.24933979  -0.00393103  -0.00166445  1
  Pb  Pb81  1  0.24399075  -0.00383677  0.25229822  1
  Pb  Pb82  1  0.25266193  0.00832218  0.50346026  1
  Pb  Pb83  1  0.25105707  -0.00757295  0.75149752  1
  Pb  Pb84  1  0.25412283  0.25462145  0.00289731  1
  Pb  Pb85  1  0.24301859  0.26051240  0.26110306  1
  Pb  Pb86  1  0.24861567  0.24728617  0.50039204  1
  Pb  Pb87  1  0.24351535  0.25361067  0.74201307  1
  Pb  Pb88  1  0.25476781  0.49435582  0.00518238  1
  Pb  Pb89  1  0.23614387  0.49593952  0.26242761  1
  Pb  Pb90  1  0.24487415  0.49843347  0.49546219  1
  Pb  Pb91  1  0.24287167  0.49894162  0.73984740  1
  Pb  Pb92  1  0.25028882  0.75277263  0.00020598  1
  Pb  Pb93  1  0.24106658  0.75191437  0.25515275  1
  Pb  Pb94  1  0.25047882  0.74419246  0.49895237  1
  Pb  Pb95  1  0.25081434  0.75613077  0.75039825  1
  Pb  Pb96  1  0.49483337  -0.00444502  0.00178358  1
  Pb  Pb97  1  0.50326639  -0.00444633  0.25216006  1
  Pb  Pb98  1  0.50051500  0.00959971  0.50282181  1
  Pb  Pb99  1  0.50218252  0.00343191  0.75120293  1
  Pb  Pb100  1  0.50182262  0.26186202  0.01180156  1
  Pb  Pb101  1  0.49832348  0.25694375  0.25279559  1
  Pb  Pb102  1  0.50223543  0.24403658  0.49621330  1
  Pb  Pb103  1  0.50487792  0.24633180  0.74861773  1
  Pb  Pb104  1  0.50150216  0.49025611  0.01176701  1
  Pb  Pb105  1  0.50558693  0.49805841  0.25339392  1
  Pb  Pb106  1  0.50502176  0.50283994  0.49060651  1
  Pb  Pb107  1  0.50463972  0.50698968  0.74735806  1
  Pb  Pb108  1  0.49597355  0.75440701  0.00363634  1
  Pb  Pb109  1  0.50782470  0.74990040  0.25535662  1
  Pb  Pb110  1  0.50197287  0.74261555  0.49893307  1
  Pb  Pb111  1  0.50287054  0.74534910  0.74984259  1
  Pb  Pb112  1  0.74894357  0.00078195  -0.00200598  1
  Pb  Pb113  1  0.75396631  0.00144884  0.25683194  1
  Pb  Pb114  1  0.75704084  -0.00009187  0.50293457  1
  Pb  Pb115  1  0.75029742  0.00511471  0.74405773  1
  Pb  Pb116  1  0.74730330  0.26323797  0.00848929  1
  Pb  Pb117  1  0.75295195  0.25040386  0.25266024  1
  Pb  Pb118  1  0.75566020  0.25009491  0.49998219  1
  Pb  Pb119  1  0.75514924  0.25146360  0.74301155  1
  Pb  Pb120  1  0.75813066  0.49901109  0.00875994  1
  Pb  Pb121  1  0.75399354  0.49871529  0.25199925  1
  Pb  Pb122  1  0.75101568  0.50493638  0.49195243  1
  Pb  Pb123  1  0.75498825  0.50125926  0.74118476  1
  Pb  Pb124  1  0.75582404  0.74100590  0.00527594  1
  Pb  Pb125  1  0.74518483  0.74330715  0.26080268  1
  Pb  Pb126  1  0.75051670  0.74452857  0.49465734  1
  Pb  Pb127  1  0.75379144  0.74654168  0.74205655  1
  O  O128  1  0.12383653  0.00252329  0.16776671  1
  O  O129  1  0.13072157  0.00452809  0.41579023  1
  O  O130  1  0.13016946  -0.00786521  0.66095806  1
  O  O131  1  0.12482294  0.00641651  0.91538859  1
  O  O132  1  0.12410237  0.24909092  0.16741071  1
  O  O133  1  0.13034013  0.23957000  0.41370519  1
  O  O134  1  0.12960855  0.25156173  0.65680709  1
  O  O135  1  0.12564360  0.24674108  0.91684182  1
  O  O136  1  0.12521947  0.49567598  0.16756038  1
  O  O137  1  0.12893595  0.50183556  0.41051900  1
  O  O138  1  0.12957242  0.49923978  0.65383899  1
  O  O139  1  0.12581548  0.50422286  0.91920607  1
  O  O140  1  0.12517658  0.75167558  0.16803691  1
  O  O141  1  0.12962545  0.75516647  0.41117902  1
  O  O142  1  0.12973926  0.75794613  0.65919815  1
  O  O143  1  0.12513593  0.74142789  0.91771458  1
  O  O144  1  0.37564949  0.00564624  0.16590472  1
  O  O145  1  0.37684125  0.00289123  0.41255973  1
  O  O146  1  0.37588325  -0.00786270  0.66476830  1
  O  O147  1  0.37393548  0.00680257  0.91505878  1
  O  O148  1  0.37676906  0.23646536  0.16536174  1
  O  O149  1  0.37672268  0.24012171  0.40738500  1
  O  O150  1  0.37920814  0.25895902  0.66098429  1
  O  O151  1  0.37415694  0.24921209  0.91886791  1
  O  O152  1  0.37561399  0.51025411  0.16933991  1
  O  O153  1  0.37789617  0.50568018  0.39843831  1
  O  O154  1  0.37869606  0.49262174  0.65974616  1
  O  O155  1  0.37561993  0.50087353  0.92156102  1
  O  O156  1  0.37546048  0.74468199  0.16706152  1
  O  O157  1  0.37528342  0.75571069  0.40513015  1
  O  O158  1  0.37593669  0.75725041  0.66408604  1
  O  O159  1  0.37512356  0.74207721  0.91629905  1
  O  O160  1  0.62908352  0.00400329  0.16819050  1
  O  O161  1  0.62175588  0.00487513  0.41292624  1
  O  O162  1  0.61861621  -0.00816640  0.66192420  1
  O  O163  1  0.62466311  -0.00580856  0.91747750  1
  O  O164  1  0.62590286  0.23666506  0.16556488  1
  O  O165  1  0.62249299  0.24173315  0.40865596  1
  O  O166  1  0.62056180  0.25828106  0.65970778  1
  O  O167  1  0.62237524  0.25660546  0.91948081  1
  O  O168  1  0.62447614  0.50756535  0.16408890  1
  O  O169  1  0.62242485  0.49967781  0.40533335  1
  O  O170  1  0.62101258  0.49355393  0.65823853  1
  O  O171  1  0.62250640  0.49390272  0.92132291  1
  O  O172  1  0.62510033  0.75010513  0.16756204  1
  O  O173  1  0.62268208  0.75439185  0.41096839  1
  O  O174  1  0.61966892  0.75804206  0.66045158  1
  O  O175  1  0.62402777  0.75478312  0.91769019  1
  O  O176  1  0.87613201  -0.00200549  0.17058135  1
  O  O177  1  0.87498827  -0.00332302  0.41412560  1
  O  O178  1  0.87452014  0.00002720  0.66381606  1
  O  O179  1  0.87409861  0.00602237  0.91217668  1
  O  O180  1  0.87830602  0.24507311  0.16824208  1
  O  O181  1  0.87357970  0.25208923  0.41298022  1
  O  O182  1  0.87094865  0.24971788  0.65818106  1
  O  O183  1  0.87307771  0.24369419  0.91296525  1
  O  O184  1  0.87719619  0.49872905  0.16958534  1
  O  O185  1  0.87468112  0.49281827  0.40568930  1
  O  O186  1  0.87140940  0.50080858  0.65679682  1
  O  O187  1  0.87231035  0.50584164  0.91540514  1
  O  O188  1  0.87630514  0.75857009  0.16750177  1
  O  O189  1  0.87541778  0.75861324  0.40725966  1
  O  O190  1  0.87418657  0.75092179  0.66025203  1
  O  O191  1  0.87376834  0.74351998  0.91511809  1
  O  O192  1  0.00148166  0.12342604  0.16991359  1
  O  O193  1  0.00539020  0.12283635  0.41101359  1
  O  O194  1  0.00209688  0.12302327  0.65768547  1
  O  O195  1  -0.00422183  0.12583279  0.91174394  1
  O  O196  1  0.00654255  0.37232807  0.16874842  1
  O  O197  1  -0.00574878  0.37075830  0.41131143  1
  O  O198  1  0.00043429  0.37467229  0.65072174  1
  O  O199  1  -0.00081000  0.37585762  0.91534195  1
  O  O200  1  0.00524342  0.62635399  0.16998783  1
  O  O201  1  0.00011471  0.62716896  0.40879088  1
  O  O202  1  0.00215646  0.62743167  0.65602467  1
  O  O203  1  -0.00439590  0.62367636  0.91306012  1
  O  O204  1  -0.00404522  0.87786135  0.16861144  1
  O  O205  1  -0.00377586  0.87937957  0.41022062  1
  O  O206  1  0.00805872  0.87536762  0.65525234  1
  O  O207  1  -0.00172045  0.87366427  0.91621381  1
  O  O208  1  0.25024212  0.12206890  0.16097358  1
  O  O209  1  0.25545675  0.12186246  0.41118067  1
  O  O210  1  0.25266594  0.12384201  0.66618847  1
  O  O211  1  0.25347234  0.12728859  0.91603145  1
  O  O212  1  0.24137558  0.37240033  0.16852851  1
  O  O213  1  0.25738303  0.37259920  0.41428605  1
  O  O214  1  0.25924896  0.37530306  0.65285799  1
  O  O215  1  0.25327587  0.37565818  0.91994553  1
  O  O216  1  0.25190473  0.62622693  0.16694047  1
  O  O217  1  0.25999424  0.62931592  0.40893387  1
  O  O218  1  0.25213258  0.62704007  0.66271854  1
  O  O219  1  0.25502676  0.62207812  0.91665278  1
  O  O220  1  0.24769110  0.87691036  0.16408242  1
  O  O221  1  0.26080285  0.88059029  0.41395668  1
  O  O222  1  0.25290878  0.87478983  0.66208748  1
  O  O223  1  0.24789545  0.87386240  0.92016906  1
  O  O224  1  0.50432731  0.11865704  0.15961639  1
  O  O225  1  0.49886144  0.12225474  0.41031002  1
  O  O226  1  0.49753797  0.12448247  0.67013403  1
  O  O227  1  0.49273432  0.12653945  0.91701557  1
  O  O228  1  0.49925620  0.37326100  0.16800910  1
  O  O229  1  0.49925345  0.37129644  0.40690467  1
  O  O230  1  0.50150634  0.37590610  0.66214197  1
  O  O231  1  0.49976386  0.37512575  0.92237219  1
  O  O232  1  0.50145954  0.62789492  0.16523533  1
  O  O233  1  0.49238308  0.63098337  0.40755923  1
  O  O234  1  0.49850545  0.62632459  0.66646441  1
  O  O235  1  0.49331718  0.62232423  0.92062170  1
  O  O236  1  0.50323356  0.87780563  0.16503222  1
  O  O237  1  0.49145881  0.87990408  0.41149577  1
  O  O238  1  0.49889313  0.87471548  0.66332779  1
  O  O239  1  0.50455260  0.87457133  0.91714002  1
  O  O240  1  0.74961956  0.12181502  0.16647528  1
  O  O241  1  0.74341685  0.12297315  0.40802272  1
  O  O242  1  0.74674830  0.12290294  0.66058271  1
  O  O243  1  0.75359094  0.12434773  0.91381312  1
  O  O244  1  0.75316783  0.37161887  0.16883363  1
  O  O245  1  0.75274239  0.37144503  0.40772475  1
  O  O246  1  0.73945804  0.37552097  0.65538413  1
  O  O247  1  0.74528680  0.37530940  0.91680870  1
  O  O248  1  0.74350329  0.62914906  0.16778075  1
  O  O249  1  0.75072551  0.62732497  0.40700413  1
  O  O250  1  0.74714066  0.62728171  0.65767957  1
  O  O251  1  0.75281554  0.62479592  0.91637883  1
  O  O252  1  0.75569270  0.87737935  0.16990573  1
  O  O253  1  0.75478163  0.87875836  0.40926908  1
  O  O254  1  0.74014676  0.87600261  0.65684883  1
  O  O255  1  0.74632099  0.87454906  0.91535697  1
  O  O256  1  0.12054548  0.12613636  0.04864316  1
  O  O257  1  0.12549579  0.12101069  0.30144395  1
  O  O258  1  0.13649933  0.12246729  0.52942869  1
  O  O259  1  0.12621535  0.12835703  0.79640793  1
  O  O260  1  0.12312366  0.37414892  0.05322519  1
  O  O261  1  0.13229623  0.37043517  0.29314915  1
  O  O262  1  0.12702310  0.37154845  0.52135553  1
  O  O263  1  0.13124892  0.37658868  0.78556594  1
  O  O264  1  0.12532367  0.62371346  0.05435175  1
  O  O265  1  0.12891878  0.62638114  0.28466964  1
  O  O266  1  0.13149710  0.63031073  0.52561054  1
  O  O267  1  0.12654059  0.62113497  0.79735065  1
  O  O268  1  0.12068661  0.87584984  0.05292003  1
  O  O269  1  0.13225382  0.88008181  0.28435728  1
  O  O270  1  0.13092055  0.87605366  0.54386349  1
  O  O271  1  0.13143291  0.87206064  0.78632849  1
  O  O272  1  0.37223286  0.12332513  0.04820304  1
  O  O273  1  0.37415323  0.11990396  0.29631998  1
  O  O274  1  0.37948805  0.12146930  0.53477917  1
  O  O275  1  0.37570541  0.12940563  0.80087464  1
  O  O276  1  0.37184763  0.37583079  0.04857932  1
  O  O277  1  0.36954795  0.36593332  0.27570194  1
  O  O278  1  0.38270083  0.37554249  0.54184765  1
  O  O279  1  0.37669890  0.37672977  0.80145583  1
  O  O280  1  0.37307713  0.62538080  0.05328439  1
  O  O281  1  0.37431405  0.62934585  0.29147563  1
  O  O282  1  0.37880852  0.62970983  0.53133253  1
  O  O283  1  0.37791670  0.61959228  0.80204251  1
  O  O284  1  0.37911404  0.87405844  0.03674131  1
  O  O285  1  0.37474008  0.87955893  0.29433539  1
  O  O286  1  0.37768266  0.87462395  0.54895600  1
  O  O287  1  0.36740781  0.87370872  0.79064009  1
  O  O288  1  0.62683154  0.12127838  0.04832789  1
  O  O289  1  0.62289841  0.12012052  0.29658291  1
  O  O290  1  0.61370246  0.12533537  0.53448071  1
  O  O291  1  0.61847899  0.12611389  0.78923115  1
  O  O292  1  0.62376791  0.36796691  0.04658728  1
  O  O293  1  0.62413525  0.37103109  0.27635452  1
  O  O294  1  0.61902606  0.37552823  0.54043904  1
  O  O295  1  0.62523337  0.37725155  0.80413487  1
  O  O296  1  0.62592896  0.62849886  0.05324846  1
  O  O297  1  0.62125813  0.63378551  0.28261991  1
  O  O298  1  0.61613869  0.62651086  0.52969451  1
  O  O299  1  0.61749418  0.62315409  0.79020294  1
  O  O300  1  0.63090947  0.87606184  0.05521794  1
  O  O301  1  0.62214044  0.87788950  0.28240611  1
  O  O302  1  0.62084410  0.87511605  0.54271580  1
  O  O303  1  0.62648026  0.87319684  0.80040084  1
  O  O304  1  0.87516076  0.12295382  0.05343859  1
  O  O305  1  0.87849161  0.12227386  0.28950993  1
  O  O306  1  0.87077064  0.11958385  0.52582271  1
  O  O307  1  0.87008854  0.12653576  0.79583738  1
  O  O308  1  0.87229756  0.37591665  0.03735007  1
  O  O309  1  0.87607605  0.36812012  0.29675592  1
  O  O310  1  0.87024008  0.36818567  0.52731593  1
  O  O311  1  0.86922932  0.37616181  0.78456957  1
  O  O312  1  0.87067929  0.62789972  0.04600677  1
  O  O313  1  0.87870415  0.62856041  0.28125773  1
  O  O314  1  0.87302400  0.62673727  0.52310251  1
  O  O315  1  0.87056971  0.62475862  0.79843812  1
  O  O316  1  0.87492257  0.87556738  0.05332058  1
  O  O317  1  0.87539395  0.88074965  0.29613035  1
  O  O318  1  0.87426845  0.88495243  0.53331296  1
  O  O319  1  0.87675917  0.87191076  0.78272958  1
