# generated using pymatgen
data_VFe(PbO3)2
_symmetry_space_group_name_H-M   'P 1'
_cell_length_a   15.39734362
_cell_length_b   15.38552787
_cell_length_c   18.52977655
_cell_angle_alpha   90.00744044
_cell_angle_beta   90.01612064
_cell_angle_gamma   89.99575809
_symmetry_Int_Tables_number   1
_chemical_formula_structural   VFe(PbO3)2
_chemical_formula_sum   'V32 Fe32 Pb64 O192'
_cell_volume   4389.63453005
_cell_formula_units_Z   32
loop_
 _symmetry_equiv_pos_site_id
 _symmetry_equiv_pos_as_xyz
  1  'x, y, z'
loop_
 _atom_site_type_symbol
 _atom_site_label
 _atom_site_symmetry_multiplicity
 _atom_site_fract_x
 _atom_site_fract_y
 _atom_site_fract_z
 _atom_site_occupancy
  V  V0  1  0.61399829  0.37394453  0.64523762  1
  V  V1  1  0.11593185  0.87293699  0.13869818  1
  V  V2  1  0.37420325  0.12888497  0.64109482  1
  V  V3  1  0.36127138  0.87127802  0.13353392  1
  V  V4  1  0.87935052  0.87962641  0.88250369  1
  V  V5  1  0.12772811  0.37607481  0.89325768  1
  V  V6  1  0.61995324  0.62577041  0.39692531  1
  V  V7  1  0.87580644  0.62673678  0.14544038  1
  V  V8  1  0.87533784  0.37406003  0.14761122  1
  V  V9  1  0.62717358  0.37702807  0.13586772  1
  V  V10  1  0.12533984  0.62367102  0.63608533  1
  V  V11  1  0.87035791  0.37510706  0.63630780  1
  V  V12  1  0.37721878  0.62725578  0.38900059  1
  V  V13  1  0.37851371  0.87390148  0.39141955  1
  V  V14  1  0.12635566  0.37141766  0.63436094  1
  V  V15  1  0.12503034  0.62661230  0.14510512  1
  V  V16  1  0.87220889  0.87410188  0.39339137  1
  V  V17  1  0.37752938  0.62188833  0.64306629  1
  V  V18  1  0.62482949  0.37262265  0.39059585  1
  V  V19  1  0.87181724  0.87531306  0.14154256  1
  V  V20  1  0.88093774  0.62335252  0.88608830  1
  V  V21  1  0.62552622  0.87480990  0.64922666  1
  V  V22  1  0.62629863  0.87211375  0.13251886  1
  V  V23  1  0.62713856  0.87494278  0.39569170  1
  V  V24  1  0.62832592  0.62585894  0.13528370  1
  V  V25  1  0.87971523  0.37513952  0.88626394  1
  V  V26  1  0.62496632  0.12607981  0.64692516  1
  V  V27  1  0.87914003  0.87540814  0.63714228  1
  V  V28  1  0.37795781  0.37599156  0.38764863  1
  V  V29  1  0.86958375  0.12314478  0.39150059  1
  V  V30  1  0.12538885  0.87421238  0.88561588  1
  V  V31  1  0.37841466  0.37492316  0.89084077  1
  Fe  Fe32  1  0.37154696  0.12657414  0.89014109  1
  Fe  Fe33  1  0.36884942  0.37441107  0.63556965  1
  Fe  Fe34  1  0.62187394  0.12175213  0.38851380  1
  Fe  Fe35  1  0.12381462  0.87265559  0.39624731  1
  Fe  Fe36  1  0.87430115  0.12275010  0.13718187  1
  Fe  Fe37  1  0.12625150  0.12602398  0.62777629  1
  Fe  Fe38  1  0.62797437  0.87383941  0.87863693  1
  Fe  Fe39  1  0.87564880  0.62322727  0.63144419  1
  Fe  Fe40  1  0.87989056  0.12915399  0.87669305  1
  Fe  Fe41  1  0.12799313  0.62502711  0.38577217  1
  Fe  Fe42  1  0.37521292  0.62914308  0.13434993  1
  Fe  Fe43  1  0.86952337  0.37442128  0.38222601  1
  Fe  Fe44  1  0.87373117  0.12755879  0.64510485  1
  Fe  Fe45  1  0.12263760  0.37612360  0.37549559  1
  Fe  Fe46  1  0.12213607  0.12092080  0.13688510  1
  Fe  Fe47  1  0.37626966  0.12368043  0.13241271  1
  Fe  Fe48  1  0.62549398  0.62146133  0.87705163  1
  Fe  Fe49  1  0.12347443  0.37597235  0.14607618  1
  Fe  Fe50  1  0.12675320  0.87608759  0.62765704  1
  Fe  Fe51  1  0.37015817  0.62374456  0.88263666  1
  Fe  Fe52  1  0.62726911  0.62338796  0.64530663  1
  Fe  Fe53  1  0.12234176  0.12582870  0.88934286  1
  Fe  Fe54  1  0.12139839  0.62361103  0.88561200  1
  Fe  Fe55  1  0.62779654  0.37675106  0.88098289  1
  Fe  Fe56  1  0.37341482  0.87564182  0.87560219  1
  Fe  Fe57  1  0.87030401  0.62508414  0.39255770  1
  Fe  Fe58  1  0.12949530  0.12368062  0.38939764  1
  Fe  Fe59  1  0.38114072  0.12229998  0.38255792  1
  Fe  Fe60  1  0.37686940  0.37895778  0.13110252  1
  Fe  Fe61  1  0.37575493  0.87643755  0.64716085  1
  Fe  Fe62  1  0.62735091  0.12742497  0.88384816  1
  Fe  Fe63  1  0.62962485  0.12398998  0.13167115  1
  Pb  Pb64  1  -0.00293430  0.01512132  0.00172611  1
  Pb  Pb65  1  0.00951175  0.00076232  0.25623652  1
  Pb  Pb66  1  0.00780639  0.00551242  0.50262879  1
  Pb  Pb67  1  0.00532777  0.01230515  0.74485941  1
  Pb  Pb68  1  0.00897531  0.24946351  0.00708808  1
  Pb  Pb69  1  0.01221331  0.24231333  0.25258520  1
  Pb  Pb70  1  0.00294990  0.24806249  0.49233456  1
  Pb  Pb71  1  0.00397109  0.24233733  0.74774717  1
  Pb  Pb72  1  0.00550210  0.49259058  0.00752437  1
  Pb  Pb73  1  -0.00681957  0.50073004  0.25860057  1
  Pb  Pb74  1  -0.00475853  0.49810039  0.48791881  1
  Pb  Pb75  1  0.00491701  0.50092879  0.74633734  1
  Pb  Pb76  1  -0.00085037  0.75154622  -0.00046857  1
  Pb  Pb77  1  0.00564376  0.74923282  0.26203297  1
  Pb  Pb78  1  -0.00079505  0.74283326  0.49775341  1
  Pb  Pb79  1  0.00709924  0.74731961  0.74475644  1
  Pb  Pb80  1  0.25318536  0.01244016  -0.00291523  1
  Pb  Pb81  1  0.24832845  0.01643245  0.25461112  1
  Pb  Pb82  1  0.24623899  -0.00102571  0.49971701  1
  Pb  Pb83  1  0.24648155  -0.00109074  0.74443890  1
  Pb  Pb84  1  0.25342078  0.25118304  0.00679286  1
  Pb  Pb85  1  0.24988914  0.25149178  0.24047771  1
  Pb  Pb86  1  0.24675977  0.24540554  0.49064949  1
  Pb  Pb87  1  0.24845568  0.23702079  0.75572667  1
  Pb  Pb88  1  0.25506736  0.49884567  0.00516621  1
  Pb  Pb89  1  0.24715581  0.49890706  0.24729003  1
  Pb  Pb90  1  0.25126550  0.49420512  0.49498182  1
  Pb  Pb91  1  0.24818924  0.50792571  0.75260392  1
  Pb  Pb92  1  0.25578007  0.74339622  -0.00735688  1
  Pb  Pb93  1  0.23606286  0.75412589  0.25938590  1
  Pb  Pb94  1  0.24977081  0.75629497  0.50311193  1
  Pb  Pb95  1  0.25372165  0.74954160  0.74819447  1
  Pb  Pb96  1  0.49958797  0.00026424  -0.01337109  1
  Pb  Pb97  1  0.50213441  0.00848777  0.24785032  1
  Pb  Pb98  1  0.49469555  -0.00562652  0.50706183  1
  Pb  Pb99  1  0.49581816  0.00496143  0.75787595  1
  Pb  Pb100  1  0.50567748  0.24105881  -0.00254279  1
  Pb  Pb101  1  0.49671266  0.24100207  0.24194597  1
  Pb  Pb102  1  0.49523838  0.24987882  0.49985820  1
  Pb  Pb103  1  0.49620228  0.24073401  0.75990339  1
  Pb  Pb104  1  0.49395249  0.50415297  -0.00469157  1
  Pb  Pb105  1  0.49913728  0.50217296  0.24356340  1
  Pb  Pb106  1  0.49691838  0.49697608  0.50574990  1
  Pb  Pb107  1  0.49673569  0.50721258  0.75534092  1
  Pb  Pb108  1  0.49805238  0.74726181  -0.01602712  1
  Pb  Pb109  1  0.50361906  0.75332354  0.24443539  1
  Pb  Pb110  1  0.49550527  0.75510217  0.51175288  1
  Pb  Pb111  1  0.49925078  0.75705876  0.75603593  1
  Pb  Pb112  1  0.74859142  0.01213878  -0.00584498  1
  Pb  Pb113  1  0.74368293  0.00713106  0.25005327  1
  Pb  Pb114  1  0.75629742  0.00538341  0.50982442  1
  Pb  Pb115  1  0.74485359  0.00106515  0.75397157  1
  Pb  Pb116  1  0.75190316  0.24131312  -0.00389390  1
  Pb  Pb117  1  0.74890770  0.25275789  0.24967035  1
  Pb  Pb118  1  0.75606577  0.24313009  0.50600290  1
  Pb  Pb119  1  0.74119337  0.25118391  0.75697302  1
  Pb  Pb120  1  0.74964820  0.49964234  -0.00631094  1
  Pb  Pb121  1  0.75543308  0.50386778  0.25790123  1
  Pb  Pb122  1  0.74595585  0.50603351  0.50393371  1
  Pb  Pb123  1  0.74514431  0.50115067  0.75045746  1
  Pb  Pb124  1  0.74879822  0.74858643  -0.00957026  1
  Pb  Pb125  1  0.75605132  0.74503884  0.25501641  1
  Pb  Pb126  1  0.74393365  0.73911826  0.51197064  1
  Pb  Pb127  1  0.74853485  0.74849840  0.74940551  1
  O  O128  1  0.12257699  -0.00968268  0.16689479  1
  O  O129  1  0.12460506  -0.00116247  0.41545389  1
  O  O130  1  0.12637983  0.00104857  0.65605849  1
  O  O131  1  0.11737071  -0.01059632  0.90995217  1
  O  O132  1  0.12235748  0.24733895  0.16415235  1
  O  O133  1  0.12572601  0.25165088  0.40876662  1
  O  O134  1  0.12728360  0.25567725  0.65482809  1
  O  O135  1  0.11971035  0.25933440  0.91812511  1
  O  O136  1  0.12199275  0.51076754  0.16491938  1
  O  O137  1  0.12831283  0.49859971  0.40968041  1
  O  O138  1  0.12568450  0.50344137  0.66050797  1
  O  O139  1  0.12005316  0.49372393  0.91808895  1
  O  O140  1  0.11978188  0.75086913  0.17145478  1
  O  O141  1  0.12774635  0.74770738  0.42108942  1
  O  O142  1  0.12573908  0.74322006  0.65703920  1
  O  O143  1  0.11713229  0.75626202  0.91479046  1
  O  O144  1  0.37784033  -0.01816455  0.16221713  1
  O  O145  1  0.38237596  -0.00938128  0.41268899  1
  O  O146  1  0.37821766  0.01093074  0.66570203  1
  O  O147  1  0.37159143  -0.00234655  0.90908828  1
  O  O148  1  0.37941095  0.25110887  0.15818554  1
  O  O149  1  0.38261574  0.25787343  0.40703000  1
  O  O150  1  0.37418221  0.24699208  0.66552752  1
  O  O151  1  0.37033638  0.25946842  0.91643033  1
  O  O152  1  0.37764664  0.50583606  0.16533850  1
  O  O153  1  0.38081370  0.49920533  0.41400074  1
  O  O154  1  0.37138303  0.50239595  0.66664013  1
  O  O155  1  0.36875674  0.49367345  0.91376170  1
  O  O156  1  0.38066741  0.75888922  0.16504072  1
  O  O157  1  0.38109440  0.75228663  0.41981340  1
  O  O158  1  0.37572108  0.74052240  0.66454769  1
  O  O159  1  0.37054917  0.75134396  0.90718490  1
  O  O160  1  0.63432093  -0.01138000  0.15409105  1
  O  O161  1  0.62274346  -0.00933744  0.42000732  1
  O  O162  1  0.62508668  0.00039870  0.67012883  1
  O  O163  1  0.63024040  -0.00122262  0.90629742  1
  O  O164  1  0.62714747  0.25883561  0.15720954  1
  O  O165  1  0.62040531  0.25619028  0.41300531  1
  O  O166  1  0.62713864  0.25559923  0.66791594  1
  O  O167  1  0.62835580  0.25517084  0.91406282  1
  O  O168  1  0.62744771  0.50215359  0.16248702  1
  O  O169  1  0.62127050  0.49831966  0.41730708  1
  O  O170  1  0.62732799  0.49063648  0.66438737  1
  O  O171  1  0.62878808  0.49976604  0.91347016  1
  O  O172  1  0.63245409  0.75137532  0.16453300  1
  O  O173  1  0.62276864  0.75486750  0.42288134  1
  O  O174  1  0.62547710  0.75475928  0.66488566  1
  O  O175  1  0.63166540  0.74629689  0.90723831  1
  O  O176  1  0.87212139  -0.01035476  0.16415660  1
  O  O177  1  0.86736446  -0.00072161  0.41914124  1
  O  O178  1  0.87321235  -0.00863611  0.66413877  1
  O  O179  1  0.87781653  -0.00563073  0.89850550  1
  O  O180  1  0.86987363  0.25686254  0.16482430  1
  O  O181  1  0.86669804  0.24275232  0.41155158  1
  O  O182  1  0.88114461  0.26156492  0.66417915  1
  O  O183  1  0.87931925  0.25965784  0.90487280  1
  O  O184  1  0.87120616  0.50149150  0.17141279  1
  O  O185  1  0.86802679  0.49805658  0.41379259  1
  O  O186  1  0.88241843  0.49234059  0.65975935  1
  O  O187  1  0.88104676  0.50156714  0.91491344  1
  O  O188  1  0.87313672  0.75141901  0.17124213  1
  O  O189  1  0.86829182  0.75826285  0.41471153  1
  O  O190  1  0.87334543  0.75637373  0.66108926  1
  O  O191  1  0.87889347  0.74242632  0.90859298  1
  O  O192  1  -0.00387276  0.12052889  0.17007659  1
  O  O193  1  -0.01239296  0.12253394  0.41076781  1
  O  O194  1  0.00225376  0.12730014  0.65918990  1
  O  O195  1  -0.00181659  0.12622529  0.91552043  1
  O  O196  1  -0.01002032  0.38042315  0.16812285  1
  O  O197  1  -0.00368439  0.37270464  0.40503287  1
  O  O198  1  0.00956998  0.37788348  0.65964844  1
  O  O199  1  -0.00276562  0.37854102  0.91882659  1
  O  O200  1  -0.00035910  0.62734374  0.17067051  1
  O  O201  1  -0.00135507  0.62687661  0.41131794  1
  O  O202  1  0.00473814  0.62475014  0.65786292  1
  O  O203  1  -0.00390036  0.62316726  0.91853393  1
  O  O204  1  -0.00718784  0.87047381  0.16778629  1
  O  O205  1  -0.01206243  0.87684951  0.41517410  1
  O  O206  1  -0.00341670  0.87226352  0.65457923  1
  O  O207  1  -0.00672010  0.86988877  0.91541356  1
  O  O208  1  0.25090169  0.11817204  0.16160797  1
  O  O209  1  0.25800761  0.12375701  0.41108285  1
  O  O210  1  0.25480453  0.12749858  0.66025851  1
  O  O211  1  0.24527747  0.12862261  0.91688878  1
  O  O212  1  0.25208458  0.37902697  0.16332402  1
  O  O213  1  0.26051785  0.37714364  0.40362656  1
  O  O214  1  0.24121390  0.37940202  0.66336250  1
  O  O215  1  0.24408737  0.37563588  0.91438122  1
  O  O216  1  0.24329163  0.63237077  0.16255987  1
  O  O217  1  0.25968912  0.62592051  0.41512754  1
  O  O218  1  0.24753999  0.62344883  0.66231216  1
  O  O219  1  0.24422019  0.62293815  0.91445154  1
  O  O220  1  0.24797094  0.86688842  0.15096698  1
  O  O221  1  0.26167045  0.87226594  0.41129082  1
  O  O222  1  0.24849340  0.87342706  0.66322298  1
  O  O223  1  0.24001391  0.87216934  0.90259211  1
  O  O224  1  0.50434003  0.11868315  0.15828039  1
  O  O225  1  0.50055962  0.12388336  0.42147312  1
  O  O226  1  0.49834208  0.12964521  0.66900695  1
  O  O227  1  0.49992792  0.12805686  0.91067880  1
  O  O228  1  0.50990450  0.38052526  0.15970009  1
  O  O229  1  0.50204776  0.37849098  0.41935913  1
  O  O230  1  0.49952296  0.37518708  0.66241995  1
  O  O231  1  0.49505491  0.37801152  0.90549225  1
  O  O232  1  0.50718079  0.63075381  0.16180464  1
  O  O233  1  0.49854022  0.62650446  0.42437263  1
  O  O234  1  0.49509695  0.61941646  0.66236112  1
  O  O235  1  0.49867744  0.62188687  0.90513579  1
  O  O236  1  0.51328323  0.86912880  0.15263581  1
  O  O237  1  0.50257510  0.87160591  0.42232114  1
  O  O238  1  0.50691325  0.87675000  0.66997403  1
  O  O239  1  0.50090648  0.87269435  0.90324991  1
  O  O240  1  0.75059425  0.12428413  0.16882933  1
  O  O241  1  0.74869493  0.12211850  0.42000283  1
  O  O242  1  0.74593704  0.12794753  0.66829621  1
  O  O243  1  0.75675493  0.12772412  0.90719197  1
  O  O244  1  0.74553898  0.37949307  0.16671232  1
  O  O245  1  0.73926520  0.37513073  0.41448643  1
  O  O246  1  0.75675133  0.37557731  0.65887210  1
  O  O247  1  0.76249103  0.38111768  0.90892042  1
  O  O248  1  0.74963514  0.62648337  0.16941080  1
  O  O249  1  0.74061143  0.62762161  0.42006993  1
  O  O250  1  0.75506746  0.62232037  0.66615328  1
  O  O251  1  0.76164988  0.62080488  0.90678510  1
  O  O252  1  0.75312611  0.86920781  0.16561935  1
  O  O253  1  0.74604332  0.87573822  0.41903995  1
  O  O254  1  0.74970871  0.87610459  0.66560666  1
  O  O255  1  0.76402479  0.86841850  0.90786431  1
  O  O256  1  0.11571239  0.12021358  0.03589025  1
  O  O257  1  0.12375066  0.11633928  0.28739837  1
  O  O258  1  0.12611170  0.12730158  0.52652941  1
  O  O259  1  0.12414965  0.13039294  0.78782978  1
  O  O260  1  0.11346626  0.37672361  0.04504616  1
  O  O261  1  0.12484791  0.37855035  0.27445818  1
  O  O262  1  0.12827827  0.37567268  0.54305473  1
  O  O263  1  0.12484934  0.37529089  0.80230387  1
  O  O264  1  0.11910582  0.63183321  0.05417926  1
  O  O265  1  0.12919862  0.63688684  0.28564853  1
  O  O266  1  0.12806196  0.62133858  0.54531793  1
  O  O267  1  0.11815273  0.62278043  0.78591660  1
  O  O268  1  0.11148989  0.87028771  0.04808153  1
  O  O269  1  0.12181085  0.86363479  0.29417700  1
  O  O270  1  0.13171257  0.87734115  0.52665841  1
  O  O271  1  0.11696158  0.87056623  0.79432800  1
  O  O272  1  0.37089123  0.12148030  0.03152553  1
  O  O273  1  0.38531621  0.11518339  0.28183134  1
  O  O274  1  0.37872741  0.12869102  0.54999487  1
  O  O275  1  0.37176891  0.13549371  0.78882602  1
  O  O276  1  0.37298798  0.38375749  0.03146786  1
  O  O277  1  0.38740809  0.38116174  0.29726901  1
  O  O278  1  0.37491594  0.37805830  0.53647044  1
  O  O279  1  0.36913049  0.37453224  0.79995570  1
  O  O280  1  0.37173807  0.62549996  0.03479469  1
  O  O281  1  0.38110736  0.63128125  0.29835082  1
  O  O282  1  0.37345237  0.62065112  0.55182456  1
  O  O283  1  0.36854329  0.61750702  0.78212570  1
  O  O284  1  0.37142203  0.87081847  0.04253143  1
  O  O285  1  0.38448484  0.86915420  0.30104501  1
  O  O286  1  0.38487188  0.87494844  0.54615734  1
  O  O287  1  0.37582800  0.87360137  0.77362210  1
  O  O288  1  0.63688012  0.12771323  0.03125301  1
  O  O289  1  0.62202113  0.11453873  0.28861442  1
  O  O290  1  0.62261084  0.12670443  0.55560611  1
  O  O291  1  0.62358012  0.13378674  0.78215446  1
  O  O292  1  0.63102422  0.38088788  0.04527195  1
  O  O293  1  0.62117053  0.37529238  0.29989322  1
  O  O294  1  0.62196143  0.37104739  0.55415330  1
  O  O295  1  0.63337371  0.37458909  0.78079441  1
  O  O296  1  0.63127386  0.62678328  0.04439357  1
  O  O297  1  0.61875673  0.62934786  0.30603215  1
  O  O298  1  0.63227243  0.62473837  0.54418348  1
  O  O299  1  0.62702494  0.61645144  0.77545489  1
  O  O300  1  0.63390187  0.86685978  0.04156707  1
  O  O301  1  0.62449793  0.87294257  0.30494971  1
  O  O302  1  0.62404838  0.87892211  0.55767632  1
  O  O303  1  0.63282720  0.87232479  0.77842900  1
  O  O304  1  0.87228155  0.11921579  0.03708550  1
  O  O305  1  0.86472000  0.11780805  0.30076596  1
  O  O306  1  0.86460042  0.12731499  0.54356537  1
  O  O307  1  0.88744853  0.12845817  0.77524090  1
  O  O308  1  0.87218819  0.37873963  0.05664402  1
  O  O309  1  0.86217793  0.37898040  0.28245342  1
  O  O310  1  0.87258519  0.37109259  0.54464084  1
  O  O311  1  0.88461054  0.38121769  0.79547659  1
  O  O312  1  0.87500778  0.62516479  0.05472037  1
  O  O313  1  0.86338424  0.62476727  0.29114436  1
  O  O314  1  0.86906164  0.62624106  0.53129120  1
  O  O315  1  0.88667354  0.62069313  0.79506217  1
  O  O316  1  0.87318787  0.87195024  0.05090303  1
  O  O317  1  0.86965311  0.87773465  0.30270534  1
  O  O318  1  0.87187264  0.87750689  0.54619683  1
  O  O319  1  0.88388622  0.87060329  0.79192133  1
