# generated using pymatgen
data_VFe(PbO3)2
_symmetry_space_group_name_H-M   'P 1'
_cell_length_a   15.38478215
_cell_length_b   15.38227740
_cell_length_c   18.48768036
_cell_angle_alpha   89.97367283
_cell_angle_beta   90.01229888
_cell_angle_gamma   89.99345637
_symmetry_Int_Tables_number   1
_chemical_formula_structural   VFe(PbO3)2
_chemical_formula_sum   'V32 Fe32 Pb64 O192'
_cell_volume   4375.16418314
_cell_formula_units_Z   32
loop_
 _symmetry_equiv_pos_site_id
 _symmetry_equiv_pos_as_xyz
  1  'x, y, z'
loop_
 _atom_site_type_symbol
 _atom_site_label
 _atom_site_symmetry_multiplicity
 _atom_site_fract_x
 _atom_site_fract_y
 _atom_site_fract_z
 _atom_site_occupancy
  V  V0  1  0.62788185  0.12174937  0.64725496  1
  V  V1  1  0.12779055  0.37599395  0.64881168  1
  V  V2  1  0.12597314  0.37517402  0.39281530  1
  V  V3  1  0.37665647  0.37660833  0.64282506  1
  V  V4  1  0.62264935  0.88058088  0.13284868  1
  V  V5  1  0.12650655  0.87583202  0.39429746  1
  V  V6  1  0.87565615  0.87399139  0.64424461  1
  V  V7  1  0.37681315  0.62477540  0.88929860  1
  V  V8  1  0.12311760  0.87376998  0.88275628  1
  V  V9  1  0.37208528  0.12511538  0.13419854  1
  V  V10  1  0.87190789  0.12535959  0.64556020  1
  V  V11  1  0.62348874  0.37308056  0.38670948  1
  V  V12  1  0.12610250  0.12467577  0.39231638  1
  V  V13  1  0.37408055  0.62369540  0.39089397  1
  V  V14  1  0.12551174  0.87334398  0.64459967  1
  V  V15  1  0.12718131  0.37104538  0.13135213  1
  V  V16  1  0.87469329  0.37384648  0.64383515  1
  V  V17  1  0.62678454  0.62389172  0.89328829  1
  V  V18  1  0.87687118  0.62491472  0.38736629  1
  V  V19  1  0.87156875  0.62185727  0.64519806  1
  V  V20  1  0.87390642  0.12544065  0.88735629  1
  V  V21  1  0.62326259  0.87635304  0.38748449  1
  V  V22  1  0.37883304  0.62174312  0.64559353  1
  V  V23  1  0.37304071  0.87456439  0.39318906  1
  V  V24  1  0.62381356  0.12362299  0.38655499  1
  V  V25  1  0.37513692  0.87286510  0.64766423  1
  V  V26  1  0.62625078  0.87001695  0.64805421  1
  V  V27  1  0.87760358  0.62631704  0.89156384  1
  V  V28  1  0.62207054  0.12345837  0.88872312  1
  V  V29  1  0.12803120  0.87978779  0.13102608  1
  V  V30  1  0.37582154  0.37131479  0.88610486  1
  V  V31  1  0.62635412  0.37480834  0.64371446  1
  Fe  Fe32  1  0.62255401  0.37158443  0.12431958  1
  Fe  Fe33  1  0.12612380  0.12678446  0.12880314  1
  Fe  Fe34  1  0.12491298  0.12375401  0.87912265  1
  Fe  Fe35  1  0.37465111  0.12431239  0.39072610  1
  Fe  Fe36  1  0.37633207  0.12487648  0.87471965  1
  Fe  Fe37  1  0.87666535  0.87633698  0.12556142  1
  Fe  Fe38  1  0.12165357  0.62562504  0.65029728  1
  Fe  Fe39  1  0.87805348  0.12401108  0.12779663  1
  Fe  Fe40  1  0.12616697  0.62576656  0.38592886  1
  Fe  Fe41  1  0.12521097  0.62529367  0.12868688  1
  Fe  Fe42  1  0.87287980  0.87374832  0.89486353  1
  Fe  Fe43  1  0.62496125  0.62596892  0.38113746  1
  Fe  Fe44  1  0.87583775  0.12453737  0.38577851  1
  Fe  Fe45  1  0.37269335  0.62735622  0.12854348  1
  Fe  Fe46  1  0.62457575  0.62622020  0.13163968  1
  Fe  Fe47  1  0.87722751  0.62678773  0.12661443  1
  Fe  Fe48  1  0.62452151  0.12502895  0.12902729  1
  Fe  Fe49  1  0.87797582  0.37578974  0.12401818  1
  Fe  Fe50  1  0.37351197  0.37428598  0.38822244  1
  Fe  Fe51  1  0.12688281  0.62476737  0.88320079  1
  Fe  Fe52  1  0.37557731  0.87297283  0.88551145  1
  Fe  Fe53  1  0.87743947  0.87538607  0.38569643  1
  Fe  Fe54  1  0.37853227  0.12565620  0.65094662  1
  Fe  Fe55  1  0.62440180  0.37645419  0.89826178  1
  Fe  Fe56  1  0.37119042  0.37644726  0.12951850  1
  Fe  Fe57  1  0.62733793  0.62256268  0.64005932  1
  Fe  Fe58  1  0.87777108  0.37528145  0.38495841  1
  Fe  Fe59  1  0.37310087  0.87632830  0.12796898  1
  Fe  Fe60  1  0.62579225  0.87354089  0.88509533  1
  Fe  Fe61  1  0.87450643  0.37494532  0.89567013  1
  Fe  Fe62  1  0.12095780  0.12406671  0.64982646  1
  Fe  Fe63  1  0.12564557  0.37656383  0.88025767  1
  Pb  Pb64  1  -0.00587308  0.00302886  -0.00159550  1
  Pb  Pb65  1  -0.00695765  0.00256073  0.24432918  1
  Pb  Pb66  1  0.00343837  0.00481157  0.50409627  1
  Pb  Pb67  1  -0.00386847  -0.00050697  0.75606932  1
  Pb  Pb68  1  0.00220211  0.24579642  -0.00644339  1
  Pb  Pb69  1  -0.00950858  0.24835075  0.24265418  1
  Pb  Pb70  1  0.00348821  0.24624526  0.50280052  1
  Pb  Pb71  1  0.00166055  0.25664492  0.75844048  1
  Pb  Pb72  1  0.00099971  0.49575996  -0.00491638  1
  Pb  Pb73  1  -0.00196023  0.49979984  0.23927559  1
  Pb  Pb74  1  0.00456144  0.50438763  0.50336930  1
  Pb  Pb75  1  -0.00211083  0.49091377  0.76053339  1
  Pb  Pb76  1  0.00222285  0.74331383  0.00023561  1
  Pb  Pb77  1  -0.00181154  0.75304719  0.23893452  1
  Pb  Pb78  1  0.00527719  0.74372196  0.50337979  1
  Pb  Pb79  1  -0.00479173  0.74988993  0.75756084  1
  Pb  Pb80  1  0.25286243  -0.00116544  -0.01209160  1
  Pb  Pb81  1  0.25286226  0.00541863  0.24706086  1
  Pb  Pb82  1  0.24976279  0.01119628  0.51245704  1
  Pb  Pb83  1  0.25161800  0.00684150  0.75418256  1
  Pb  Pb84  1  0.24307563  0.24292203  -0.01009173  1
  Pb  Pb85  1  0.25834079  0.25186059  0.25049609  1
  Pb  Pb86  1  0.25182914  0.24410884  0.50777982  1
  Pb  Pb87  1  0.24891386  0.24110604  0.75319476  1
  Pb  Pb88  1  0.25535603  0.50003753  -0.00320892  1
  Pb  Pb89  1  0.24811249  0.50387229  0.24235672  1
  Pb  Pb90  1  0.24438686  0.50451721  0.50477450  1
  Pb  Pb91  1  0.24069871  0.50250316  0.75710124  1
  Pb  Pb92  1  0.24910647  0.74294104  -0.00186845  1
  Pb  Pb93  1  0.24592804  0.74568265  0.24235970  1
  Pb  Pb94  1  0.24599150  0.74628825  0.50608725  1
  Pb  Pb95  1  0.24934127  0.74745823  0.75630405  1
  Pb  Pb96  1  0.49366493  -0.00805364  -0.00680270  1
  Pb  Pb97  1  0.49459159  0.00534204  0.24477834  1
  Pb  Pb98  1  0.49333811  0.00412087  0.50555424  1
  Pb  Pb99  1  0.49700662  -0.00929638  0.75926740  1
  Pb  Pb100  1  0.50494716  0.24837488  0.00025808  1
  Pb  Pb101  1  0.49673247  0.25608732  0.24268844  1
  Pb  Pb102  1  0.49218671  0.24426385  0.50359324  1
  Pb  Pb103  1  0.50657171  0.25354431  0.75586216  1
  Pb  Pb104  1  0.49306434  0.49733770  0.00552669  1
  Pb  Pb105  1  0.50009160  0.50071523  0.23577610  1
  Pb  Pb106  1  0.50758622  0.50396159  0.49897723  1
  Pb  Pb107  1  0.51009151  0.49361018  0.75842104  1
  Pb  Pb108  1  0.49954538  0.74378238  0.00097235  1
  Pb  Pb109  1  0.50038871  0.74686539  0.24082283  1
  Pb  Pb110  1  0.50335196  0.74869070  0.49998367  1
  Pb  Pb111  1  0.49889980  0.75501454  0.75868605  1
  Pb  Pb112  1  0.75481191  0.00206365  -0.00060035  1
  Pb  Pb113  1  0.76118462  0.00351793  0.24300261  1
  Pb  Pb114  1  0.75211915  -0.00201241  0.49566325  1
  Pb  Pb115  1  0.75085554  -0.00925785  0.76019544  1
  Pb  Pb116  1  0.74435179  0.24855759  0.00102575  1
  Pb  Pb117  1  0.75554944  0.25107066  0.23411607  1
  Pb  Pb118  1  0.75190016  0.25081976  0.49421628  1
  Pb  Pb119  1  0.75207571  0.25870488  0.76125909  1
  Pb  Pb120  1  0.75469055  0.49785372  0.00372466  1
  Pb  Pb121  1  0.74967322  0.49719593  0.23276941  1
  Pb  Pb122  1  0.74565919  0.50463231  0.49728554  1
  Pb  Pb123  1  0.75151564  0.48861576  0.76219774  1
  Pb  Pb124  1  0.74794230  0.74451705  0.00277901  1
  Pb  Pb125  1  0.74967649  0.74943713  0.23955000  1
  Pb  Pb126  1  0.74676106  0.74711752  0.49654186  1
  Pb  Pb127  1  0.75423814  0.75562526  0.76010182  1
  O  O128  1  0.12786143  -0.00357046  0.15814014  1
  O  O129  1  0.12765984  -0.00319376  0.42066459  1
  O  O130  1  0.12222047  -0.01069462  0.66892090  1
  O  O131  1  0.12468306  -0.00692921  0.90297753  1
  O  O132  1  0.12744231  0.25527930  0.16040366  1
  O  O133  1  0.12597227  0.25190530  0.41887205  1
  O  O134  1  0.12093633  0.25761614  0.66685406  1
  O  O135  1  0.12564832  0.25026482  0.90496112  1
  O  O136  1  0.12719657  0.49237075  0.15406813  1
  O  O137  1  0.12587991  0.49672500  0.41847108  1
  O  O138  1  0.12237672  0.49637044  0.66895352  1
  O  O139  1  0.12796170  0.50105265  0.90669559  1
  O  O140  1  0.12738399  0.76007812  0.15746391  1
  O  O141  1  0.12731570  0.75418445  0.41945464  1
  O  O142  1  0.12243584  0.75621957  0.66994311  1
  O  O143  1  0.12546850  0.75418930  0.90873468  1
  O  O144  1  0.37240048  0.00482791  0.16233453  1
  O  O145  1  0.37401184  -0.00476509  0.42289337  1
  O  O146  1  0.37807249  -0.00721904  0.66742239  1
  O  O147  1  0.37571715  0.00080406  0.90369486  1
  O  O148  1  0.37063383  0.24314697  0.15813756  1
  O  O149  1  0.37398381  0.25090963  0.42379751  1
  O  O150  1  0.37660773  0.25932144  0.66686230  1
  O  O151  1  0.37710508  0.25440706  0.90181383  1
  O  O152  1  0.37226524  0.50166819  0.16046643  1
  O  O153  1  0.37395579  0.50603422  0.41525036  1
  O  O154  1  0.37605225  0.50191139  0.67012428  1
  O  O155  1  0.37595859  0.50272097  0.91065056  1
  O  O156  1  0.37288374  0.75345633  0.15846492  1
  O  O157  1  0.37384132  0.74655239  0.42059843  1
  O  O158  1  0.37796706  0.74604749  0.66993976  1
  O  O159  1  0.37706341  0.74329363  0.90900519  1
  O  O160  1  0.62090975  -0.00276631  0.16090989  1
  O  O161  1  0.62300434  -0.00054527  0.41824937  1
  O  O162  1  0.62814118  0.00151439  0.66818757  1
  O  O163  1  0.62632397  0.00636025  0.90879469  1
  O  O164  1  0.62234024  0.24811806  0.16119231  1
  O  O165  1  0.62457139  0.25190682  0.41259328  1
  O  O166  1  0.62866759  0.24991133  0.67119028  1
  O  O167  1  0.62506171  0.24301717  0.91189984  1
  O  O168  1  0.62297520  0.49792348  0.15268819  1
  O  O169  1  0.62460862  0.49611742  0.41151703  1
  O  O170  1  0.62686855  0.49643729  0.67007561  1
  O  O171  1  0.62225311  0.50825691  0.91720629  1
  O  O172  1  0.62329104  0.76186544  0.15988224  1
  O  O173  1  0.62342698  0.75246943  0.41605563  1
  O  O174  1  0.62612792  0.75276565  0.66523215  1
  O  O175  1  0.62256791  0.74298850  0.91218512  1
  O  O176  1  0.87751670  -0.00223359  0.16045904  1
  O  O177  1  0.87642217  -0.00070389  0.41973966  1
  O  O178  1  0.87111836  -0.00230034  0.67005651  1
  O  O179  1  0.87392346  0.00553328  0.90937857  1
  O  O180  1  0.87970173  0.25104964  0.15391433  1
  O  O181  1  0.87648436  0.25074570  0.41872132  1
  O  O182  1  0.87174413  0.25127206  0.66981870  1
  O  O183  1  0.87346816  0.24205074  0.90894655  1
  O  O184  1  0.87841217  0.50011755  0.15688298  1
  O  O185  1  0.87712662  0.50633250  0.41501433  1
  O  O186  1  0.87247914  0.50252644  0.66766482  1
  O  O187  1  0.87220508  0.50914318  0.91243496  1
  O  O188  1  0.87627713  0.75406417  0.15689100  1
  O  O189  1  0.87678737  0.74349231  0.41513505  1
  O  O190  1  0.87189698  0.74956770  0.67013310  1
  O  O191  1  0.87267817  0.74323308  0.91367270  1
  O  O192  1  0.00391664  0.12416468  0.15992345  1
  O  O193  1  0.00546957  0.12406717  0.41979045  1
  O  O194  1  -0.00999773  0.12342785  0.67050934  1
  O  O195  1  -0.00520318  0.12361315  0.90354919  1
  O  O196  1  0.00932919  0.37433092  0.15584612  1
  O  O197  1  0.00832653  0.37553690  0.42023195  1
  O  O198  1  -0.00295677  0.37714403  0.66822574  1
  O  O199  1  0.00149878  0.37660279  0.91034835  1
  O  O200  1  0.00237065  0.62799703  0.15865539  1
  O  O201  1  -0.00277663  0.62533593  0.41649105  1
  O  O202  1  -0.01117781  0.62692437  0.67071580  1
  O  O203  1  -0.00396431  0.62708507  0.90475158  1
  O  O204  1  0.00910021  0.87744910  0.15526329  1
  O  O205  1  0.00935077  0.87441995  0.41853847  1
  O  O206  1  -0.00072999  0.87352726  0.66851644  1
  O  O207  1  0.00671819  0.87287659  0.90907420  1
  O  O208  1  0.25386465  0.12365776  0.16235018  1
  O  O209  1  0.24653898  0.12404522  0.42425559  1
  O  O210  1  0.24946868  0.12420145  0.66598849  1
  O  O211  1  0.25184560  0.12536338  0.90130335  1
  O  O212  1  0.24402399  0.37284933  0.16143219  1
  O  O213  1  0.24285357  0.37527236  0.42149895  1
  O  O214  1  0.24759364  0.37836933  0.66529621  1
  O  O215  1  0.25763623  0.37825909  0.90537342  1
  O  O216  1  0.24763647  0.62675078  0.16196724  1
  O  O217  1  0.25495723  0.62578759  0.42028146  1
  O  O218  1  0.25867006  0.62574068  0.66924311  1
  O  O219  1  0.25705133  0.62600212  0.90679846  1
  O  O220  1  0.24517116  0.87889141  0.16024962  1
  O  O221  1  0.24730124  0.87376081  0.42346275  1
  O  O222  1  0.24620611  0.87149484  0.66566259  1
  O  O223  1  0.24358777  0.87269922  0.90532670  1
  O  O224  1  0.49046324  0.12360429  0.15902892  1
  O  O225  1  0.50379430  0.12419131  0.42010350  1
  O  O226  1  0.51242851  0.12652507  0.66934092  1
  O  O227  1  0.50361790  0.12630818  0.90497080  1
  O  O228  1  0.49659378  0.37137620  0.15804385  1
  O  O229  1  0.50697602  0.37507322  0.41506350  1
  O  O230  1  0.50199681  0.37653401  0.66915203  1
  O  O231  1  0.49175271  0.37862639  0.91250640  1
  O  O232  1  0.49874039  0.62895449  0.15906065  1
  O  O233  1  0.49387848  0.62581285  0.41407084  1
  O  O234  1  0.49626308  0.62423426  0.66855159  1
  O  O235  1  0.49859312  0.62399199  0.91324582  1
  O  O236  1  0.50253658  0.87939322  0.15983364  1
  O  O237  1  0.49809174  0.87323143  0.42008800  1
  O  O238  1  0.50548679  0.87440999  0.66824471  1
  O  O239  1  0.50204668  0.87390237  0.91243971  1
  O  O240  1  0.75074122  0.12291186  0.15708138  1
  O  O241  1  0.74470705  0.12447936  0.41499089  1
  O  O242  1  0.74790964  0.12547528  0.67473804  1
  O  O243  1  0.75014033  0.12480264  0.91063180  1
  O  O244  1  0.75027616  0.37364995  0.14968955  1
  O  O245  1  0.74316201  0.37520722  0.41281779  1
  O  O246  1  0.75062019  0.37562734  0.67191785  1
  O  O247  1  0.74935977  0.37646402  0.91623598  1
  O  O248  1  0.75088104  0.62849901  0.15869518  1
  O  O249  1  0.75559126  0.62485174  0.41157160  1
  O  O250  1  0.75573656  0.62623265  0.67064334  1
  O  O251  1  0.74673123  0.62565904  0.91277852  1
  O  O252  1  0.74228073  0.87959167  0.15325212  1
  O  O253  1  0.74619132  0.87376394  0.41538101  1
  O  O254  1  0.74745751  0.87481913  0.66905279  1
  O  O255  1  0.74690124  0.87426496  0.91613551  1
  O  O256  1  0.12849598  0.13132594  0.02843448  1
  O  O257  1  0.12850922  0.12351531  0.30158158  1
  O  O258  1  0.12019702  0.12072531  0.54822973  1
  O  O259  1  0.12388814  0.12295222  0.77619223  1
  O  O260  1  0.12974045  0.36817064  0.03963057  1
  O  O261  1  0.12592091  0.37478158  0.30263557  1
  O  O262  1  0.12359600  0.37770397  0.55711033  1
  O  O263  1  0.11834390  0.37823531  0.77838552  1
  O  O264  1  0.12728321  0.63515823  0.02752190  1
  O  O265  1  0.13132429  0.62704005  0.28770304  1
  O  O266  1  0.12253257  0.62628021  0.54853976  1
  O  O267  1  0.13068555  0.62773034  0.77999942  1
  O  O268  1  0.13023838  0.87858801  0.03966452  1
  O  O269  1  0.12830835  0.87703839  0.30407340  1
  O  O270  1  0.12376502  0.87258911  0.55325518  1
  O  O271  1  0.12138602  0.87093790  0.79076928  1
  O  O272  1  0.36992533  0.12303195  0.04285731  1
  O  O273  1  0.36985395  0.12263048  0.29169940  1
  O  O274  1  0.38235099  0.12404429  0.54860441  1
  O  O275  1  0.37617976  0.12606500  0.77300024  1
  O  O276  1  0.37054247  0.38117972  0.02949630  1
  O  O277  1  0.37000241  0.36543121  0.28947090  1
  O  O278  1  0.37747426  0.38014430  0.55162343  1
  O  O279  1  0.37949876  0.37844517  0.79422946  1
  O  O280  1  0.37124855  0.62355000  0.02746692  1
  O  O281  1  0.37061767  0.62737297  0.30050976  1
  O  O282  1  0.37777574  0.62203503  0.55438953  1
  O  O283  1  0.37998836  0.62401594  0.79770563  1
  O  O284  1  0.37268412  0.88495300  0.02784160  1
  O  O285  1  0.37152858  0.87530499  0.30255681  1
  O  O286  1  0.37718502  0.86932393  0.55623816  1
  O  O287  1  0.38344888  0.86925190  0.78307111  1
  O  O288  1  0.62185018  0.13061830  0.02913837  1
  O  O289  1  0.62027171  0.12111701  0.29600098  1
  O  O290  1  0.63019752  0.12429639  0.55653426  1
  O  O291  1  0.62701458  0.12615043  0.79704321  1
  O  O292  1  0.61640255  0.36594025  0.02208107  1
  O  O293  1  0.62253427  0.37195218  0.29627121  1
  O  O294  1  0.62651486  0.37436888  0.55262308  1
  O  O295  1  0.62321076  0.37811446  0.79493572  1
  O  O296  1  0.62371751  0.63699016  0.03114806  1
  O  O297  1  0.62371556  0.63152185  0.28281336  1
  O  O298  1  0.62751269  0.61841565  0.54012118  1
  O  O299  1  0.62484945  0.62216098  0.80131904  1
  O  O300  1  0.61874478  0.87990367  0.04151867  1
  O  O301  1  0.62201835  0.87797294  0.29698088  1
  O  O302  1  0.62581240  0.87543833  0.55708871  1
  O  O303  1  0.62607556  0.87491097  0.78341969  1
  O  O304  1  0.88004091  0.11640127  0.02689891  1
  O  O305  1  0.87889792  0.12153370  0.28632505  1
  O  O306  1  0.86998124  0.12527646  0.55440393  1
  O  O307  1  0.87001418  0.12360623  0.79540929  1
  O  O308  1  0.88182540  0.38155627  0.02239242  1
  O  O309  1  0.88277268  0.37361901  0.28651726  1
  O  O310  1  0.87273922  0.37591987  0.55287714  1
  O  O311  1  0.87167144  0.37897017  0.79130950  1
  O  O312  1  0.87618877  0.62692033  0.02594658  1
  O  O313  1  0.87937630  0.62523104  0.29695055  1
  O  O314  1  0.87210049  0.62378441  0.55380676  1
  O  O315  1  0.86959089  0.62762287  0.79948865  1
  O  O316  1  0.88049134  0.88345532  0.02400097  1
  O  O317  1  0.87971908  0.87947193  0.28690553  1
  O  O318  1  0.87500514  0.87239701  0.55333774  1
  O  O319  1  0.86934117  0.87066557  0.79177706  1
