# generated using pymatgen
data_VFe(PbO3)2
_symmetry_space_group_name_H-M   'P 1'
_cell_length_a   15.38052128
_cell_length_b   15.39572355
_cell_length_c   18.51494109
_cell_angle_alpha   89.99496038
_cell_angle_beta   89.98566433
_cell_angle_gamma   90.01416240
_symmetry_Int_Tables_number   1
_chemical_formula_structural   VFe(PbO3)2
_chemical_formula_sum   'V32 Fe32 Pb64 O192'
_cell_volume   4384.23137176
_cell_formula_units_Z   32
loop_
 _symmetry_equiv_pos_site_id
 _symmetry_equiv_pos_as_xyz
  1  'x, y, z'
loop_
 _atom_site_type_symbol
 _atom_site_label
 _atom_site_symmetry_multiplicity
 _atom_site_fract_x
 _atom_site_fract_y
 _atom_site_fract_z
 _atom_site_occupancy
  V  V0  1  0.37611978  0.37376891  0.39544527  1
  V  V1  1  0.87316431  0.37720739  0.64099432  1
  V  V2  1  0.87495473  0.87985050  0.89472931  1
  V  V3  1  0.62386300  0.62618205  0.89268480  1
  V  V4  1  0.87588666  0.12694230  0.88682146  1
  V  V5  1  0.62440119  0.62221891  0.38648763  1
  V  V6  1  0.37240963  0.62319230  0.38815454  1
  V  V7  1  0.37561783  0.12513256  0.88327168  1
  V  V8  1  0.37412400  0.37654200  0.64102397  1
  V  V9  1  0.37563417  0.62704834  0.64645360  1
  V  V10  1  0.62171481  0.38127892  0.64455592  1
  V  V11  1  0.12628390  0.87616128  0.39124967  1
  V  V12  1  0.87280020  0.62780707  0.64034717  1
  V  V13  1  0.87275429  0.37512694  0.39411020  1
  V  V14  1  0.12503076  0.12383513  0.88744689  1
  V  V15  1  0.12651186  0.62509669  0.38647220  1
  V  V16  1  0.37268470  0.11845166  0.39622693  1
  V  V17  1  0.87633981  0.12387040  0.39438641  1
  V  V18  1  0.12549954  0.37471019  0.39858467  1
  V  V19  1  0.12191811  0.62645288  0.64428463  1
  V  V20  1  0.12311190  0.37521469  0.13662441  1
  V  V21  1  0.37405902  0.37189171  0.13411205  1
  V  V22  1  0.87527944  0.87331208  0.63571369  1
  V  V23  1  0.87247166  0.37283823  0.13804870  1
  V  V24  1  0.12640443  0.12732850  0.39690882  1
  V  V25  1  0.62265701  0.37380671  0.13781441  1
  V  V26  1  0.37616243  0.12557983  0.13553030  1
  V  V27  1  0.37458064  0.37282616  0.88622706  1
  V  V28  1  0.37563451  0.87505242  0.64047589  1
  V  V29  1  0.12385465  0.62620187  0.88926111  1
  V  V30  1  0.87493135  0.62681716  0.89260497  1
  V  V31  1  0.12574841  0.62552978  0.13444211  1
  Fe  Fe32  1  0.37428908  0.87656855  0.88893090  1
  Fe  Fe33  1  0.37591820  0.12371154  0.63428967  1
  Fe  Fe34  1  0.12126697  0.87487720  0.89448552  1
  Fe  Fe35  1  0.62325282  0.37407137  0.38811543  1
  Fe  Fe36  1  0.62903431  0.37500582  0.88246755  1
  Fe  Fe37  1  0.62291254  0.13011763  0.38896809  1
  Fe  Fe38  1  0.62653552  0.12510982  0.88421579  1
  Fe  Fe39  1  0.12644579  0.12908305  0.13348999  1
  Fe  Fe40  1  0.87704235  0.87594265  0.13535613  1
  Fe  Fe41  1  0.87554834  0.12830650  0.13317182  1
  Fe  Fe42  1  0.62223624  0.87661388  0.38371209  1
  Fe  Fe43  1  0.12163665  0.37454400  0.88078822  1
  Fe  Fe44  1  0.87584673  0.12137967  0.63337491  1
  Fe  Fe45  1  0.37554792  0.61911577  0.12552844  1
  Fe  Fe46  1  0.12526364  0.38000985  0.64008249  1
  Fe  Fe47  1  0.62536339  0.62578827  0.63908429  1
  Fe  Fe48  1  0.62585026  0.87097181  0.63385396  1
  Fe  Fe49  1  0.37304864  0.87084381  0.38322733  1
  Fe  Fe50  1  0.62386332  0.87552530  0.12782750  1
  Fe  Fe51  1  0.87583594  0.87431966  0.38065979  1
  Fe  Fe52  1  0.37327347  0.62407753  0.89341022  1
  Fe  Fe53  1  0.12627561  0.87862828  0.12668332  1
  Fe  Fe54  1  0.12616785  0.87003821  0.63810040  1
  Fe  Fe55  1  0.62537707  0.12773584  0.13453583  1
  Fe  Fe56  1  0.62431184  0.62226145  0.12971612  1
  Fe  Fe57  1  0.12478870  0.12299937  0.63406836  1
  Fe  Fe58  1  0.87833799  0.62250203  0.38139954  1
  Fe  Fe59  1  0.37371417  0.87463184  0.12889137  1
  Fe  Fe60  1  0.87566486  0.37459989  0.88278592  1
  Fe  Fe61  1  0.62796917  0.87497588  0.89445507  1
  Fe  Fe62  1  0.62606789  0.12327599  0.63712041  1
  Fe  Fe63  1  0.87501172  0.62149641  0.13911809  1
  Pb  Pb64  1  -0.00820492  0.00088480  0.00637336  1
  Pb  Pb65  1  -0.00063329  -0.00154931  0.24051094  1
  Pb  Pb66  1  0.00025601  0.00627936  0.50477503  1
  Pb  Pb67  1  0.00903702  -0.00471539  0.74707156  1
  Pb  Pb68  1  0.00013268  0.24152846  -0.00090898  1
  Pb  Pb69  1  0.00095884  0.24785195  0.24872614  1
  Pb  Pb70  1  -0.00083678  0.24545302  0.50916558  1
  Pb  Pb71  1  0.00149885  0.25471183  0.74478606  1
  Pb  Pb72  1  -0.00396639  0.49842421  -0.00293764  1
  Pb  Pb73  1  -0.00245743  0.50219641  0.25154811  1
  Pb  Pb74  1  0.00443017  0.49645078  0.50333264  1
  Pb  Pb75  1  -0.00277453  0.49270614  0.75491854  1
  Pb  Pb76  1  -0.00824453  0.75255015  0.00790349  1
  Pb  Pb77  1  -0.01084372  0.75610801  0.24684552  1
  Pb  Pb78  1  -0.00124084  0.75296510  0.49486981  1
  Pb  Pb79  1  0.00515838  0.75667672  0.75546129  1
  Pb  Pb80  1  0.24682580  -0.00718286  0.00002492  1
  Pb  Pb81  1  0.25186667  -0.00399971  0.24364909  1
  Pb  Pb82  1  0.24084584  -0.00220693  0.50809023  1
  Pb  Pb83  1  0.24948278  -0.00918291  0.74939454  1
  Pb  Pb84  1  0.24376374  0.24427503  -0.00404894  1
  Pb  Pb85  1  0.25328102  0.25102925  0.24941995  1
  Pb  Pb86  1  0.25033573  0.24443419  0.51037670  1
  Pb  Pb87  1  0.24323896  0.24820974  0.74331190  1
  Pb  Pb88  1  0.25101332  0.50034916  -0.00368534  1
  Pb  Pb89  1  0.25061128  0.49870756  0.24487955  1
  Pb  Pb90  1  0.24501096  0.49752047  0.50557484  1
  Pb  Pb91  1  0.25373081  0.50773899  0.75640132  1
  Pb  Pb92  1  0.25408000  0.75927710  -0.00147910  1
  Pb  Pb93  1  0.25949263  0.75539918  0.24020112  1
  Pb  Pb94  1  0.24617795  0.75378892  0.50209879  1
  Pb  Pb95  1  0.26118677  0.75430285  0.76162327  1
  Pb  Pb96  1  0.50594206  -0.00774757  -0.00152372  1
  Pb  Pb97  1  0.51129151  -0.01117057  0.24672358  1
  Pb  Pb98  1  0.50805101  -0.00478479  0.49998288  1
  Pb  Pb99  1  0.50889482  0.00006904  0.74930226  1
  Pb  Pb100  1  0.50704347  0.24555088  -0.00509519  1
  Pb  Pb101  1  0.50850216  0.24893259  0.25620630  1
  Pb  Pb102  1  0.50252728  0.24020765  0.50853071  1
  Pb  Pb103  1  0.50930955  0.24643261  0.75020904  1
  Pb  Pb104  1  0.50258918  0.50609748  -0.00024785  1
  Pb  Pb105  1  0.50172794  0.49893999  0.24537308  1
  Pb  Pb106  1  0.50292393  0.50827378  0.50288811  1
  Pb  Pb107  1  0.49633157  0.50747818  0.75724672  1
  Pb  Pb108  1  0.49656695  0.75779201  -0.00100753  1
  Pb  Pb109  1  0.50065879  0.75349937  0.23616381  1
  Pb  Pb110  1  0.50519468  0.75335908  0.49756091  1
  Pb  Pb111  1  0.50005894  0.76092290  0.75749298  1
  Pb  Pb112  1  0.74105364  0.00225241  0.00430556  1
  Pb  Pb113  1  0.74890906  -0.00373655  0.23992506  1
  Pb  Pb114  1  0.74149922  -0.00264560  0.49596519  1
  Pb  Pb115  1  0.74014116  0.00049926  0.74868579  1
  Pb  Pb116  1  0.74788869  0.24469337  -0.00356129  1
  Pb  Pb117  1  0.74133650  0.24531989  0.25347163  1
  Pb  Pb118  1  0.74643995  0.24237513  0.50502881  1
  Pb  Pb119  1  0.74501831  0.24796784  0.74957169  1
  Pb  Pb120  1  0.74957090  0.50530393  -0.00011647  1
  Pb  Pb121  1  0.75181815  0.50420366  0.24942456  1
  Pb  Pb122  1  0.74393251  0.50874731  0.50153869  1
  Pb  Pb123  1  0.75197327  0.49320074  0.75563739  1
  Pb  Pb124  1  0.75595880  0.75048472  0.00881983  1
  Pb  Pb125  1  0.74782092  0.75582278  0.23927793  1
  Pb  Pb126  1  0.74868004  0.75449600  0.49133329  1
  Pb  Pb127  1  0.74106005  0.75497583  0.75223140  1
  O  O128  1  0.12876074  0.00376542  0.15953616  1
  O  O129  1  0.12835335  -0.00248843  0.41578654  1
  O  O130  1  0.12545853  -0.00455402  0.66443836  1
  O  O131  1  0.12243634  0.00939747  0.91212357  1
  O  O132  1  0.12704830  0.25688497  0.16828142  1
  O  O133  1  0.12637393  0.25108620  0.42247997  1
  O  O134  1  0.12466284  0.25289094  0.65865070  1
  O  O135  1  0.12173827  0.24380309  0.90951494  1
  O  O136  1  0.12570383  0.49564700  0.16635147  1
  O  O137  1  0.12585870  0.50136332  0.41907738  1
  O  O138  1  0.12592495  0.50969880  0.66806310  1
  O  O139  1  0.11999673  0.50563998  0.91194444  1
  O  O140  1  0.12911948  0.73979574  0.15140555  1
  O  O141  1  0.12644673  0.75182256  0.41294321  1
  O  O142  1  0.12712799  0.74262694  0.67082489  1
  O  O143  1  0.12115780  0.74130450  0.91464692  1
  O  O144  1  0.37175049  0.01022553  0.15533018  1
  O  O145  1  0.37117804  0.00361699  0.40987376  1
  O  O146  1  0.37452229  -0.00798076  0.65819436  1
  O  O147  1  0.37015403  0.01191750  0.90729221  1
  O  O148  1  0.37390178  0.25319835  0.16693033  1
  O  O149  1  0.37027977  0.25930463  0.41918108  1
  O  O150  1  0.37761992  0.26082014  0.66202389  1
  O  O151  1  0.37097415  0.24835120  0.91137699  1
  O  O152  1  0.37434884  0.49140867  0.16255841  1
  O  O153  1  0.37147592  0.50082899  0.41944676  1
  O  O154  1  0.37714826  0.49788829  0.67058284  1
  O  O155  1  0.37285704  0.48941043  0.91045454  1
  O  O156  1  0.37155669  0.74485846  0.15171297  1
  O  O157  1  0.37312180  0.74183239  0.41377591  1
  O  O158  1  0.37367191  0.75021329  0.67009857  1
  O  O159  1  0.37415512  0.74852679  0.91295483  1
  O  O160  1  0.62212713  0.00300179  0.15865228  1
  O  O161  1  0.62249001  0.00431481  0.41298126  1
  O  O162  1  0.62513481  -0.00489351  0.66357567  1
  O  O163  1  0.62835485  0.00316696  0.91448014  1
  O  O164  1  0.62457251  0.25765249  0.16509217  1
  O  O165  1  0.62380728  0.25326957  0.42240605  1
  O  O166  1  0.62724645  0.26051900  0.66178627  1
  O  O167  1  0.62624217  0.24984775  0.91324957  1
  O  O168  1  0.62541948  0.48883268  0.16312341  1
  O  O169  1  0.62380040  0.50226967  0.41671519  1
  O  O170  1  0.62505592  0.49787698  0.67030565  1
  O  O171  1  0.62876109  0.50423464  0.91098276  1
  O  O172  1  0.62318556  0.74834967  0.15354703  1
  O  O173  1  0.62230752  0.73968215  0.40731111  1
  O  O174  1  0.62525644  0.74920721  0.66865970  1
  O  O175  1  0.62885074  0.74181672  0.91645879  1
  O  O176  1  0.87809290  0.00300898  0.16101863  1
  O  O177  1  0.87883573  0.00655819  0.40995496  1
  O  O178  1  0.87820012  -0.01127925  0.65612139  1
  O  O179  1  0.87795032  -0.00057181  0.91288281  1
  O  O180  1  0.87629522  0.25924262  0.16619225  1
  O  O181  1  0.88009335  0.25404172  0.42062943  1
  O  O182  1  0.87360570  0.26047617  0.65846297  1
  O  O183  1  0.87820677  0.24276100  0.90541990  1
  O  O184  1  0.87720719  0.48937510  0.16622734  1
  O  O185  1  0.87750120  0.49423480  0.41526518  1
  O  O186  1  0.87572666  0.50290268  0.66694721  1
  O  O187  1  0.87632992  0.50775522  0.91139949  1
  O  O188  1  0.87711855  0.74710242  0.16188113  1
  O  O189  1  0.87779726  0.74772948  0.41114088  1
  O  O190  1  0.87692041  0.74914668  0.66734241  1
  O  O191  1  0.87581337  0.74748158  0.91797771  1
  O  O192  1  0.00129219  0.13237000  0.16638133  1
  O  O193  1  0.00018937  0.12736803  0.41958320  1
  O  O194  1  -0.00104583  0.12542589  0.66342156  1
  O  O195  1  -0.00097389  0.12341602  0.91113728  1
  O  O196  1  -0.00144324  0.37424614  0.16390357  1
  O  O197  1  -0.00126136  0.37592556  0.42180210  1
  O  O198  1  -0.00618487  0.38158903  0.66121198  1
  O  O199  1  -0.00101670  0.37556332  0.91489501  1
  O  O200  1  0.00994080  0.61676147  0.16284638  1
  O  O201  1  0.00696319  0.62349609  0.41230244  1
  O  O202  1  0.00288637  0.62641570  0.66601251  1
  O  O203  1  -0.00223048  0.62607712  0.91463408  1
  O  O204  1  0.00577385  0.87274958  0.16077911  1
  O  O205  1  0.00744235  0.87596842  0.41261039  1
  O  O206  1  -0.00522179  0.86752289  0.66335131  1
  O  O207  1  -0.00769343  0.87325103  0.91749591  1
  O  O208  1  0.25744834  0.13312893  0.16595890  1
  O  O209  1  0.25290679  0.12930317  0.42239135  1
  O  O210  1  0.25147389  0.12572964  0.66441094  1
  O  O211  1  0.24740744  0.12945826  0.90751928  1
  O  O212  1  0.24985735  0.37456722  0.16360400  1
  O  O213  1  0.25208781  0.37905914  0.42310822  1
  O  O214  1  0.25756289  0.38029278  0.66171961  1
  O  O215  1  0.25195155  0.37228434  0.90957960  1
  O  O216  1  0.24473429  0.61408258  0.15835666  1
  O  O217  1  0.24708342  0.62394029  0.41744281  1
  O  O218  1  0.24972653  0.62384049  0.66989115  1
  O  O219  1  0.24084157  0.62098221  0.91217684  1
  O  O220  1  0.24920145  0.87547448  0.16081460  1
  O  O221  1  0.24592462  0.87340762  0.41749327  1
  O  O222  1  0.25602625  0.87031846  0.66592911  1
  O  O223  1  0.24762287  0.87704337  0.91277467  1
  O  O224  1  0.49107484  0.13366522  0.15921666  1
  O  O225  1  0.48953829  0.13191277  0.41457383  1
  O  O226  1  0.49970910  0.12679272  0.66584889  1
  O  O227  1  0.49171185  0.12933902  0.90473429  1
  O  O228  1  0.50256171  0.37361882  0.15870681  1
  O  O229  1  0.49183457  0.37970695  0.41690447  1
  O  O230  1  0.50131772  0.37959680  0.66554637  1
  O  O231  1  0.49277241  0.37094657  0.90924255  1
  O  O232  1  0.49909692  0.61588927  0.15956216  1
  O  O233  1  0.50046151  0.62038862  0.41232315  1
  O  O234  1  0.49593227  0.62418181  0.67110858  1
  O  O235  1  0.50599928  0.62078543  0.90873846  1
  O  O236  1  0.49683111  0.87686203  0.15698163  1
  O  O237  1  0.49635756  0.87288558  0.41547485  1
  O  O238  1  0.49369200  0.87025242  0.66282232  1
  O  O239  1  0.49997362  0.87628250  0.91322435  1
  O  O240  1  0.75065739  0.13104930  0.16485637  1
  O  O241  1  0.75814775  0.13067087  0.41227229  1
  O  O242  1  0.75243545  0.12553169  0.66305359  1
  O  O243  1  0.75936729  0.12321248  0.90884457  1
  O  O244  1  0.75211639  0.37426744  0.15912614  1
  O  O245  1  0.75674534  0.37442761  0.41643664  1
  O  O246  1  0.75078043  0.38204123  0.66322959  1
  O  O247  1  0.75314297  0.37532711  0.91416293  1
  O  O248  1  0.74808176  0.61761287  0.16455520  1
  O  O249  1  0.74432130  0.62071632  0.40729584  1
  O  O250  1  0.75520360  0.62391720  0.66626090  1
  O  O251  1  0.75442107  0.62559833  0.91510028  1
  O  O252  1  0.74924904  0.87576815  0.15625672  1
  O  O253  1  0.75002435  0.87502233  0.41084316  1
  O  O254  1  0.75849707  0.87026597  0.66052972  1
  O  O255  1  0.75930844  0.87261063  0.91797600  1
  O  O256  1  0.12473519  0.13629631  0.03370095  1
  O  O257  1  0.12878751  0.12765058  0.30619516  1
  O  O258  1  0.12488227  0.11689802  0.53237311  1
  O  O259  1  0.12326949  0.12386239  0.79605047  1
  O  O260  1  0.12395304  0.37469427  0.04558386  1
  O  O261  1  0.12607361  0.37497683  0.30773416  1
  O  O262  1  0.12484877  0.38870725  0.53926571  1
  O  O263  1  0.11726770  0.37499808  0.78032782  1
  O  O264  1  0.12347766  0.61661142  0.04355428  1
  O  O265  1  0.13014159  0.62335087  0.29579197  1
  O  O266  1  0.12445296  0.62866094  0.55325401  1
  O  O267  1  0.12248901  0.62710576  0.79804862  1
  O  O268  1  0.12883981  0.87827590  0.02540386  1
  O  O269  1  0.12992386  0.87615662  0.30070563  1
  O  O270  1  0.13115398  0.86987844  0.53820661  1
  O  O271  1  0.11613632  0.87568998  0.79238635  1
  O  O272  1  0.37130045  0.13111908  0.04446211  1
  O  O273  1  0.36738786  0.13099609  0.30602664  1
  O  O274  1  0.37583260  0.13128335  0.53421189  1
  O  O275  1  0.37308715  0.12776487  0.79235033  1
  O  O276  1  0.37373539  0.37089295  0.04319324  1
  O  O277  1  0.37321475  0.37436506  0.30437548  1
  O  O278  1  0.37778670  0.38064111  0.55025098  1
  O  O279  1  0.37446674  0.37238809  0.79518381  1
  O  O280  1  0.37489985  0.61081642  0.02424344  1
  O  O281  1  0.37113746  0.61901509  0.29737644  1
  O  O282  1  0.37505045  0.62661676  0.55544006  1
  O  O283  1  0.36928166  0.61836185  0.79161652  1
  O  O284  1  0.37139300  0.87903519  0.02749960  1
  O  O285  1  0.36738556  0.87084388  0.28375914  1
  O  O286  1  0.37317505  0.86750959  0.54936162  1
  O  O287  1  0.37291937  0.87228366  0.78716598  1
  O  O288  1  0.62840158  0.13342094  0.03369307  1
  O  O289  1  0.62025344  0.14020775  0.28814169  1
  O  O290  1  0.62339255  0.12800564  0.53557143  1
  O  O291  1  0.62764383  0.12569102  0.78254041  1
  O  O292  1  0.62402820  0.37155207  0.04673066  1
  O  O293  1  0.62085249  0.36934853  0.28885440  1
  O  O294  1  0.62258722  0.38491206  0.55345524  1
  O  O295  1  0.63106384  0.37253453  0.78260320  1
  O  O296  1  0.62588839  0.61112126  0.02973544  1
  O  O297  1  0.62073637  0.61545198  0.29578447  1
  O  O298  1  0.62464799  0.61841911  0.53927384  1
  O  O299  1  0.62973492  0.62811430  0.80116242  1
  O  O300  1  0.62312924  0.88063183  0.02544665  1
  O  O301  1  0.61613873  0.87735327  0.28348455  1
  O  O302  1  0.62218727  0.87301030  0.53297070  1
  O  O303  1  0.63090675  0.87265721  0.79239000  1
  O  O304  1  0.88157152  0.12921379  0.03274850  1
  O  O305  1  0.88237740  0.13342789  0.30407231  1
  O  O306  1  0.88044879  0.12505720  0.53289022  1
  O  O307  1  0.87790492  0.12133361  0.79606588  1
  O  O308  1  0.87587961  0.37348936  0.04713845  1
  O  O309  1  0.87539853  0.37202481  0.30336062  1
  O  O310  1  0.87201755  0.38188206  0.55005975  1
  O  O311  1  0.87732079  0.38154386  0.78233418  1
  O  O312  1  0.87559622  0.62321526  0.03829560  1
  O  O313  1  0.88108203  0.61388371  0.28167877  1
  O  O314  1  0.87443104  0.62735494  0.54919481  1
  O  O315  1  0.87486528  0.63027395  0.80190758  1
  O  O316  1  0.88074532  0.87187903  0.03383211  1
  O  O317  1  0.88053927  0.87239320  0.28105229  1
  O  O318  1  0.87655012  0.86718628  0.54435016  1
  O  O319  1  0.87512578  0.87603805  0.80365664  1
