# generated using pymatgen
data_VFe(PbO3)2
_symmetry_space_group_name_H-M   'P 1'
_cell_length_a   15.39195255
_cell_length_b   15.39493568
_cell_length_c   18.51971205
_cell_angle_alpha   89.97166413
_cell_angle_beta   89.99382719
_cell_angle_gamma   89.97859796
_symmetry_Int_Tables_number   1
_chemical_formula_structural   VFe(PbO3)2
_chemical_formula_sum   'V32 Fe32 Pb64 O192'
_cell_volume   4388.39527336
_cell_formula_units_Z   32
loop_
 _symmetry_equiv_pos_site_id
 _symmetry_equiv_pos_as_xyz
  1  'x, y, z'
loop_
 _atom_site_type_symbol
 _atom_site_label
 _atom_site_symmetry_multiplicity
 _atom_site_fract_x
 _atom_site_fract_y
 _atom_site_fract_z
 _atom_site_occupancy
  V  V0  1  0.62413565  0.62782352  0.13967167  1
  V  V1  1  0.87540852  0.37516456  0.88984422  1
  V  V2  1  0.87763306  0.12327952  0.14072383  1
  V  V3  1  0.12238403  0.38011694  0.63634087  1
  V  V4  1  0.87873957  0.12480653  0.88320149  1
  V  V5  1  0.87439831  0.37807412  0.14221020  1
  V  V6  1  0.87280592  0.87729765  0.39372824  1
  V  V7  1  0.62139132  0.37423879  0.38706417  1
  V  V8  1  0.37213000  0.87606690  0.14217911  1
  V  V9  1  0.12391656  0.11939875  0.40560414  1
  V  V10  1  0.87037389  0.37459684  0.39312726  1
  V  V11  1  0.37079163  0.37254311  0.38444462  1
  V  V12  1  0.62589319  0.12444237  0.39290621  1
  V  V13  1  0.37452971  0.12743251  0.39632047  1
  V  V14  1  0.11869042  0.37471841  0.38651697  1
  V  V15  1  0.87462885  0.62871303  0.13614517  1
  V  V16  1  0.62426394  0.62572879  0.89219215  1
  V  V17  1  0.12634029  0.12321523  0.14223859  1
  V  V18  1  0.87696794  0.62277127  0.64193969  1
  V  V19  1  0.38193707  0.12570339  0.88392249  1
  V  V20  1  0.37552200  0.12136123  0.13744599  1
  V  V21  1  0.62410405  0.37547519  0.89537707  1
  V  V22  1  0.12547520  0.12630191  0.88517670  1
  V  V23  1  0.37631569  0.37780423  0.64000550  1
  V  V24  1  0.87202599  0.62703955  0.38875247  1
  V  V25  1  0.12145261  0.62456822  0.89035408  1
  V  V26  1  0.37309144  0.62408445  0.89499605  1
  V  V27  1  0.62314235  0.62675208  0.64125183  1
  V  V28  1  0.62500496  0.87462607  0.38987730  1
  V  V29  1  0.62574871  0.87577002  0.63981711  1
  V  V30  1  0.62618398  0.38060205  0.63894153  1
  V  V31  1  0.12513302  0.37515754  0.89297040  1
  Fe  Fe32  1  0.87618017  0.87234282  0.87508375  1
  Fe  Fe33  1  0.87412642  0.62012653  0.88625888  1
  Fe  Fe34  1  0.87594704  0.87559633  0.13539398  1
  Fe  Fe35  1  0.37764201  0.87709629  0.39354106  1
  Fe  Fe36  1  0.62913414  0.62673505  0.38207970  1
  Fe  Fe37  1  0.37344433  0.37201254  0.12991618  1
  Fe  Fe38  1  0.12297577  0.87219642  0.39934608  1
  Fe  Fe39  1  0.37950336  0.62343641  0.37595119  1
  Fe  Fe40  1  0.37327012  0.62672631  0.14116410  1
  Fe  Fe41  1  0.37870327  0.87139249  0.62576404  1
  Fe  Fe42  1  0.87601720  0.12629857  0.39890094  1
  Fe  Fe43  1  0.62224172  0.87561837  0.88251654  1
  Fe  Fe44  1  0.62986943  0.12773136  0.88038363  1
  Fe  Fe45  1  0.37720747  0.12526112  0.63187107  1
  Fe  Fe46  1  0.62319136  0.12848053  0.64062410  1
  Fe  Fe47  1  0.12136124  0.37125257  0.13637011  1
  Fe  Fe48  1  0.37349830  0.87636153  0.88381674  1
  Fe  Fe49  1  0.12177966  0.62623032  0.13691682  1
  Fe  Fe50  1  0.37281756  0.37438265  0.89894810  1
  Fe  Fe51  1  0.62689718  0.37095030  0.13558913  1
  Fe  Fe52  1  0.62687994  0.87912722  0.13564515  1
  Fe  Fe53  1  0.87253662  0.37883167  0.63003845  1
  Fe  Fe54  1  0.87242229  0.87346765  0.64500690  1
  Fe  Fe55  1  0.37935468  0.62284667  0.63424355  1
  Fe  Fe56  1  0.12569750  0.87027859  0.62583147  1
  Fe  Fe57  1  0.12851551  0.12648124  0.62574311  1
  Fe  Fe58  1  0.12228231  0.87818083  0.13871710  1
  Fe  Fe59  1  0.13036118  0.61997966  0.63098297  1
  Fe  Fe60  1  0.12620534  0.87445176  0.88108977  1
  Fe  Fe61  1  0.12488904  0.62119140  0.38738732  1
  Fe  Fe62  1  0.62696302  0.12251941  0.13281916  1
  Fe  Fe63  1  0.87551597  0.12802823  0.62860198  1
  Pb  Pb64  1  -0.00268159  -0.01234002  -0.00311059  1
  Pb  Pb65  1  0.00285998  -0.00528353  0.25756613  1
  Pb  Pb66  1  -0.00990259  -0.02037184  0.51621070  1
  Pb  Pb67  1  0.00435482  -0.00351315  0.73587613  1
  Pb  Pb68  1  0.00146568  0.25303154  0.00113991  1
  Pb  Pb69  1  -0.00915845  0.23955737  0.25855677  1
  Pb  Pb70  1  -0.00111184  0.24526367  0.50688902  1
  Pb  Pb71  1  -0.00188346  0.24829796  0.73934845  1
  Pb  Pb72  1  0.00934896  0.49891889  0.00404567  1
  Pb  Pb73  1  0.00625654  0.50441979  0.25031181  1
  Pb  Pb74  1  -0.00024122  0.49961461  0.50014299  1
  Pb  Pb75  1  -0.00543457  0.50611755  0.75221068  1
  Pb  Pb76  1  -0.00240549  0.75931295  -0.00303667  1
  Pb  Pb77  1  0.01456491  0.75796815  0.25610059  1
  Pb  Pb78  1  0.00951687  0.74529430  0.50421181  1
  Pb  Pb79  1  0.00966163  0.76154287  0.74796999  1
  Pb  Pb80  1  0.24260084  -0.00858906  -0.00421072  1
  Pb  Pb81  1  0.24946830  -0.01688513  0.26409450  1
  Pb  Pb82  1  0.25510510  -0.01101764  0.50504928  1
  Pb  Pb83  1  0.25066979  -0.00712765  0.73270145  1
  Pb  Pb84  1  0.24713771  0.25429662  0.00197652  1
  Pb  Pb85  1  0.24795305  0.24972149  0.24685337  1
  Pb  Pb86  1  0.25250312  0.24656237  0.50536918  1
  Pb  Pb87  1  0.25537024  0.25137490  0.74742484  1
  Pb  Pb88  1  0.24838426  0.50991937  0.01136292  1
  Pb  Pb89  1  0.24864048  0.50297752  0.24149009  1
  Pb  Pb90  1  0.25384413  0.51390143  0.49692674  1
  Pb  Pb91  1  0.25607215  0.49921803  0.75178919  1
  Pb  Pb92  1  0.24586309  0.74401272  0.00355453  1
  Pb  Pb93  1  0.24238628  0.74095792  0.25397080  1
  Pb  Pb94  1  0.25552219  0.74696954  0.49074065  1
  Pb  Pb95  1  0.25174866  0.75419023  0.73545307  1
  Pb  Pb96  1  0.51222703  -0.00283919  -0.00312543  1
  Pb  Pb97  1  0.49517927  -0.00364178  0.25241030  1
  Pb  Pb98  1  0.49913353  0.00512397  0.50486059  1
  Pb  Pb99  1  0.49574294  -0.00761474  0.74698863  1
  Pb  Pb100  1  0.50243555  0.25687520  0.00430326  1
  Pb  Pb101  1  0.50370421  0.25105634  0.24306446  1
  Pb  Pb102  1  0.50435671  0.24371777  0.50598843  1
  Pb  Pb103  1  0.50218667  0.24635087  0.75094446  1
  Pb  Pb104  1  0.49145980  0.50023708  0.00897043  1
  Pb  Pb105  1  0.49547189  0.50189808  0.24286663  1
  Pb  Pb106  1  0.49748449  0.50625387  0.49382561  1
  Pb  Pb107  1  0.49401907  0.49039059  0.75865090  1
  Pb  Pb108  1  0.49646510  0.75186325  0.00029447  1
  Pb  Pb109  1  0.48919724  0.75315471  0.25448165  1
  Pb  Pb110  1  0.48976953  0.74358426  0.49705063  1
  Pb  Pb111  1  0.49495128  0.75798150  0.75285188  1
  Pb  Pb112  1  0.74181599  -0.00297874  -0.00503169  1
  Pb  Pb113  1  0.74992743  -0.00014518  0.24777978  1
  Pb  Pb114  1  0.75168714  0.00572485  0.50726584  1
  Pb  Pb115  1  0.74848431  0.00666716  0.74588333  1
  Pb  Pb116  1  0.74313067  0.24607534  0.00224335  1
  Pb  Pb117  1  0.75521008  0.24138510  0.25279210  1
  Pb  Pb118  1  0.74851374  0.24470013  0.50505980  1
  Pb  Pb119  1  0.74986834  0.24594343  0.74605494  1
  Pb  Pb120  1  0.74542193  0.49567436  0.00264890  1
  Pb  Pb121  1  0.74324270  0.50429788  0.25069237  1
  Pb  Pb122  1  0.75276149  0.49587564  0.49968694  1
  Pb  Pb123  1  0.75302544  0.50466412  0.75427372  1
  Pb  Pb124  1  0.75797171  0.76488268  -0.00534303  1
  Pb  Pb125  1  0.74583239  0.74822627  0.24811788  1
  Pb  Pb126  1  0.75496841  0.75620598  0.50495038  1
  Pb  Pb127  1  0.75083142  0.75429859  0.75604171  1
  O  O128  1  0.12304157  0.00837258  0.17250796  1
  O  O129  1  0.12349766  0.00568161  0.41841105  1
  O  O130  1  0.12585589  0.00053083  0.64809292  1
  O  O131  1  0.11902337  0.00938788  0.90681751  1
  O  O132  1  0.12028973  0.24051766  0.16834016  1
  O  O133  1  0.12859635  0.26511065  0.41928085  1
  O  O134  1  0.13040572  0.26452666  0.66044357  1
  O  O135  1  0.11925616  0.24737829  0.91628141  1
  O  O136  1  0.11974783  0.49734237  0.16364019  1
  O  O137  1  0.12693829  0.49029868  0.41282669  1
  O  O138  1  0.12861486  0.49376490  0.66810161  1
  O  O139  1  0.12799306  0.50210713  0.91780345  1
  O  O140  1  0.12158161  0.75229493  0.16593264  1
  O  O141  1  0.12052335  0.74450885  0.41397487  1
  O  O142  1  0.12515476  0.74388157  0.65519720  1
  O  O143  1  0.12774895  0.74138199  0.90895505  1
  O  O144  1  0.36958555  0.00407444  0.17012554  1
  O  O145  1  0.37796519  0.00740141  0.41823993  1
  O  O146  1  0.37975616  -0.00214010  0.65405509  1
  O  O147  1  0.36889042  0.01270506  0.91051009  1
  O  O148  1  0.37151331  0.23824709  0.16084473  1
  O  O149  1  0.37950145  0.25679832  0.41720964  1
  O  O150  1  0.37675723  0.26114020  0.66330270  1
  O  O151  1  0.37113498  0.23835604  0.91779740  1
  O  O152  1  0.37632152  0.49763823  0.15815566  1
  O  O153  1  0.38444149  0.48953496  0.40448840  1
  O  O154  1  0.38025981  0.49468548  0.66991115  1
  O  O155  1  0.37541511  0.50596900  0.92153376  1
  O  O156  1  0.37584198  0.75983659  0.16273025  1
  O  O157  1  0.38015976  0.74829478  0.40744090  1
  O  O158  1  0.38140334  0.74755723  0.65817623  1
  O  O159  1  0.37528005  0.74289464  0.91500535  1
  O  O160  1  0.62647113  0.00229426  0.16983535  1
  O  O161  1  0.62957466  -0.00192041  0.41738932  1
  O  O162  1  0.62560156  -0.00666463  0.65717403  1
  O  O163  1  0.62687237  0.00371591  0.90883468  1
  O  O164  1  0.62663366  0.24486038  0.16612986  1
  O  O165  1  0.62628859  0.25252027  0.41495912  1
  O  O166  1  0.62261919  0.26322874  0.66398673  1
  O  O167  1  0.62744707  0.25479001  0.91354003  1
  O  O168  1  0.62852718  0.50407387  0.16158013  1
  O  O169  1  0.62752044  0.49198522  0.40729554  1
  O  O170  1  0.62247461  0.49699373  0.66798841  1
  O  O171  1  0.62130276  0.49882774  0.91975737  1
  O  O172  1  0.62927800  0.74678087  0.16107758  1
  O  O173  1  0.63131576  0.75806876  0.41118995  1
  O  O174  1  0.62674793  0.74355112  0.66302732  1
  O  O175  1  0.62090986  0.74185635  0.91302289  1
  O  O176  1  0.87731361  0.00786465  0.16317581  1
  O  O177  1  0.87354116  -0.00587943  0.41628644  1
  O  O178  1  0.87421689  0.00294379  0.65935784  1
  O  O179  1  0.87999000  0.00912694  0.89748326  1
  O  O180  1  0.87725772  0.24711119  0.16784718  1
  O  O181  1  0.87478290  0.25707899  0.41783876  1
  O  O182  1  0.87542165  0.25567279  0.65777702  1
  O  O183  1  0.87632538  0.25451900  0.91637309  1
  O  O184  1  0.87087206  0.49763425  0.16244636  1
  O  O185  1  0.87019380  0.50260526  0.41359837  1
  O  O186  1  0.87034053  0.50218837  0.66836182  1
  O  O187  1  0.87353774  0.49422721  0.91998175  1
  O  O188  1  0.87109922  0.74226709  0.15812161  1
  O  O189  1  0.87077087  0.74730673  0.41398040  1
  O  O190  1  0.86736001  0.73678117  0.66334116  1
  O  O191  1  0.87495289  0.74571921  0.90945340  1
  O  O192  1  -0.00052773  0.12527010  0.16919583  1
  O  O193  1  0.00683709  0.13444449  0.41847449  1
  O  O194  1  0.00413328  0.13251775  0.65517020  1
  O  O195  1  -0.00299457  0.13196622  0.91187182  1
  O  O196  1  -0.01055812  0.37195984  0.16893865  1
  O  O197  1  0.00185313  0.37885470  0.40887246  1
  O  O198  1  0.00541331  0.38075878  0.65607680  1
  O  O199  1  0.00008105  0.37720859  0.91805471  1
  O  O200  1  -0.01110717  0.62010399  0.16049049  1
  O  O201  1  -0.01162276  0.62085354  0.41326382  1
  O  O202  1  -0.00628835  0.61689747  0.65788576  1
  O  O203  1  0.00588602  0.61923050  0.91059879  1
  O  O204  1  -0.00280393  0.87908712  0.17161659  1
  O  O205  1  -0.01183486  0.87220937  0.41796311  1
  O  O206  1  0.00069972  0.87053320  0.65786845  1
  O  O207  1  0.00061897  0.87370642  0.91017360  1
  O  O208  1  0.24524898  0.12453666  0.16293808  1
  O  O209  1  0.25012926  0.13216626  0.42053538  1
  O  O210  1  0.25153519  0.13163510  0.65984268  1
  O  O211  1  0.23852447  0.12905975  0.90970461  1
  O  O212  1  0.24830881  0.36820061  0.16097016  1
  O  O213  1  0.25726435  0.37555483  0.40426494  1
  O  O214  1  0.25584568  0.38003093  0.66138769  1
  O  O215  1  0.24420720  0.37073462  0.91806690  1
  O  O216  1  0.24753337  0.62740416  0.16560083  1
  O  O217  1  0.25454549  0.61890353  0.40495792  1
  O  O218  1  0.25453552  0.61804688  0.66359806  1
  O  O219  1  0.25141913  0.62260601  0.91577586  1
  O  O220  1  0.25369680  0.87959538  0.16865567  1
  O  O221  1  0.25046022  0.87826280  0.41389434  1
  O  O222  1  0.25171880  0.87253583  0.64898923  1
  O  O223  1  0.24944960  0.87662153  0.91393560  1
  O  O224  1  0.49177579  0.12079079  0.15831757  1
  O  O225  1  0.50404038  0.12731217  0.41766877  1
  O  O226  1  0.49889125  0.13017389  0.66751384  1
  O  O227  1  0.49674265  0.12756518  0.89604540  1
  O  O228  1  0.49956728  0.36962663  0.16108241  1
  O  O229  1  0.50534525  0.37149052  0.41082971  1
  O  O230  1  0.50008765  0.37756380  0.66665343  1
  O  O231  1  0.50549387  0.37319916  0.91868517  1
  O  O232  1  0.50775906  0.62732737  0.15859150  1
  O  O233  1  0.50521994  0.62318881  0.40875255  1
  O  O234  1  0.50905704  0.61966104  0.66623629  1
  O  O235  1  0.50003603  0.62240723  0.91971180  1
  O  O236  1  0.49295393  0.88136849  0.16425628  1
  O  O237  1  0.51174640  0.87892056  0.41251436  1
  O  O238  1  0.50793277  0.87001091  0.66055687  1
  O  O239  1  0.49617330  0.87618168  0.91719560  1
  O  O240  1  0.75884885  0.12654193  0.16276116  1
  O  O241  1  0.74516842  0.12679083  0.41855451  1
  O  O242  1  0.75000975  0.12891859  0.66258488  1
  O  O243  1  0.76168627  0.13108505  0.90704489  1
  O  O244  1  0.75756574  0.37013104  0.16789871  1
  O  O245  1  0.74417869  0.37359901  0.41440715  1
  O  O246  1  0.74277462  0.37977167  0.65959453  1
  O  O247  1  0.74690426  0.37715305  0.91547399  1
  O  O248  1  0.75267150  0.62212054  0.16445999  1
  O  O249  1  0.75467540  0.62469711  0.41671012  1
  O  O250  1  0.74291372  0.61830265  0.66808681  1
  O  O251  1  0.74027306  0.61931146  0.91338587  1
  O  O252  1  0.75250455  0.87763631  0.16676965  1
  O  O253  1  0.75148178  0.87568779  0.41943245  1
  O  O254  1  0.74184785  0.86898716  0.66659122  1
  O  O255  1  0.75091662  0.87406239  0.90471049  1
  O  O256  1  0.12147815  0.12128148  0.05155880  1
  O  O257  1  0.12839397  0.13015279  0.31417002  1
  O  O258  1  0.12893463  0.14132885  0.52416737  1
  O  O259  1  0.12347255  0.13142916  0.79436418  1
  O  O260  1  0.11568458  0.36969266  0.03639894  1
  O  O261  1  0.12143281  0.37180912  0.29511080  1
  O  O262  1  0.12670023  0.38353372  0.54539610  1
  O  O263  1  0.12302940  0.37523990  0.80192739  1
  O  O264  1  0.13029870  0.62401635  0.03593805  1
  O  O265  1  0.11799492  0.62299131  0.28619506  1
  O  O266  1  0.12622724  0.61214860  0.53027365  1
  O  O267  1  0.12439624  0.61871408  0.79954275  1
  O  O268  1  0.12005510  0.88511695  0.03838149  1
  O  O269  1  0.11660366  0.87866971  0.29638919  1
  O  O270  1  0.11513846  0.87225440  0.52315243  1
  O  O271  1  0.12300063  0.87089176  0.78121120  1
  O  O272  1  0.37249523  0.11754988  0.04711769  1
  O  O273  1  0.37451469  0.12941370  0.30518711  1
  O  O274  1  0.38328963  0.13446373  0.53142073  1
  O  O275  1  0.36776244  0.13013577  0.79289119  1
  O  O276  1  0.37846384  0.36690944  0.02789670  1
  O  O277  1  0.37612819  0.36593742  0.29352703  1
  O  O278  1  0.37932318  0.38150160  0.54926225  1
  O  O279  1  0.37678744  0.37951292  0.79863850  1
  O  O280  1  0.36917219  0.62921883  0.03973547  1
  O  O281  1  0.38259106  0.62813044  0.27417200  1
  O  O282  1  0.38282862  0.61625726  0.53357810  1
  O  O283  1  0.37574096  0.61974340  0.80413933  1
  O  O284  1  0.36944749  0.88144616  0.05133193  1
  O  O285  1  0.38173908  0.88304801  0.29142239  1
  O  O286  1  0.38191199  0.87316689  0.52389920  1
  O  O287  1  0.38198346  0.87509658  0.78403813  1
  O  O288  1  0.63375563  0.12187755  0.03233696  1
  O  O289  1  0.62556365  0.12391930  0.30179367  1
  O  O290  1  0.62271699  0.13211434  0.53911332  1
  O  O291  1  0.63482408  0.13179226  0.77971368  1
  O  O292  1  0.62945665  0.36811868  0.03566114  1
  O  O293  1  0.62203901  0.36992576  0.29584421  1
  O  O294  1  0.62200918  0.38211816  0.54792038  1
  O  O295  1  0.62307523  0.37872348  0.80431053  1
  O  O296  1  0.62898895  0.62677417  0.04886891  1
  O  O297  1  0.63459979  0.62687332  0.28255891  1
  O  O298  1  0.62530437  0.62429464  0.55012545  1
  O  O299  1  0.62100859  0.62208644  0.80149524  1
  O  O300  1  0.62661487  0.88774111  0.03546038  1
  O  O301  1  0.62804896  0.87776481  0.29854814  1
  O  O302  1  0.62810463  0.86950239  0.54878926  1
  O  O303  1  0.61569978  0.86907630  0.78272039  1
  O  O304  1  0.88068932  0.12609462  0.05019117  1
  O  O305  1  0.87611678  0.13122815  0.29806856  1
  O  O306  1  0.87078324  0.12897461  0.52631804  1
  O  O307  1  0.88053755  0.13660922  0.79222395  1
  O  O308  1  0.87432202  0.37424002  0.05133782  1
  O  O309  1  0.87092715  0.37548331  0.30163353  1
  O  O310  1  0.87279216  0.38824929  0.53055766  1
  O  O311  1  0.87665336  0.37685735  0.79853357  1
  O  O312  1  0.87263936  0.62469507  0.04524881  1
  O  O313  1  0.87027629  0.62672632  0.29788508  1
  O  O314  1  0.86958313  0.61912463  0.55056191  1
  O  O315  1  0.87313880  0.61083004  0.78660378  1
  O  O316  1  0.88077388  0.87251655  0.03459620  1
  O  O317  1  0.87181344  0.87535109  0.30275758  1
  O  O318  1  0.87027092  0.87145199  0.54265778  1
  O  O319  1  0.87739429  0.86728015  0.77371716  1
