# generated using pymatgen
data_VFe(PbO3)2
_symmetry_space_group_name_H-M   'P 1'
_cell_length_a   15.39935513
_cell_length_b   15.38767886
_cell_length_c   18.49691662
_cell_angle_alpha   90.02687001
_cell_angle_beta   89.97488637
_cell_angle_gamma   90.01425215
_symmetry_Int_Tables_number   1
_chemical_formula_structural   VFe(PbO3)2
_chemical_formula_sum   'V32 Fe32 Pb64 O192'
_cell_volume   4383.03445337
_cell_formula_units_Z   32
loop_
 _symmetry_equiv_pos_site_id
 _symmetry_equiv_pos_as_xyz
  1  'x, y, z'
loop_
 _atom_site_type_symbol
 _atom_site_label
 _atom_site_symmetry_multiplicity
 _atom_site_fract_x
 _atom_site_fract_y
 _atom_site_fract_z
 _atom_site_occupancy
  V  V0  1  0.87080678  0.62162222  0.63987881  1
  V  V1  1  0.12749709  0.87630377  0.39298991  1
  V  V2  1  0.87281087  0.37182121  0.14624373  1
  V  V3  1  0.87384509  0.62589568  0.14531773  1
  V  V4  1  0.12716751  0.37359938  0.63927367  1
  V  V5  1  0.62417010  0.37452763  0.63750673  1
  V  V6  1  0.62056147  0.12521443  0.63949283  1
  V  V7  1  0.37063221  0.62863680  0.38877885  1
  V  V8  1  0.37526523  0.37352655  0.64119629  1
  V  V9  1  0.61962550  0.62500233  0.64123645  1
  V  V10  1  0.12255343  0.87304612  0.13215432  1
  V  V11  1  0.87564915  0.37378842  0.89261021  1
  V  V12  1  0.87320103  0.87280668  0.14090375  1
  V  V13  1  0.12483038  0.62844027  0.38884061  1
  V  V14  1  0.62686806  0.12515384  0.14287915  1
  V  V15  1  0.62599509  0.62217774  0.88705123  1
  V  V16  1  0.12601758  0.62339925  0.64313231  1
  V  V17  1  0.12845145  0.12959634  0.38248362  1
  V  V18  1  0.12683168  0.37471701  0.89980283  1
  V  V19  1  0.62965921  0.12699437  0.89028401  1
  V  V20  1  0.37294581  0.87448109  0.38980569  1
  V  V21  1  0.62616185  0.62583281  0.14044331  1
  V  V22  1  0.38110881  0.12908170  0.89992361  1
  V  V23  1  0.62520123  0.87444862  0.13734744  1
  V  V24  1  0.12534004  0.12485238  0.89381601  1
  V  V25  1  0.12901568  0.12706814  0.64339395  1
  V  V26  1  0.37599815  0.12556549  0.64275366  1
  V  V27  1  0.37597084  0.87503178  0.64854949  1
  V  V28  1  0.12075495  0.62685339  0.13453098  1
  V  V29  1  0.12141565  0.62281119  0.88831230  1
  V  V30  1  0.62514200  0.87585806  0.64458264  1
  V  V31  1  0.87392450  0.62012131  0.88762797  1
  Fe  Fe32  1  0.36990637  0.12007105  0.37946369  1
  Fe  Fe33  1  0.37551773  0.63041207  0.12912218  1
  Fe  Fe34  1  0.62172076  0.37611475  0.37229564  1
  Fe  Fe35  1  0.87690716  0.62852157  0.38123290  1
  Fe  Fe36  1  0.12322122  0.87574253  0.87824637  1
  Fe  Fe37  1  0.87478175  0.12841523  0.63712197  1
  Fe  Fe38  1  0.37694214  0.37387561  0.90046302  1
  Fe  Fe39  1  0.87781606  0.12233334  0.38131468  1
  Fe  Fe40  1  0.37585785  0.87234604  0.12605896  1
  Fe  Fe41  1  0.37469531  0.12053122  0.13142880  1
  Fe  Fe42  1  0.62372353  0.62892522  0.38090751  1
  Fe  Fe43  1  0.87953996  0.37594542  0.37889962  1
  Fe  Fe44  1  0.37484317  0.87677059  0.89147718  1
  Fe  Fe45  1  0.62756281  0.37500150  0.89165515  1
  Fe  Fe46  1  0.37478313  0.62280057  0.88613880  1
  Fe  Fe47  1  0.12901876  0.38042246  0.37499152  1
  Fe  Fe48  1  0.62311476  0.87231535  0.38436919  1
  Fe  Fe49  1  0.87553802  0.12998682  0.88517912  1
  Fe  Fe50  1  0.37523468  0.37851498  0.13053933  1
  Fe  Fe51  1  0.12817324  0.87553135  0.65023032  1
  Fe  Fe52  1  0.87536793  0.87602453  0.64014351  1
  Fe  Fe53  1  0.62819201  0.37527375  0.14671205  1
  Fe  Fe54  1  0.87477293  0.87609500  0.87984070  1
  Fe  Fe55  1  0.87744204  0.87350011  0.38742860  1
  Fe  Fe56  1  0.62691415  0.87740250  0.88417209  1
  Fe  Fe57  1  0.62239680  0.12077082  0.37856909  1
  Fe  Fe58  1  0.12018485  0.12161918  0.13129064  1
  Fe  Fe59  1  0.87422309  0.12023537  0.14064614  1
  Fe  Fe60  1  0.12112129  0.37598494  0.13678219  1
  Fe  Fe61  1  0.37089209  0.37566759  0.37629394  1
  Fe  Fe62  1  0.37605099  0.62260472  0.64598648  1
  Fe  Fe63  1  0.87606431  0.37580921  0.63351558  1
  Pb  Pb64  1  -0.00590356  0.00813690  -0.00368130  1
  Pb  Pb65  1  -0.00848911  -0.00202045  0.25049383  1
  Pb  Pb66  1  -0.01173030  0.00057326  0.50716806  1
  Pb  Pb67  1  -0.00269883  -0.00383366  0.74961947  1
  Pb  Pb68  1  0.00545171  0.24829950  0.00925828  1
  Pb  Pb69  1  -0.00104262  0.24670197  0.24649612  1
  Pb  Pb70  1  -0.01453888  0.25229835  0.49871396  1
  Pb  Pb71  1  -0.00505046  0.24664822  0.75068845  1
  Pb  Pb72  1  0.00146257  0.49403401  0.00744168  1
  Pb  Pb73  1  -0.00336391  0.49623405  0.25367770  1
  Pb  Pb74  1  -0.00429875  0.49158940  0.49366271  1
  Pb  Pb75  1  0.00243482  0.49880658  0.74882127  1
  Pb  Pb76  1  -0.00260028  0.75425192  -0.00779589  1
  Pb  Pb77  1  -0.00866053  0.75297458  0.25476826  1
  Pb  Pb78  1  -0.00272888  0.75969147  0.50652808  1
  Pb  Pb79  1  -0.00023215  0.75650700  0.75045066  1
  Pb  Pb80  1  0.25093139  0.00115933  0.00056685  1
  Pb  Pb81  1  0.25432289  0.00649357  0.24122713  1
  Pb  Pb82  1  0.24142993  -0.00609895  0.50706773  1
  Pb  Pb83  1  0.25384885  -0.00553648  0.76000637  1
  Pb  Pb84  1  0.24824861  0.24199725  0.01226765  1
  Pb  Pb85  1  0.25022406  0.25267793  0.23463672  1
  Pb  Pb86  1  0.25193781  0.25450346  0.48771285  1
  Pb  Pb87  1  0.25692372  0.25344749  0.75698374  1
  Pb  Pb88  1  0.25828942  0.49988898  0.00518476  1
  Pb  Pb89  1  0.25255458  0.49151333  0.24202781  1
  Pb  Pb90  1  0.25624104  0.50672807  0.50002182  1
  Pb  Pb91  1  0.25982135  0.49828858  0.75761325  1
  Pb  Pb92  1  0.25765378  0.75241485  -0.00562271  1
  Pb  Pb93  1  0.25062060  0.75114582  0.24133059  1
  Pb  Pb94  1  0.24572488  0.75268615  0.51079090  1
  Pb  Pb95  1  0.26179750  0.74667398  0.75985702  1
  Pb  Pb96  1  0.49568802  -0.00114018  0.00114378  1
  Pb  Pb97  1  0.49541332  0.00558682  0.24896318  1
  Pb  Pb98  1  0.50196009  0.00345618  0.49499651  1
  Pb  Pb99  1  0.50137012  -0.00533974  0.75823784  1
  Pb  Pb100  1  0.50410855  0.26293930  0.01050345  1
  Pb  Pb101  1  0.49121998  0.25648548  0.24320785  1
  Pb  Pb102  1  0.49811687  0.25000981  0.48220434  1
  Pb  Pb103  1  0.50054309  0.25880142  0.75693573  1
  Pb  Pb104  1  0.49317721  0.49837932  0.00322847  1
  Pb  Pb105  1  0.49654960  0.49491548  0.24436009  1
  Pb  Pb106  1  0.50046848  0.49706071  0.49034888  1
  Pb  Pb107  1  0.49489333  0.48779415  0.76134411  1
  Pb  Pb108  1  0.49364682  0.75068925  -0.00528801  1
  Pb  Pb109  1  0.50817164  0.75155592  0.24864546  1
  Pb  Pb110  1  0.49600710  0.74355864  0.50154667  1
  Pb  Pb111  1  0.50033286  0.75759475  0.76076039  1
  Pb  Pb112  1  0.75982666  0.00448337  -0.00249041  1
  Pb  Pb113  1  0.74255528  -0.00447637  0.25608079  1
  Pb  Pb114  1  0.75459734  -0.00044029  0.49203150  1
  Pb  Pb115  1  0.76010208  0.00169479  0.75000587  1
  Pb  Pb116  1  0.74864391  0.25501719  0.00848619  1
  Pb  Pb117  1  0.75063900  0.23772956  0.25687550  1
  Pb  Pb118  1  0.75068751  0.25031634  0.48325202  1
  Pb  Pb119  1  0.75254079  0.24753107  0.74746961  1
  Pb  Pb120  1  0.74555212  0.49476977  0.00735350  1
  Pb  Pb121  1  0.75230558  0.49907706  0.25562724  1
  Pb  Pb122  1  0.75008497  0.49737821  0.48372495  1
  Pb  Pb123  1  0.74092045  0.49360566  0.74928211  1
  Pb  Pb124  1  0.75059293  0.75170787  -0.00552256  1
  Pb  Pb125  1  0.74679866  0.74994967  0.25656209  1
  Pb  Pb126  1  0.75267172  0.75310226  0.49310092  1
  Pb  Pb127  1  0.75146938  0.75750304  0.75198043  1
  O  O128  1  0.11747388  -0.01271322  0.15660602  1
  O  O129  1  0.13162890  -0.00888125  0.41468666  1
  O  O130  1  0.13216675  0.01118386  0.66839992  1
  O  O131  1  0.12404207  0.00768808  0.90706220  1
  O  O132  1  0.12105059  0.24888553  0.15854402  1
  O  O133  1  0.13460329  0.24499134  0.39264586  1
  O  O134  1  0.13114146  0.24862207  0.66980455  1
  O  O135  1  0.12183044  0.25456039  0.92008472  1
  O  O136  1  0.12003446  0.51186796  0.15476735  1
  O  O137  1  0.13214877  0.51232007  0.40985864  1
  O  O138  1  0.12663972  0.49879123  0.66845893  1
  O  O139  1  0.11849049  0.49781107  0.91958901  1
  O  O140  1  0.11818941  0.75429897  0.16318186  1
  O  O141  1  0.13205750  0.74976997  0.42096163  1
  O  O142  1  0.12479974  0.73926322  0.66655763  1
  O  O143  1  0.11754300  0.74028145  0.90374568  1
  O  O144  1  0.37622290  -0.00703942  0.15864419  1
  O  O145  1  0.36790481  -0.01004387  0.41371464  1
  O  O146  1  0.37785055  -0.00025755  0.67139704  1
  O  O147  1  0.37168013  0.00838884  0.91436693  1
  O  O148  1  0.37598939  0.24825624  0.15180391  1
  O  O149  1  0.36875299  0.24758862  0.40490131  1
  O  O150  1  0.37785458  0.24992207  0.67220343  1
  O  O151  1  0.37313151  0.24468179  0.92340546  1
  O  O152  1  0.37566726  0.50779063  0.15621456  1
  O  O153  1  0.36983799  0.51025321  0.40847177  1
  O  O154  1  0.37555495  0.49336160  0.66982851  1
  O  O155  1  0.37334029  0.50165044  0.91617126  1
  O  O156  1  0.37421353  0.75254789  0.16290987  1
  O  O157  1  0.36995625  0.75132726  0.41860826  1
  O  O158  1  0.37713157  0.75524684  0.66920682  1
  O  O159  1  0.37385139  0.74730933  0.90854907  1
  O  O160  1  0.63074087  -0.00752476  0.16050171  1
  O  O161  1  0.62089294  -0.00354534  0.41630494  1
  O  O162  1  0.62115048  0.00448611  0.66507296  1
  O  O163  1  0.62410538  0.00993951  0.91369742  1
  O  O164  1  0.62733758  0.24123309  0.16292039  1
  O  O165  1  0.62131872  0.24931658  0.40351811  1
  O  O166  1  0.61994957  0.24750597  0.66216349  1
  O  O167  1  0.62437202  0.24319398  0.91956433  1
  O  O168  1  0.62994624  0.51029123  0.15875616  1
  O  O169  1  0.61985636  0.50237875  0.40838027  1
  O  O170  1  0.62616937  0.50320057  0.66406050  1
  O  O171  1  0.62995215  0.50642778  0.91796405  1
  O  O172  1  0.63034217  0.75396616  0.16360558  1
  O  O173  1  0.61868994  0.75026432  0.42006331  1
  O  O174  1  0.62621312  0.74480013  0.66590303  1
  O  O175  1  0.63002108  0.74062762  0.90999414  1
  O  O176  1  0.87352635  -0.01093879  0.16343485  1
  O  O177  1  0.88311917  -0.00077699  0.41450110  1
  O  O178  1  0.87404996  0.00420081  0.66409952  1
  O  O179  1  0.87501413  0.00378947  0.90904428  1
  O  O180  1  0.87286408  0.25358536  0.16167188  1
  O  O181  1  0.88130287  0.24850366  0.40741021  1
  O  O182  1  0.87518333  0.25281411  0.66658473  1
  O  O183  1  0.87513359  0.25784430  0.91633486  1
  O  O184  1  0.87381745  0.50370957  0.16601847  1
  O  O185  1  0.88035438  0.50322790  0.40974393  1
  O  O186  1  0.87557108  0.50353907  0.66528642  1
  O  O187  1  0.87423690  0.49532482  0.91985452  1
  O  O188  1  0.87480628  0.75292474  0.16677215  1
  O  O189  1  0.88119747  0.74945476  0.41923938  1
  O  O190  1  0.87691623  0.73842170  0.66469817  1
  O  O191  1  0.87542565  0.74265447  0.90961421  1
  O  O192  1  -0.00168569  0.12088576  0.16524307  1
  O  O193  1  0.01677308  0.12006433  0.41057632  1
  O  O194  1  0.01141402  0.12889367  0.66419066  1
  O  O195  1  0.00500804  0.13124698  0.91185150  1
  O  O196  1  -0.00802064  0.37999611  0.16356467  1
  O  O197  1  0.00820208  0.37792025  0.40864321  1
  O  O198  1  0.00650202  0.37411098  0.66536118  1
  O  O199  1  -0.00542774  0.37610878  0.91903157  1
  O  O200  1  0.00265788  0.63067020  0.16419201  1
  O  O201  1  0.01119559  0.63036446  0.40984029  1
  O  O202  1  0.00158712  0.61933427  0.66539249  1
  O  O203  1  -0.00077934  0.61866575  0.91620860  1
  O  O204  1  -0.00424553  0.87097330  0.16185557  1
  O  O205  1  0.01240373  0.87042657  0.41495713  1
  O  O206  1  0.00104959  0.87487078  0.66665045  1
  O  O207  1  -0.00039942  0.87405408  0.90935322  1
  O  O208  1  0.24616117  0.11852853  0.15654031  1
  O  O209  1  0.24234832  0.11794371  0.41624228  1
  O  O210  1  0.25400694  0.12828580  0.67342090  1
  O  O211  1  0.24531999  0.13058078  0.91802258  1
  O  O212  1  0.24835086  0.37955480  0.15318327  1
  O  O213  1  0.24933536  0.37921969  0.41369283  1
  O  O214  1  0.25179006  0.37311385  0.66955904  1
  O  O215  1  0.24200629  0.37567963  0.91662327  1
  O  O216  1  0.23850790  0.63402674  0.15593433  1
  O  O217  1  0.25152453  0.63031320  0.41984365  1
  O  O218  1  0.24352043  0.62164634  0.66903576  1
  O  O219  1  0.23699923  0.61984550  0.90926445  1
  O  O220  1  0.23962659  0.87021654  0.14935255  1
  O  O221  1  0.25126928  0.86991479  0.42218810  1
  O  O222  1  0.25918031  0.87629432  0.67110953  1
  O  O223  1  0.24508209  0.87531110  0.90921800  1
  O  O224  1  0.50733449  0.11669592  0.15963245  1
  O  O225  1  0.49426030  0.11958898  0.41005952  1
  O  O226  1  0.50096370  0.12536005  0.67056717  1
  O  O227  1  0.50015433  0.12637348  0.91596270  1
  O  O228  1  0.50089009  0.37709098  0.15768472  1
  O  O229  1  0.49481823  0.37788077  0.40673606  1
  O  O230  1  0.50074653  0.37544239  0.67006972  1
  O  O231  1  0.50517335  0.37482360  0.92184465  1
  O  O232  1  0.50842645  0.63305144  0.15652812  1
  O  O233  1  0.48815592  0.62971839  0.41088798  1
  O  O234  1  0.50729064  0.62477171  0.66703901  1
  O  O235  1  0.50881638  0.62322720  0.90480646  1
  O  O236  1  0.50904554  0.87145840  0.15249386  1
  O  O237  1  0.48789141  0.87188276  0.41343499  1
  O  O238  1  0.49855204  0.87517028  0.67244900  1
  O  O239  1  0.50404613  0.87678150  0.91430376  1
  O  O240  1  0.74584927  0.12004241  0.16695465  1
  O  O241  1  0.75025487  0.12291202  0.40763838  1
  O  O242  1  0.73879256  0.12768889  0.66043081  1
  O  O243  1  0.74522227  0.12840946  0.91267245  1
  O  O244  1  0.75695196  0.37856414  0.16978636  1
  O  O245  1  0.74953888  0.37564809  0.40179474  1
  O  O246  1  0.74531466  0.37529700  0.66025043  1
  O  O247  1  0.75610248  0.37505885  0.91937389  1
  O  O248  1  0.74859937  0.63051300  0.16725295  1
  O  O249  1  0.75029163  0.62723992  0.40923718  1
  O  O250  1  0.75154239  0.62267000  0.66265115  1
  O  O251  1  0.75160858  0.62162052  0.91612169  1
  O  O252  1  0.75290994  0.87111377  0.16308492  1
  O  O253  1  0.75012516  0.87407563  0.41219305  1
  O  O254  1  0.74657486  0.87313196  0.66420580  1
  O  O255  1  0.75065712  0.87424716  0.91236627  1
  O  O256  1  0.11952041  0.12583817  0.03022832  1
  O  O257  1  0.13063247  0.11341860  0.29179671  1
  O  O258  1  0.13369714  0.12719566  0.55279816  1
  O  O259  1  0.12963235  0.13383023  0.80303818  1
  O  O260  1  0.11101541  0.37575130  0.03508026  1
  O  O261  1  0.12823617  0.38642734  0.27435883  1
  O  O262  1  0.12968195  0.37331915  0.54855793  1
  O  O263  1  0.12162883  0.37451540  0.80873021  1
  O  O264  1  0.11778654  0.63234180  0.04334988  1
  O  O265  1  0.13114302  0.63305164  0.29805268  1
  O  O266  1  0.12672794  0.62139993  0.55205036  1
  O  O267  1  0.11778399  0.61417483  0.79738296  1
  O  O268  1  0.11590954  0.86968139  0.04091906  1
  O  O269  1  0.13122620  0.87407207  0.30217561  1
  O  O270  1  0.13598116  0.87501359  0.54896206  1
  O  O271  1  0.12510842  0.87893049  0.77647292  1
  O  O272  1  0.37055996  0.11603301  0.03003277  1
  O  O273  1  0.37141300  0.11165203  0.27938839  1
  O  O274  1  0.37281646  0.12567899  0.55226439  1
  O  O275  1  0.37573651  0.13203352  0.80831458  1
  O  O276  1  0.37752468  0.38300399  0.02730553  1
  O  O277  1  0.37308514  0.38230065  0.27569189  1
  O  O278  1  0.37503967  0.37238458  0.55027666  1
  O  O279  1  0.38229970  0.37218392  0.79781041  1
  O  O280  1  0.37269135  0.63170591  0.02800044  1
  O  O281  1  0.36578849  0.63409320  0.29811858  1
  O  O282  1  0.37285890  0.62232576  0.54646657  1
  O  O283  1  0.36741365  0.62189336  0.78322963  1
  O  O284  1  0.37500382  0.87154839  0.02448694  1
  O  O285  1  0.36970800  0.87123776  0.29889553  1
  O  O286  1  0.37757628  0.87727582  0.55761217  1
  O  O287  1  0.38042378  0.87766758  0.78933140  1
  O  O288  1  0.63001864  0.12282938  0.05138156  1
  O  O289  1  0.62636814  0.11281517  0.27808814  1
  O  O290  1  0.61482458  0.12295494  0.54905832  1
  O  O291  1  0.62742976  0.12959905  0.79912335  1
  O  O292  1  0.63826392  0.36972644  0.04384111  1
  O  O293  1  0.61996149  0.37963315  0.27084980  1
  O  O294  1  0.61779675  0.37698174  0.54697976  1
  O  O295  1  0.62354553  0.37972992  0.79114123  1
  O  O296  1  0.63128630  0.63138837  0.04917810  1
  O  O297  1  0.62075597  0.63718841  0.28098218  1
  O  O298  1  0.61836734  0.62525155  0.55050235  1
  O  O299  1  0.63240960  0.61779184  0.79580862  1
  O  O300  1  0.63258304  0.87263825  0.04625295  1
  O  O301  1  0.62442905  0.86958131  0.28375462  1
  O  O302  1  0.61726040  0.87416147  0.55406041  1
  O  O303  1  0.62196584  0.87233861  0.78323637  1
  O  O304  1  0.87365721  0.11532478  0.03919424  1
  O  O305  1  0.87691620  0.12290727  0.28002529  1
  O  O306  1  0.88631362  0.12871939  0.53678951  1
  O  O307  1  0.87028029  0.13460569  0.78451989  1
  O  O308  1  0.87004217  0.37680113  0.05392655  1
  O  O309  1  0.88131436  0.38140340  0.27843121  1
  O  O310  1  0.88555802  0.37342213  0.53395739  1
  O  O311  1  0.87510479  0.37555533  0.80143752  1
  O  O312  1  0.87396732  0.62755952  0.05406392  1
  O  O313  1  0.87993329  0.63226268  0.28070945  1
  O  O314  1  0.87472944  0.62130469  0.54943041  1
  O  O315  1  0.87456216  0.61688172  0.79669288  1
  O  O316  1  0.87383180  0.87073318  0.04931546  1
  O  O317  1  0.88409388  0.87165177  0.28700617  1
  O  O318  1  0.88304713  0.87560686  0.53913656  1
  O  O319  1  0.87103209  0.87347867  0.77855284  1
