# generated using pymatgen
data_VFe(PbO3)2
_symmetry_space_group_name_H-M   'P 1'
_cell_length_a   15.38085218
_cell_length_b   15.39169017
_cell_length_c   18.45349187
_cell_angle_alpha   89.98345653
_cell_angle_beta   90.00970723
_cell_angle_gamma   90.00242190
_symmetry_Int_Tables_number   1
_chemical_formula_structural   VFe(PbO3)2
_chemical_formula_sum   'V32 Fe32 Pb64 O192'
_cell_volume   4368.62980187
_cell_formula_units_Z   32
loop_
 _symmetry_equiv_pos_site_id
 _symmetry_equiv_pos_as_xyz
  1  'x, y, z'
loop_
 _atom_site_type_symbol
 _atom_site_label
 _atom_site_symmetry_multiplicity
 _atom_site_fract_x
 _atom_site_fract_y
 _atom_site_fract_z
 _atom_site_occupancy
  V  V0  1  0.87365639  0.61455333  0.65334293  1
  V  V1  1  0.62493902  0.12465128  0.14162279  1
  V  V2  1  0.87835133  0.87832529  0.89000973  1
  V  V3  1  0.87396825  0.37889348  0.39229624  1
  V  V4  1  0.62765961  0.87067517  0.38978301  1
  V  V5  1  0.12187338  0.62460683  0.39322280  1
  V  V6  1  0.37775045  0.37236787  0.13850046  1
  V  V7  1  0.37323533  0.37784610  0.64110532  1
  V  V8  1  0.62431114  0.37877823  0.39264424  1
  V  V9  1  0.12580679  0.12444561  0.63342133  1
  V  V10  1  0.12137332  0.12414360  0.89258309  1
  V  V11  1  0.87446646  0.62388353  0.39313396  1
  V  V12  1  0.37731455  0.12621371  0.63246812  1
  V  V13  1  0.37442732  0.62446618  0.13354349  1
  V  V14  1  0.62219490  0.12265951  0.88965900  1
  V  V15  1  0.62246274  0.87777663  0.64118847  1
  V  V16  1  0.37216486  0.62266823  0.39519551  1
  V  V17  1  0.12321425  0.87108006  0.39149086  1
  V  V18  1  0.12763509  0.88160632  0.88927895  1
  V  V19  1  0.87331283  0.12360136  0.63340855  1
  V  V20  1  0.12938682  0.12986573  0.15594484  1
  V  V21  1  0.87677784  0.87688397  0.63935935  1
  V  V22  1  0.37569559  0.63072402  0.64298887  1
  V  V23  1  0.87346516  0.86789625  0.39062507  1
  V  V24  1  0.87667137  0.12499785  0.14529480  1
  V  V25  1  0.37608604  0.87892908  0.88943648  1
  V  V26  1  0.62358337  0.62399257  0.13104956  1
  V  V27  1  0.12326453  0.87521265  0.14266781  1
  V  V28  1  0.87801084  0.37265577  0.88700263  1
  V  V29  1  0.87525852  0.62474752  0.13241056  1
  V  V30  1  0.87359788  0.12602870  0.89091469  1
  V  V31  1  0.62611199  0.62454978  0.39419879  1
  Fe  Fe32  1  0.62465644  0.37105855  0.63801721  1
  Fe  Fe33  1  0.12699053  0.87785519  0.63273913  1
  Fe  Fe34  1  0.62522514  0.36913358  0.88946636  1
  Fe  Fe35  1  0.87577521  0.12393899  0.38473764  1
  Fe  Fe36  1  0.37738691  0.86787728  0.39664923  1
  Fe  Fe37  1  0.62779361  0.12562813  0.39321329  1
  Fe  Fe38  1  0.12518373  0.38011184  0.38020797  1
  Fe  Fe39  1  0.37424493  0.62513749  0.87953627  1
  Fe  Fe40  1  0.62623572  0.62745196  0.87703176  1
  Fe  Fe41  1  0.87543074  0.62284962  0.87422845  1
  Fe  Fe42  1  0.37590520  0.12305267  0.14854198  1
  Fe  Fe43  1  0.37497940  0.12711209  0.37742505  1
  Fe  Fe44  1  0.12545653  0.37289976  0.64015146  1
  Fe  Fe45  1  0.37294188  0.36994698  0.88186934  1
  Fe  Fe46  1  0.37062836  0.12324622  0.88843417  1
  Fe  Fe47  1  0.87554025  0.36934535  0.63508673  1
  Fe  Fe48  1  0.12390299  0.37073437  0.88191672  1
  Fe  Fe49  1  0.37448057  0.87833591  0.62540757  1
  Fe  Fe50  1  0.62637394  0.37447307  0.13028135  1
  Fe  Fe51  1  0.37664498  0.38154150  0.38503069  1
  Fe  Fe52  1  0.62435347  0.12475756  0.62498062  1
  Fe  Fe53  1  0.12387279  0.62687632  0.88288038  1
  Fe  Fe54  1  0.87291767  0.37517547  0.13432925  1
  Fe  Fe55  1  0.62552385  0.62477921  0.65066256  1
  Fe  Fe56  1  0.12355675  0.37871101  0.14179185  1
  Fe  Fe57  1  0.62720623  0.87431049  0.13221546  1
  Fe  Fe58  1  0.62514940  0.88202868  0.88791946  1
  Fe  Fe59  1  0.12290333  0.12661566  0.37519395  1
  Fe  Fe60  1  0.37622554  0.87311050  0.13711542  1
  Fe  Fe61  1  0.12433255  0.62687865  0.64182723  1
  Fe  Fe62  1  0.12653780  0.62845143  0.13097184  1
  Fe  Fe63  1  0.87372383  0.87502547  0.13564898  1
  Pb  Pb64  1  -0.00472887  -0.00331374  0.00696742  1
  Pb  Pb65  1  -0.00282556  0.00458608  0.25558430  1
  Pb  Pb66  1  0.00360721  -0.00152649  0.49487864  1
  Pb  Pb67  1  0.00125059  0.00355973  0.74737708  1
  Pb  Pb68  1  0.00137627  0.26125007  0.00948729  1
  Pb  Pb69  1  -0.00049506  0.25148516  0.25382124  1
  Pb  Pb70  1  0.00502980  0.25629434  0.49334404  1
  Pb  Pb71  1  0.00389273  0.25409554  0.74796366  1
  Pb  Pb72  1  0.01139377  0.49899004  -0.00334228  1
  Pb  Pb73  1  0.00440466  0.49746885  0.24492518  1
  Pb  Pb74  1  0.00290245  0.49336546  0.50804847  1
  Pb  Pb75  1  0.01311401  0.49443488  0.75190231  1
  Pb  Pb76  1  0.00022203  0.74285056  -0.00377837  1
  Pb  Pb77  1  0.00018443  0.74808870  0.24734192  1
  Pb  Pb78  1  0.00667936  0.74472884  0.50996237  1
  Pb  Pb79  1  0.00494206  0.74373491  0.75354009  1
  Pb  Pb80  1  0.25934359  0.00268299  0.01305956  1
  Pb  Pb81  1  0.26010845  -0.00440818  0.25776406  1
  Pb  Pb82  1  0.25417501  -0.00313454  0.48986487  1
  Pb  Pb83  1  0.25792371  0.00372688  0.74433657  1
  Pb  Pb84  1  0.24818253  0.25322916  0.00049056  1
  Pb  Pb85  1  0.25936855  0.26277420  0.25672374  1
  Pb  Pb86  1  0.24604645  0.25358334  0.48526228  1
  Pb  Pb87  1  0.25982071  0.24669976  0.75320730  1
  Pb  Pb88  1  0.24465349  0.49845420  -0.01091656  1
  Pb  Pb89  1  0.24800054  0.49714087  0.24897368  1
  Pb  Pb90  1  0.23996901  0.49472946  0.50459600  1
  Pb  Pb91  1  0.24820739  0.50235139  0.75222430  1
  Pb  Pb92  1  0.24714305  0.74594608  -0.00369222  1
  Pb  Pb93  1  0.25679348  0.75409954  0.25252750  1
  Pb  Pb94  1  0.24092955  0.74913429  0.50886750  1
  Pb  Pb95  1  0.24749972  0.74973470  0.74697906  1
  Pb  Pb96  1  0.48805699  -0.00007692  0.01013434  1
  Pb  Pb97  1  0.49633989  -0.00463137  0.25309662  1
  Pb  Pb98  1  0.49601163  0.00147389  0.49188581  1
  Pb  Pb99  1  0.50373400  -0.00091170  0.74867898  1
  Pb  Pb100  1  0.49594491  0.25077284  -0.00191262  1
  Pb  Pb101  1  0.50683403  0.23940091  0.25724976  1
  Pb  Pb102  1  0.49925806  0.24648271  0.49449592  1
  Pb  Pb103  1  0.49655301  0.25248961  0.75068806  1
  Pb  Pb104  1  0.50098669  0.49940892  -0.01589387  1
  Pb  Pb105  1  0.49472444  0.49798690  0.24617855  1
  Pb  Pb106  1  0.51142798  0.50216013  0.51022176  1
  Pb  Pb107  1  0.49706194  0.49853444  0.75381775  1
  Pb  Pb108  1  0.50560677  0.75349269  -0.00779122  1
  Pb  Pb109  1  0.49702845  0.75513927  0.24820294  1
  Pb  Pb110  1  0.50652176  0.74216385  0.50812690  1
  Pb  Pb111  1  0.49967347  0.74590898  0.75480379  1
  Pb  Pb112  1  0.75054139  -0.00621763  0.00489720  1
  Pb  Pb113  1  0.74854333  0.00586075  0.25361322  1
  Pb  Pb114  1  0.74867753  0.00435973  0.49720485  1
  Pb  Pb115  1  0.74338144  -0.00210700  0.75093665  1
  Pb  Pb116  1  0.75284364  0.25634590  0.00441549  1
  Pb  Pb117  1  0.74798108  0.24408048  0.25458748  1
  Pb  Pb118  1  0.74943906  0.25548925  0.50211359  1
  Pb  Pb119  1  0.73918771  0.25114112  0.74851403  1
  Pb  Pb120  1  0.74838929  0.49672122  -0.01088701  1
  Pb  Pb121  1  0.74769149  0.49744149  0.24330792  1
  Pb  Pb122  1  0.74956190  0.49244963  0.51209346  1
  Pb  Pb123  1  0.73480909  0.48725667  0.75481140  1
  Pb  Pb124  1  0.74717452  0.75505468  -0.00821640  1
  Pb  Pb125  1  0.74819007  0.75019723  0.24316679  1
  Pb  Pb126  1  0.74838883  0.73803987  0.51037345  1
  Pb  Pb127  1  0.74978933  0.74960197  0.75578157  1
  O  O128  1  0.12238714  -0.00939442  0.17034739  1
  O  O129  1  0.12193068  -0.01005314  0.40460752  1
  O  O130  1  0.12614602  0.00748589  0.66238526  1
  O  O131  1  0.12098076  -0.00169863  0.92034049  1
  O  O132  1  0.12476833  0.24725076  0.16700211  1
  O  O133  1  0.12115786  0.25341139  0.40274622  1
  O  O134  1  0.12398924  0.23913463  0.65953943  1
  O  O135  1  0.12052703  0.24086351  0.91404920  1
  O  O136  1  0.12478611  0.50647304  0.16344989  1
  O  O137  1  0.12227663  0.50534503  0.41584068  1
  O  O138  1  0.12615658  0.50037516  0.66491021  1
  O  O139  1  0.12199423  0.49883079  0.90624030  1
  O  O140  1  0.12400767  0.75363377  0.16698520  1
  O  O141  1  0.12343442  0.74740540  0.42141076  1
  O  O142  1  0.12455566  0.75421140  0.66465411  1
  O  O143  1  0.12215194  0.76399311  0.91075755  1
  O  O144  1  0.37502253  -0.00450700  0.17284441  1
  O  O145  1  0.37625858  -0.00213415  0.40620140  1
  O  O146  1  0.37289548  0.00800306  0.65632073  1
  O  O147  1  0.36966425  -0.00275411  0.91923475  1
  O  O148  1  0.37427549  0.25676763  0.16082566  1
  O  O149  1  0.37655449  0.25452451  0.40898820  1
  O  O150  1  0.37146286  0.24423672  0.66012459  1
  O  O151  1  0.37123955  0.24453936  0.92021256  1
  O  O152  1  0.37662230  0.50345859  0.15975985  1
  O  O153  1  0.37900152  0.50825413  0.42288036  1
  O  O154  1  0.37544946  0.49627793  0.66339946  1
  O  O155  1  0.37368680  0.49845276  0.90572035  1
  O  O156  1  0.37617199  0.74340938  0.16201126  1
  O  O157  1  0.37759022  0.73738336  0.42179585  1
  O  O158  1  0.37722490  0.74904795  0.65643240  1
  O  O159  1  0.37241206  0.76248558  0.90984098  1
  O  O160  1  0.62768737  0.00606899  0.16455183  1
  O  O161  1  0.62824355  -0.01120655  0.40736344  1
  O  O162  1  0.62398431  0.00064736  0.66351970  1
  O  O163  1  0.62945799  0.00878593  0.91820694  1
  O  O164  1  0.62743967  0.24552151  0.16420402  1
  O  O165  1  0.62936439  0.26171773  0.41088941  1
  O  O166  1  0.62482176  0.24392496  0.66214901  1
  O  O167  1  0.62922075  0.23798908  0.91572828  1
  O  O168  1  0.62346104  0.50471487  0.16057210  1
  O  O169  1  0.62846474  0.50054312  0.42160670  1
  O  O170  1  0.62286914  0.49680777  0.66752988  1
  O  O171  1  0.62761604  0.49882339  0.90399950  1
  O  O172  1  0.62534186  0.74217866  0.16160710  1
  O  O173  1  0.62835161  0.74815626  0.42182051  1
  O  O174  1  0.62606798  0.76264984  0.66595533  1
  O  O175  1  0.62613708  0.75548342  0.90770585  1
  O  O176  1  0.87349687  0.00438485  0.16715708  1
  O  O177  1  0.87523669  -0.01127944  0.41155398  1
  O  O178  1  0.87619969  0.00415298  0.66597686  1
  O  O179  1  0.87878919  0.00230747  0.91979901  1
  O  O180  1  0.87358651  0.24355572  0.16545417  1
  O  O181  1  0.87369414  0.26042036  0.40925544  1
  O  O182  1  0.87858170  0.23773538  0.65781882  1
  O  O183  1  0.87903774  0.24657315  0.91744949  1
  O  O184  1  0.87380450  0.50849489  0.15987320  1
  O  O185  1  0.87346944  0.50110426  0.42138992  1
  O  O186  1  0.87398428  0.50054617  0.66460767  1
  O  O187  1  0.87547386  0.49080020  0.89926909  1
  O  O188  1  0.87235858  0.74262994  0.16070960  1
  O  O189  1  0.87360449  0.74732088  0.42294925  1
  O  O190  1  0.87228189  0.76616488  0.66528516  1
  O  O191  1  0.87641024  0.76158699  0.90503787  1
  O  O192  1  -0.00446603  0.12351947  0.16761887  1
  O  O193  1  0.00024469  0.12241822  0.41193743  1
  O  O194  1  0.00210837  0.12031943  0.65877533  1
  O  O195  1  0.00284484  0.12077089  0.91919148  1
  O  O196  1  -0.00427816  0.37502170  0.16810909  1
  O  O197  1  -0.00603495  0.38186720  0.41029074  1
  O  O198  1  -0.00174337  0.37142500  0.66618575  1
  O  O199  1  -0.00460558  0.36926196  0.91318697  1
  O  O200  1  -0.00688750  0.62751305  0.15742955  1
  O  O201  1  -0.00213555  0.62605293  0.41982121  1
  O  O202  1  -0.00686949  0.63148261  0.66537266  1
  O  O203  1  -0.00339435  0.62967046  0.90935285  1
  O  O204  1  0.00201772  0.87179672  0.16727374  1
  O  O205  1  0.00110956  0.86711725  0.41523637  1
  O  O206  1  -0.00577567  0.88433613  0.66061907  1
  O  O207  1  -0.00000159  0.88112761  0.91497072  1
  O  O208  1  0.24470762  0.12136765  0.16954031  1
  O  O209  1  0.24737138  0.12392598  0.40149162  1
  O  O210  1  0.24795138  0.12473662  0.65639490  1
  O  O211  1  0.23795092  0.12089789  0.91919496  1
  O  O212  1  0.25741300  0.37902335  0.16342538  1
  O  O213  1  0.25009137  0.38262007  0.41218303  1
  O  O214  1  0.25623383  0.37149720  0.66290391  1
  O  O215  1  0.24684329  0.36904046  0.91274628  1
  O  O216  1  0.25816454  0.62606931  0.15824821  1
  O  O217  1  0.25231279  0.62404917  0.41440122  1
  O  O218  1  0.25728918  0.62447591  0.66463394  1
  O  O219  1  0.24938877  0.63159418  0.91074609  1
  O  O220  1  0.24378986  0.87230043  0.16816438  1
  O  O221  1  0.24182221  0.86732540  0.41119896  1
  O  O222  1  0.25315127  0.87791920  0.65991842  1
  O  O223  1  0.24533903  0.88030301  0.91154406  1
  O  O224  1  0.50796910  0.12545451  0.16591255  1
  O  O225  1  0.50043795  0.12665797  0.41035616  1
  O  O226  1  0.49288786  0.12545609  0.65297730  1
  O  O227  1  0.50561473  0.12216464  0.91057884  1
  O  O228  1  0.49622840  0.37831877  0.16010339  1
  O  O229  1  0.50762060  0.38223579  0.41305829  1
  O  O230  1  0.49187051  0.36918116  0.66365474  1
  O  O231  1  0.49931699  0.36719801  0.91185463  1
  O  O232  1  0.49583311  0.62419495  0.15938144  1
  O  O233  1  0.50302072  0.62396043  0.42182389  1
  O  O234  1  0.49303355  0.62476447  0.66695855  1
  O  O235  1  0.49982019  0.62988547  0.90898350  1
  O  O236  1  0.50356912  0.87297635  0.16523613  1
  O  O237  1  0.51134174  0.86732501  0.41425595  1
  O  O238  1  0.50265104  0.88087976  0.65945889  1
  O  O239  1  0.49295591  0.88253609  0.90941548  1
  O  O240  1  0.75007822  0.12498113  0.16623507  1
  O  O241  1  0.75411201  0.12445705  0.41679179  1
  O  O242  1  0.75667164  0.12017060  0.65064480  1
  O  O243  1  0.75387145  0.12339163  0.91524965  1
  O  O244  1  0.74887383  0.37690677  0.16610727  1
  O  O245  1  0.75064315  0.38166479  0.41746683  1
  O  O246  1  0.75284594  0.37061302  0.66809932  1
  O  O247  1  0.75866766  0.36724856  0.91092962  1
  O  O248  1  0.75127109  0.62378694  0.15665073  1
  O  O249  1  0.75060455  0.62481707  0.42281646  1
  O  O250  1  0.75571451  0.63241615  0.66968234  1
  O  O251  1  0.75336081  0.62727437  0.90451693  1
  O  O252  1  0.74980396  0.87359854  0.16763322  1
  O  O253  1  0.74699983  0.86833972  0.41737622  1
  O  O254  1  0.75052370  0.88434140  0.66491366  1
  O  O255  1  0.75832673  0.88311698  0.91003547  1
  O  O256  1  0.12195203  0.12126851  0.06473760  1
  O  O257  1  0.11333076  0.12036769  0.27306275  1
  O  O258  1  0.12373142  0.12220839  0.54210264  1
  O  O259  1  0.12286175  0.11995418  0.80127867  1
  O  O260  1  0.11678348  0.37581715  0.04016760  1
  O  O261  1  0.12909823  0.38431179  0.27905171  1
  O  O262  1  0.12110483  0.37790459  0.53822808  1
  O  O263  1  0.11759498  0.36977312  0.78076291  1
  O  O264  1  0.12265452  0.63172444  0.03052562  1
  O  O265  1  0.12208794  0.62995948  0.30180659  1
  O  O266  1  0.12569093  0.63092748  0.53978789  1
  O  O267  1  0.12566856  0.63160165  0.78069268  1
  O  O268  1  0.12312239  0.87569028  0.05128949  1
  O  O269  1  0.12063861  0.86069089  0.30037478  1
  O  O270  1  0.12435821  0.87317211  0.53252520  1
  O  O271  1  0.12439770  0.88603246  0.79808380  1
  O  O272  1  0.37508055  0.11155045  0.04667256  1
  O  O273  1  0.38174124  0.12996496  0.27501786  1
  O  O274  1  0.37434792  0.12792635  0.54090533  1
  O  O275  1  0.36621332  0.12533479  0.78806988  1
  O  O276  1  0.37525119  0.37394600  0.04714134  1
  O  O277  1  0.37427700  0.38481565  0.28441528  1
  O  O278  1  0.37458584  0.37641856  0.54984440  1
  O  O279  1  0.37498476  0.36043577  0.78084376  1
  O  O280  1  0.37505191  0.62663259  0.04254167  1
  O  O281  1  0.37772124  0.62191110  0.30365114  1
  O  O282  1  0.37668867  0.62187400  0.55179292  1
  O  O283  1  0.37632724  0.62983333  0.77897899  1
  O  O284  1  0.37380699  0.88402715  0.03701672  1
  O  O285  1  0.37581401  0.86043088  0.29432433  1
  O  O286  1  0.37375490  0.88032043  0.52419078  1
  O  O287  1  0.37304953  0.88340931  0.79786818  1
  O  O288  1  0.62609755  0.12479735  0.05059812  1
  O  O289  1  0.63020014  0.13249319  0.29084063  1
  O  O290  1  0.62473482  0.12368986  0.52410527  1
  O  O291  1  0.62522472  0.12070406  0.79745256  1
  O  O292  1  0.63386370  0.37152995  0.02992539  1
  O  O293  1  0.62814101  0.38454165  0.30126890  1
  O  O294  1  0.63125038  0.37753436  0.53704476  1
  O  O295  1  0.63048174  0.36309795  0.78728322  1
  O  O296  1  0.62320366  0.62574898  0.03959607  1
  O  O297  1  0.62404643  0.62439741  0.30305743  1
  O  O298  1  0.62242735  0.63044165  0.54838003  1
  O  O299  1  0.62005460  0.63307333  0.77459400  1
  O  O300  1  0.63215510  0.87440378  0.03123681  1
  O  O301  1  0.62882043  0.86315342  0.29845499  1
  O  O302  1  0.62650061  0.87718132  0.54997911  1
  O  O303  1  0.62350811  0.89218246  0.78702968  1
  O  O304  1  0.87687608  0.12358683  0.05380260  1
  O  O305  1  0.87098776  0.12372557  0.28427834  1
  O  O306  1  0.88006710  0.11995838  0.54205916  1
  O  O307  1  0.87560831  0.12504821  0.79960262  1
  O  O308  1  0.87552243  0.37015435  0.03430576  1
  O  O309  1  0.86842389  0.38542239  0.30110215  1
  O  O310  1  0.87388451  0.37609176  0.53462103  1
  O  O311  1  0.87936507  0.36094839  0.79602520  1
  O  O312  1  0.87582699  0.62554396  0.04112604  1
  O  O313  1  0.87330943  0.62323786  0.30216870  1
  O  O314  1  0.87192320  0.62762480  0.56114055  1
  O  O315  1  0.87806331  0.63670038  0.77288147  1
  O  O316  1  0.87435768  0.88040063  0.03591322  1
  O  O317  1  0.87297051  0.86283855  0.29926136  1
  O  O318  1  0.87377944  0.87708008  0.54792474  1
  O  O319  1  0.88115813  0.88672792  0.79877454  1
