# generated using pymatgen
data_VFe(PbO3)2
_symmetry_space_group_name_H-M   'P 1'
_cell_length_a   15.37811318
_cell_length_b   15.37839339
_cell_length_c   18.54349583
_cell_angle_alpha   90.00197344
_cell_angle_beta   90.05066239
_cell_angle_gamma   90.00143907
_symmetry_Int_Tables_number   1
_chemical_formula_structural   VFe(PbO3)2
_chemical_formula_sum   'V32 Fe32 Pb64 O192'
_cell_volume   4385.36210943
_cell_formula_units_Z   32
loop_
 _symmetry_equiv_pos_site_id
 _symmetry_equiv_pos_as_xyz
  1  'x, y, z'
loop_
 _atom_site_type_symbol
 _atom_site_label
 _atom_site_symmetry_multiplicity
 _atom_site_fract_x
 _atom_site_fract_y
 _atom_site_fract_z
 _atom_site_occupancy
  V  V0  1  0.12273996  0.62510026  0.88963455  1
  V  V1  1  0.36932092  0.62498532  0.88841646  1
  V  V2  1  0.62872445  0.62765518  0.63901043  1
  V  V3  1  0.37507372  0.62457783  0.63684034  1
  V  V4  1  0.37548774  0.12222949  0.64173516  1
  V  V5  1  0.87682236  0.62544162  0.88531992  1
  V  V6  1  0.12473272  0.12414859  0.64255149  1
  V  V7  1  0.87487342  0.12449574  0.64339227  1
  V  V8  1  0.12689786  0.87782441  0.63984137  1
  V  V9  1  0.12461740  0.37350705  0.39102474  1
  V  V10  1  0.12665650  0.37720869  0.88881926  1
  V  V11  1  0.37456147  0.37922667  0.14169663  1
  V  V12  1  0.87021109  0.62227573  0.13977553  1
  V  V13  1  0.62442817  0.87533784  0.13480857  1
  V  V14  1  0.87181225  0.62404047  0.39051064  1
  V  V15  1  0.62759977  0.12499540  0.64209948  1
  V  V16  1  0.62672693  0.37593953  0.13921546  1
  V  V17  1  0.62639715  0.12492419  0.88821527  1
  V  V18  1  0.62519859  0.12696312  0.38738541  1
  V  V19  1  0.87360055  0.12674212  0.13524306  1
  V  V20  1  0.37877936  0.61833874  0.38924755  1
  V  V21  1  0.12523497  0.12263957  0.38518828  1
  V  V22  1  0.12513466  0.37176255  0.14108702  1
  V  V23  1  0.37437748  0.87580235  0.38743144  1
  V  V24  1  0.37760010  0.87237042  0.89596621  1
  V  V25  1  0.12306601  0.62186800  0.14509430  1
  V  V26  1  0.87484871  0.37658923  0.63959510  1
  V  V27  1  0.37301634  0.87648999  0.64217584  1
  V  V28  1  0.12530129  0.87177315  0.89285910  1
  V  V29  1  0.37466807  0.62371697  0.14148072  1
  V  V30  1  0.62573984  0.87558421  0.39000405  1
  V  V31  1  0.37569580  0.37645814  0.88747950  1
  Fe  Fe32  1  0.87497916  0.37302705  0.38338699  1
  Fe  Fe33  1  0.62414266  0.87396110  0.87982701  1
  Fe  Fe34  1  0.62484815  0.62442184  0.88421924  1
  Fe  Fe35  1  0.87278060  0.12581445  0.38553225  1
  Fe  Fe36  1  0.37589597  0.36943372  0.38600592  1
  Fe  Fe37  1  0.12598615  0.62574374  0.62692762  1
  Fe  Fe38  1  0.12717382  0.62552352  0.39299112  1
  Fe  Fe39  1  0.87404013  0.87613701  0.38017119  1
  Fe  Fe40  1  0.87590774  0.87737755  0.64066710  1
  Fe  Fe41  1  0.62130974  0.87827736  0.64702172  1
  Fe  Fe42  1  0.62659536  0.12665348  0.13142776  1
  Fe  Fe43  1  0.37650371  0.87147257  0.13021851  1
  Fe  Fe44  1  0.62272793  0.37347376  0.64506267  1
  Fe  Fe45  1  0.62311625  0.62857485  0.38631262  1
  Fe  Fe46  1  0.87623821  0.12561495  0.88196169  1
  Fe  Fe47  1  0.62477682  0.37679920  0.38560246  1
  Fe  Fe48  1  0.12561644  0.12474844  0.89524771  1
  Fe  Fe49  1  0.87674063  0.62663349  0.63066089  1
  Fe  Fe50  1  0.37391703  0.12494479  0.89537150  1
  Fe  Fe51  1  0.12521584  0.87531569  0.13969022  1
  Fe  Fe52  1  0.12623713  0.37152929  0.63292500  1
  Fe  Fe53  1  0.87706418  0.37637511  0.88370349  1
  Fe  Fe54  1  0.87659899  0.37939812  0.14024006  1
  Fe  Fe55  1  0.87281601  0.87150109  0.13902556  1
  Fe  Fe56  1  0.62407879  0.37592562  0.87764729  1
  Fe  Fe57  1  0.37809185  0.12679301  0.12858373  1
  Fe  Fe58  1  0.37858710  0.12235651  0.38451406  1
  Fe  Fe59  1  0.12408123  0.12783630  0.12836167  1
  Fe  Fe60  1  0.37367226  0.37190477  0.63485071  1
  Fe  Fe61  1  0.87671009  0.87257054  0.88291472  1
  Fe  Fe62  1  0.62288347  0.62361517  0.13635292  1
  Fe  Fe63  1  0.12485401  0.87608875  0.37804358  1
  Pb  Pb64  1  0.00032402  0.00103807  -0.00159762  1
  Pb  Pb65  1  -0.00014165  -0.00415753  0.24278797  1
  Pb  Pb66  1  -0.00923145  -0.00911237  0.49432339  1
  Pb  Pb67  1  0.00197854  0.00981556  0.75685136  1
  Pb  Pb68  1  -0.00147675  0.24703582  -0.00243147  1
  Pb  Pb69  1  -0.01153555  0.24862265  0.25121572  1
  Pb  Pb70  1  0.00240910  0.25076009  0.49774999  1
  Pb  Pb71  1  -0.00653742  0.25104269  0.75591076  1
  Pb  Pb72  1  -0.00764299  0.49616942  0.00210381  1
  Pb  Pb73  1  0.00401393  0.50480204  0.25701300  1
  Pb  Pb74  1  -0.00018947  0.50796967  0.50060287  1
  Pb  Pb75  1  -0.00015138  0.50035743  0.74084348  1
  Pb  Pb76  1  -0.00054161  0.76104659  0.00729596  1
  Pb  Pb77  1  0.00234761  0.75768550  0.25384284  1
  Pb  Pb78  1  -0.00183007  0.75016207  0.49509028  1
  Pb  Pb79  1  -0.00571013  0.75051741  0.74389048  1
  Pb  Pb80  1  0.25014403  -0.00707714  0.00576622  1
  Pb  Pb81  1  0.25227568  0.00356251  0.23495238  1
  Pb  Pb82  1  0.24992671  0.00221798  0.49476763  1
  Pb  Pb83  1  0.24896831  0.01142837  0.76332424  1
  Pb  Pb84  1  0.25011737  0.24103391  0.00234367  1
  Pb  Pb85  1  0.26252899  0.24625307  0.24834625  1
  Pb  Pb86  1  0.25352423  0.25404799  0.50038977  1
  Pb  Pb87  1  0.24941934  0.24105208  0.75363306  1
  Pb  Pb88  1  0.24983352  0.49990858  0.00065785  1
  Pb  Pb89  1  0.24650614  0.50321599  0.25830351  1
  Pb  Pb90  1  0.24501677  0.48953597  0.50399549  1
  Pb  Pb91  1  0.24496641  0.49575581  0.74119995  1
  Pb  Pb92  1  0.24778182  0.75709220  0.00812802  1
  Pb  Pb93  1  0.24356302  0.75338505  0.25164945  1
  Pb  Pb94  1  0.24594870  0.74859668  0.49607430  1
  Pb  Pb95  1  0.25019357  0.75073162  0.74736847  1
  Pb  Pb96  1  0.50180668  0.00816293  0.00244909  1
  Pb  Pb97  1  0.49401136  0.00838107  0.24129701  1
  Pb  Pb98  1  0.50873540  -0.00436828  0.50353315  1
  Pb  Pb99  1  0.49492521  0.00491408  0.75641854  1
  Pb  Pb100  1  0.50509633  0.24159981  0.00214026  1
  Pb  Pb101  1  0.49659804  0.25219854  0.24963931  1
  Pb  Pb102  1  0.49727989  0.25654551  0.50068989  1
  Pb  Pb103  1  0.49756423  0.25166993  0.74983909  1
  Pb  Pb104  1  0.50898820  0.50354676  -0.00232676  1
  Pb  Pb105  1  0.50436274  0.49167441  0.25541010  1
  Pb  Pb106  1  0.50631014  0.48612983  0.50373083  1
  Pb  Pb107  1  0.50463285  0.50174726  0.75064007  1
  Pb  Pb108  1  0.50784214  0.74369554  -0.00188781  1
  Pb  Pb109  1  0.50605555  0.74447644  0.24909406  1
  Pb  Pb110  1  0.50697120  0.75813451  0.50412709  1
  Pb  Pb111  1  0.50602194  0.74853189  0.75396406  1
  Pb  Pb112  1  0.75623322  -0.00656452  -0.00767458  1
  Pb  Pb113  1  0.75895837  -0.00039825  0.24780049  1
  Pb  Pb114  1  0.75332480  -0.00933520  0.50312205  1
  Pb  Pb115  1  0.75388870  -0.00792982  0.75330490  1
  Pb  Pb116  1  0.75409921  0.25564064  -0.00708262  1
  Pb  Pb117  1  0.75683159  0.25145503  0.25100614  1
  Pb  Pb118  1  0.74920237  0.25480954  0.49783274  1
  Pb  Pb119  1  0.75897417  0.25404798  0.75473229  1
  Pb  Pb120  1  0.74954972  0.49503876  -0.00519223  1
  Pb  Pb121  1  0.74111766  0.49399435  0.25473538  1
  Pb  Pb122  1  0.74452780  0.49645142  0.49704144  1
  Pb  Pb123  1  0.74197889  0.50069230  0.75146384  1
  Pb  Pb124  1  0.75147163  0.75331912  -0.00456703  1
  Pb  Pb125  1  0.74720664  0.74811539  0.24948805  1
  Pb  Pb126  1  0.76221474  0.75346251  0.50459444  1
  Pb  Pb127  1  0.75289873  0.75864513  0.75028897  1
  O  O128  1  0.12279708  0.00400388  0.15781054  1
  O  O129  1  0.12645142  0.00513379  0.40808420  1
  O  O130  1  0.12747142  0.00179681  0.67077109  1
  O  O131  1  0.12603388  -0.01072059  0.91439041  1
  O  O132  1  0.12415309  0.25705590  0.16068703  1
  O  O133  1  0.12590374  0.24869978  0.41324760  1
  O  O134  1  0.12624550  0.24102897  0.66262103  1
  O  O135  1  0.12788713  0.26126060  0.91238790  1
  O  O136  1  0.12760537  0.49976765  0.17221617  1
  O  O137  1  0.12803959  0.49250470  0.41305710  1
  O  O138  1  0.12666779  0.49961618  0.65854478  1
  O  O139  1  0.12700026  0.49912948  0.91654960  1
  O  O140  1  0.12641582  0.73884994  0.16497981  1
  O  O141  1  0.12912345  0.75279592  0.41241437  1
  O  O142  1  0.12915781  0.75895400  0.65705215  1
  O  O143  1  0.12570707  0.74890476  0.91784665  1
  O  O144  1  0.37848853  -0.00117158  0.15483061  1
  O  O145  1  0.37802278  -0.00545738  0.41525973  1
  O  O146  1  0.37254041  0.00062153  0.67262758  1
  O  O147  1  0.37145420  -0.00950944  0.91471966  1
  O  O148  1  0.37637421  0.25717286  0.16091041  1
  O  O149  1  0.37696568  0.24409458  0.41699934  1
  O  O150  1  0.37331179  0.24227873  0.66494443  1
  O  O151  1  0.37174006  0.26163041  0.91242904  1
  O  O152  1  0.37184891  0.50243275  0.17053600  1
  O  O153  1  0.37625621  0.50358262  0.40428983  1
  O  O154  1  0.37285455  0.50836258  0.65863284  1
  O  O155  1  0.36902652  0.49782550  0.91495925  1
  O  O156  1  0.37340734  0.74039880  0.16243256  1
  O  O157  1  0.37760072  0.76123230  0.41528489  1
  O  O158  1  0.37210702  0.75026524  0.66650476  1
  O  O159  1  0.37043122  0.74930781  0.91674068  1
  O  O160  1  0.62616205  -0.00732525  0.15674426  1
  O  O161  1  0.62522974  -0.00458336  0.41551164  1
  O  O162  1  0.62310096  0.00967025  0.67020382  1
  O  O163  1  0.62357868  0.00374211  0.90969772  1
  O  O164  1  0.62430027  0.25925540  0.15840016  1
  O  O165  1  0.62419199  0.24301199  0.40847808  1
  O  O166  1  0.62244985  0.24169727  0.66709386  1
  O  O167  1  0.62368601  0.24752432  0.90785739  1
  O  O168  1  0.62322141  0.49672004  0.16611689  1
  O  O169  1  0.62292171  0.50447168  0.41600843  1
  O  O170  1  0.62113119  0.50860662  0.66336556  1
  O  O171  1  0.62236932  0.49953952  0.91279868  1
  O  O172  1  0.62451367  0.75240491  0.16367772  1
  O  O173  1  0.62172756  0.75770945  0.41657668  1
  O  O174  1  0.61918407  0.74377932  0.66433375  1
  O  O175  1  0.62170205  0.74884481  0.91196202  1
  O  O176  1  0.87205462  0.00586958  0.15739241  1
  O  O177  1  0.87151702  0.00119192  0.41440765  1
  O  O178  1  0.87641307  0.00498760  0.66760688  1
  O  O179  1  0.87630941  -0.00103851  0.90951599  1
  O  O180  1  0.87356881  0.24866530  0.16111206  1
  O  O181  1  0.87499960  0.24861756  0.41946269  1
  O  O182  1  0.87627039  0.25045039  0.66656968  1
  O  O183  1  0.87516047  0.25101623  0.91336002  1
  O  O184  1  0.87835670  0.50801830  0.16957261  1
  O  O185  1  0.87483615  0.50348726  0.41126005  1
  O  O186  1  0.87583863  0.49506474  0.65822983  1
  O  O187  1  0.88015126  0.50647986  0.91212391  1
  O  O188  1  0.87710309  0.73778294  0.16572587  1
  O  O189  1  0.87378429  0.74717360  0.41179041  1
  O  O190  1  0.87629174  0.75036413  0.66318413  1
  O  O191  1  0.87960357  0.74142424  0.91178878  1
  O  O192  1  -0.00816109  0.12833359  0.15834522  1
  O  O193  1  0.00828273  0.12625315  0.41217908  1
  O  O194  1  0.00491388  0.12269676  0.66493990  1
  O  O195  1  0.00001890  0.12539305  0.91562829  1
  O  O196  1  0.00813609  0.38062297  0.16565111  1
  O  O197  1  0.00516581  0.37294850  0.41292032  1
  O  O198  1  -0.00413724  0.37154998  0.66105117  1
  O  O199  1  0.00852769  0.37910532  0.91186732  1
  O  O200  1  0.00444240  0.62078332  0.16583947  1
  O  O201  1  -0.00516727  0.62436600  0.41250337  1
  O  O202  1  0.00246438  0.62576248  0.65991256  1
  O  O203  1  0.00110900  0.62381735  0.91577536  1
  O  O204  1  -0.00212909  0.87050341  0.16411034  1
  O  O205  1  -0.00008754  0.87634941  0.40819611  1
  O  O206  1  0.01118449  0.88012356  0.66232343  1
  O  O207  1  0.00565871  0.86965131  0.91379246  1
  O  O208  1  0.25169531  0.12963837  0.15267644  1
  O  O209  1  0.24382795  0.12457400  0.41182718  1
  O  O210  1  0.24724509  0.12179359  0.66797707  1
  O  O211  1  0.25031649  0.12478321  0.92045799  1
  O  O212  1  0.24531107  0.37822678  0.16686032  1
  O  O213  1  0.24640693  0.37131968  0.41335654  1
  O  O214  1  0.25030190  0.37201060  0.66670628  1
  O  O215  1  0.24797911  0.37941664  0.91621244  1
  O  O216  1  0.25016940  0.62083450  0.16841827  1
  O  O217  1  0.26276420  0.62943477  0.41582067  1
  O  O218  1  0.25453591  0.62920335  0.65977502  1
  O  O219  1  0.24752551  0.62428025  0.91968931  1
  O  O220  1  0.25262001  0.87069317  0.16310601  1
  O  O221  1  0.25623428  0.87905499  0.40811858  1
  O  O222  1  0.24731272  0.87860583  0.67158533  1
  O  O223  1  0.24640963  0.86995173  0.91818189  1
  O  O224  1  0.50320339  0.12782723  0.16201457  1
  O  O225  1  0.50959775  0.11871527  0.41432787  1
  O  O226  1  0.50026268  0.12295723  0.66762738  1
  O  O227  1  0.50441347  0.12551629  0.91289305  1
  O  O228  1  0.50122750  0.37975364  0.16318465  1
  O  O229  1  0.50081942  0.37350445  0.41691797  1
  O  O230  1  0.49576898  0.37446090  0.66794832  1
  O  O231  1  0.49203844  0.37964567  0.90490530  1
  O  O232  1  0.49199971  0.62183391  0.16345657  1
  O  O233  1  0.49191429  0.63234866  0.41660411  1
  O  O234  1  0.49389061  0.62808141  0.66328214  1
  O  O235  1  0.49028197  0.62354500  0.91265522  1
  O  O236  1  0.50642695  0.87078613  0.15883407  1
  O  O237  1  0.50148977  0.87808275  0.41551703  1
  O  O238  1  0.49129658  0.87671133  0.67029166  1
  O  O239  1  0.49456166  0.87198786  0.90919764  1
  O  O240  1  0.75388251  0.12759725  0.16036064  1
  O  O241  1  0.74066631  0.12192528  0.41607853  1
  O  O242  1  0.74672705  0.12651781  0.66398955  1
  O  O243  1  0.74492679  0.12560976  0.90969740  1
  O  O244  1  0.74485500  0.37995027  0.16167474  1
  O  O245  1  0.74992957  0.37440210  0.41585470  1
  O  O246  1  0.75624700  0.37318116  0.66326238  1
  O  O247  1  0.74934688  0.37855199  0.90940571  1
  O  O248  1  0.75382602  0.62311438  0.15883390  1
  O  O249  1  0.75331932  0.62762007  0.41337648  1
  O  O250  1  0.74492124  0.62493938  0.65689019  1
  O  O251  1  0.75961273  0.62358631  0.90595918  1
  O  O252  1  0.74291420  0.87092577  0.16356910  1
  O  O253  1  0.74384930  0.87450547  0.41208456  1
  O  O254  1  0.74842379  0.87710955  0.66638594  1
  O  O255  1  0.74981990  0.87096864  0.91053444  1
  O  O256  1  0.11958979  0.13154426  0.02787944  1
  O  O257  1  0.12480036  0.12655236  0.29464610  1
  O  O258  1  0.12683461  0.11849371  0.55219206  1
  O  O259  1  0.12939919  0.12105810  0.79324837  1
  O  O260  1  0.12654532  0.37812385  0.05029531  1
  O  O261  1  0.12511538  0.37222303  0.30015587  1
  O  O262  1  0.13240546  0.37198507  0.53338942  1
  O  O263  1  0.12882411  0.37963493  0.79775134  1
  O  O264  1  0.12558412  0.61772628  0.05455820  1
  O  O265  1  0.12918616  0.61809523  0.29237226  1
  O  O266  1  0.12673119  0.62296497  0.52614430  1
  O  O267  1  0.12456588  0.62580115  0.79893119  1
  O  O268  1  0.12501425  0.86587642  0.03843077  1
  O  O269  1  0.12361425  0.86990189  0.27776735  1
  O  O270  1  0.13253444  0.88588144  0.54932205  1
  O  O271  1  0.12785550  0.86929381  0.80210079  1
  O  O272  1  0.38722027  0.13027697  0.02645093  1
  O  O273  1  0.37963053  0.12652157  0.28488030  1
  O  O274  1  0.37377847  0.11751047  0.55090704  1
  O  O275  1  0.36974521  0.12226342  0.79393711  1
  O  O276  1  0.37244110  0.38310640  0.05097723  1
  O  O277  1  0.37787842  0.36518632  0.28544215  1
  O  O278  1  0.37394582  0.37113622  0.53413379  1
  O  O279  1  0.36900220  0.37766300  0.79661364  1
  O  O280  1  0.37112751  0.61878564  0.05083000  1
  O  O281  1  0.37843816  0.62892842  0.29830831  1
  O  O282  1  0.37669831  0.62797873  0.54651852  1
  O  O283  1  0.36737858  0.62576810  0.79756033  1
  O  O284  1  0.36813453  0.87030150  0.03054877  1
  O  O285  1  0.37916762  0.87490946  0.29678672  1
  O  O286  1  0.37092293  0.87913841  0.55135634  1
  O  O287  1  0.36858226  0.86925021  0.80499881  1
  O  O288  1  0.61747442  0.12742661  0.03198499  1
  O  O289  1  0.62616085  0.12224058  0.29635327  1
  O  O290  1  0.62438648  0.12286517  0.55129816  1
  O  O291  1  0.62351757  0.12476207  0.79733671  1
  O  O292  1  0.62477284  0.38136404  0.04784119  1
  O  O293  1  0.62394599  0.38317194  0.28534885  1
  O  O294  1  0.61999551  0.37769381  0.54407422  1
  O  O295  1  0.62662987  0.38352478  0.77668497  1
  O  O296  1  0.61577560  0.62379917  0.03655831  1
  O  O297  1  0.62191544  0.63133522  0.28620157  1
  O  O298  1  0.62204509  0.62960725  0.54798424  1
  O  O299  1  0.62202452  0.62033825  0.78397793  1
  O  O300  1  0.62727507  0.87069871  0.04360768  1
  O  O301  1  0.62340793  0.87531463  0.29948426  1
  O  O302  1  0.61653680  0.87977406  0.54589535  1
  O  O303  1  0.62393792  0.87158837  0.77923292  1
  O  O304  1  0.87274870  0.12849344  0.04404021  1
  O  O305  1  0.87100370  0.13123260  0.28572990  1
  O  O306  1  0.87562381  0.12604445  0.55240449  1
  O  O307  1  0.88165480  0.13226762  0.78123153  1
  O  O308  1  0.87632827  0.38539878  0.04031131  1
  O  O309  1  0.87336779  0.36568089  0.28287891  1
  O  O310  1  0.87459922  0.37118553  0.54867805  1
  O  O311  1  0.87941399  0.37046333  0.78387929  1
  O  O312  1  0.87725116  0.62074249  0.04878318  1
  O  O313  1  0.87265770  0.62490414  0.29941437  1
  O  O314  1  0.87758272  0.63005299  0.53122531  1
  O  O315  1  0.88168161  0.62487130  0.79413458  1
  O  O316  1  0.87206845  0.86562433  0.03834450  1
  O  O317  1  0.86943202  0.87764511  0.27958861  1
  O  O318  1  0.87258826  0.87877564  0.53903275  1
  O  O319  1  0.87473314  0.86857767  0.78225279  1
