# generated using pymatgen
data_VFe(PbO3)2
_symmetry_space_group_name_H-M   'P 1'
_cell_length_a   15.39159459
_cell_length_b   15.38552510
_cell_length_c   18.51989522
_cell_angle_alpha   90.01109975
_cell_angle_beta   89.94877858
_cell_angle_gamma   90.01935686
_symmetry_Int_Tables_number   1
_chemical_formula_structural   VFe(PbO3)2
_chemical_formula_sum   'V32 Fe32 Pb64 O192'
_cell_volume   4385.65290820
_cell_formula_units_Z   32
loop_
 _symmetry_equiv_pos_site_id
 _symmetry_equiv_pos_as_xyz
  1  'x, y, z'
loop_
 _atom_site_type_symbol
 _atom_site_label
 _atom_site_symmetry_multiplicity
 _atom_site_fract_x
 _atom_site_fract_y
 _atom_site_fract_z
 _atom_site_occupancy
  V  V0  1  0.37351200  0.37469459  0.64146261  1
  V  V1  1  0.62032050  0.62902174  0.13661428  1
  V  V2  1  0.62898067  0.62524963  0.63973837  1
  V  V3  1  0.62170188  0.12406120  0.14231326  1
  V  V4  1  0.62264206  0.38091835  0.88964597  1
  V  V5  1  0.37600022  0.12306923  0.89204858  1
  V  V6  1  0.62550236  0.12816014  0.89109753  1
  V  V7  1  0.87576525  0.87439845  0.64096739  1
  V  V8  1  0.62678250  0.37644376  0.63663078  1
  V  V9  1  0.37387498  0.37353991  0.39313404  1
  V  V10  1  0.37043760  0.12105494  0.39008438  1
  V  V11  1  0.12008467  0.12649545  0.89607907  1
  V  V12  1  0.37552708  0.87583452  0.88622238  1
  V  V13  1  0.12444962  0.12463505  0.64163082  1
  V  V14  1  0.37542333  0.37122873  0.88633274  1
  V  V15  1  0.87472807  0.87461894  0.89987116  1
  V  V16  1  0.87706627  0.62658310  0.64294293  1
  V  V17  1  0.62531327  0.88004300  0.89527899  1
  V  V18  1  0.87811996  0.12442803  0.63866388  1
  V  V19  1  0.37810681  0.87522683  0.13644483  1
  V  V20  1  0.12277754  0.37551514  0.13408958  1
  V  V21  1  0.62440148  0.62352041  0.38846434  1
  V  V22  1  0.37415081  0.12542580  0.63584928  1
  V  V23  1  0.37368280  0.62378217  0.39297645  1
  V  V24  1  0.12111324  0.12669637  0.38581042  1
  V  V25  1  0.87269042  0.12354101  0.38311332  1
  V  V26  1  0.62343991  0.87346771  0.38945213  1
  V  V27  1  0.12347995  0.62300597  0.38700995  1
  V  V28  1  0.37410235  0.37446195  0.13798034  1
  V  V29  1  0.62483234  0.63224759  0.88914187  1
  V  V30  1  0.87139611  0.12352065  0.89652411  1
  V  V31  1  0.62251209  0.37734659  0.14203577  1
  Fe  Fe32  1  0.62054817  0.87484679  0.13070467  1
  Fe  Fe33  1  0.87176811  0.37256317  0.88742105  1
  Fe  Fe34  1  0.12735293  0.87420926  0.12494890  1
  Fe  Fe35  1  0.62119281  0.12501915  0.39007376  1
  Fe  Fe36  1  0.87600392  0.62684487  0.37959571  1
  Fe  Fe37  1  0.12471887  0.37099162  0.88158842  1
  Fe  Fe38  1  0.37468972  0.12707229  0.13577943  1
  Fe  Fe39  1  0.62317854  0.37720473  0.38543246  1
  Fe  Fe40  1  0.87621183  0.62229406  0.13324007  1
  Fe  Fe41  1  0.87611507  0.87427509  0.37963007  1
  Fe  Fe42  1  0.38086745  0.62573137  0.88101773  1
  Fe  Fe43  1  0.37554865  0.87767237  0.63226667  1
  Fe  Fe44  1  0.87159239  0.37247930  0.13716447  1
  Fe  Fe45  1  0.12840217  0.12605696  0.13152312  1
  Fe  Fe46  1  0.87119910  0.87584482  0.13255418  1
  Fe  Fe47  1  0.87792096  0.37610400  0.38223968  1
  Fe  Fe48  1  0.12322777  0.37493548  0.64535104  1
  Fe  Fe49  1  0.87613421  0.12792778  0.13250048  1
  Fe  Fe50  1  0.12571781  0.87742828  0.89756700  1
  Fe  Fe51  1  0.37679274  0.62474814  0.64166694  1
  Fe  Fe52  1  0.37353373  0.87185294  0.39201991  1
  Fe  Fe53  1  0.12833399  0.37653383  0.38615282  1
  Fe  Fe54  1  0.12217277  0.87651282  0.63843045  1
  Fe  Fe55  1  0.62899271  0.87546884  0.63434062  1
  Fe  Fe56  1  0.12644598  0.62327335  0.88785807  1
  Fe  Fe57  1  0.12760094  0.87343689  0.38167538  1
  Fe  Fe58  1  0.62855363  0.12640955  0.62900770  1
  Fe  Fe59  1  0.12324310  0.62702339  0.63950686  1
  Fe  Fe60  1  0.37663435  0.62198052  0.13462004  1
  Fe  Fe61  1  0.12956452  0.62296635  0.12809015  1
  Fe  Fe62  1  0.87488942  0.37681806  0.63970904  1
  Fe  Fe63  1  0.87061219  0.62493533  0.89247738  1
  Pb  Pb64  1  -0.00077809  -0.00627302  0.00976720  1
  Pb  Pb65  1  0.00237991  -0.00611545  0.23587737  1
  Pb  Pb66  1  0.00454733  -0.00780342  0.49400186  1
  Pb  Pb67  1  0.00321429  -0.00450446  0.75842755  1
  Pb  Pb68  1  -0.00815981  0.25222480  0.00137071  1
  Pb  Pb69  1  -0.00563437  0.25317360  0.24471691  1
  Pb  Pb70  1  -0.00015198  0.26585709  0.50466417  1
  Pb  Pb71  1  -0.00439347  0.25995940  0.75511428  1
  Pb  Pb72  1  0.00177073  0.49807752  -0.01050775  1
  Pb  Pb73  1  -0.00730233  0.50103087  0.24501403  1
  Pb  Pb74  1  -0.00118002  0.49393436  0.50010471  1
  Pb  Pb75  1  0.00613834  0.50088355  0.75481770  1
  Pb  Pb76  1  0.00565483  0.73770419  0.00092438  1
  Pb  Pb77  1  0.00207282  0.75309931  0.23382355  1
  Pb  Pb78  1  0.00610585  0.75139058  0.49404029  1
  Pb  Pb79  1  0.01520394  0.74878684  0.76184368  1
  Pb  Pb80  1  0.24519309  0.00405447  0.00522342  1
  Pb  Pb81  1  0.24521071  -0.00729709  0.24521481  1
  Pb  Pb82  1  0.24684382  -0.01259892  0.50134153  1
  Pb  Pb83  1  0.24514795  -0.00925545  0.75164944  1
  Pb  Pb84  1  0.25076228  0.24098854  0.00361315  1
  Pb  Pb85  1  0.24486689  0.25236553  0.24846743  1
  Pb  Pb86  1  0.24263973  0.25660124  0.50348085  1
  Pb  Pb87  1  0.24428417  0.25173888  0.75380107  1
  Pb  Pb88  1  0.25068498  0.50978496  -0.00545108  1
  Pb  Pb89  1  0.24451102  0.49891624  0.24788154  1
  Pb  Pb90  1  0.24258185  0.51183055  0.50931435  1
  Pb  Pb91  1  0.24098859  0.51391186  0.75354381  1
  Pb  Pb92  1  0.24427089  0.74284417  -0.00403754  1
  Pb  Pb93  1  0.24629903  0.75470034  0.24398975  1
  Pb  Pb94  1  0.24421112  0.74722542  0.50430452  1
  Pb  Pb95  1  0.24866503  0.74945973  0.74515910  1
  Pb  Pb96  1  0.50014076  -0.00103570  0.00295709  1
  Pb  Pb97  1  0.49842683  0.00390265  0.25259502  1
  Pb  Pb98  1  0.50145542  -0.00952055  0.50371708  1
  Pb  Pb99  1  0.50303045  0.00075970  0.74136369  1
  Pb  Pb100  1  0.49721593  0.24484968  0.00426279  1
  Pb  Pb101  1  0.50727165  0.24928195  0.25764610  1
  Pb  Pb102  1  0.50411089  0.24601846  0.49886091  1
  Pb  Pb103  1  0.50319269  0.24831290  0.74451476  1
  Pb  Pb104  1  0.49557132  0.50509815  0.00189022  1
  Pb  Pb105  1  0.50356297  0.49542871  0.25220828  1
  Pb  Pb106  1  0.49282034  0.50660996  0.50395546  1
  Pb  Pb107  1  0.49911726  0.50444394  0.75143028  1
  Pb  Pb108  1  0.49940160  0.75398021  0.00025024  1
  Pb  Pb109  1  0.48935901  0.75930451  0.25376321  1
  Pb  Pb110  1  0.49154824  0.75037297  0.50610892  1
  Pb  Pb111  1  0.49577046  0.75338408  0.74469182  1
  Pb  Pb112  1  0.75278400  -0.00302124  0.00849443  1
  Pb  Pb113  1  0.75497570  -0.00638270  0.24532272  1
  Pb  Pb114  1  0.74165517  -0.00012449  0.49920499  1
  Pb  Pb115  1  0.74908689  0.00285482  0.74756228  1
  Pb  Pb116  1  0.75649179  0.25037486  0.00771371  1
  Pb  Pb117  1  0.74231654  0.25055335  0.25251231  1
  Pb  Pb118  1  0.74966882  0.25009178  0.49319497  1
  Pb  Pb119  1  0.75380851  0.25613499  0.74900128  1
  Pb  Pb120  1  0.76412574  0.49817849  0.00711151  1
  Pb  Pb121  1  0.75970436  0.49963975  0.25167165  1
  Pb  Pb122  1  0.76027196  0.49259633  0.49485213  1
  Pb  Pb123  1  0.76087868  0.50142753  0.75603305  1
  Pb  Pb124  1  0.75914637  0.75170390  0.01118450  1
  Pb  Pb125  1  0.76155111  0.75209114  0.24568857  1
  Pb  Pb126  1  0.74950417  0.75369028  0.49465574  1
  Pb  Pb127  1  0.75681182  0.74583830  0.75582232  1
  O  O128  1  0.13091462  -0.00135170  0.15705850  1
  O  O129  1  0.13116177  0.00994892  0.41081216  1
  O  O130  1  0.12043865  0.00699858  0.66973608  1
  O  O131  1  0.12700525  0.00917636  0.91806899  1
  O  O132  1  0.13017681  0.25918098  0.16095273  1
  O  O133  1  0.12871650  0.24290629  0.41504484  1
  O  O134  1  0.12269310  0.23956806  0.66883229  1
  O  O135  1  0.12878854  0.24446957  0.91571887  1
  O  O136  1  0.13043254  0.49131505  0.15929387  1
  O  O137  1  0.12883420  0.50593859  0.41406856  1
  O  O138  1  0.12208175  0.50099225  0.66746586  1
  O  O139  1  0.12758427  0.49449732  0.90822841  1
  O  O140  1  0.13001769  0.74999676  0.15359045  1
  O  O141  1  0.12891171  0.74252388  0.41128399  1
  O  O142  1  0.12096831  0.75293732  0.66929840  1
  O  O143  1  0.12725668  0.75087662  0.91320765  1
  O  O144  1  0.37798762  -0.00543928  0.16005585  1
  O  O145  1  0.37356769  0.00620536  0.41164911  1
  O  O146  1  0.37440828  0.00712293  0.66445559  1
  O  O147  1  0.37980025  -0.00093907  0.91505744  1
  O  O148  1  0.37699807  0.25917133  0.16416484  1
  O  O149  1  0.37383893  0.25416781  0.41479743  1
  O  O150  1  0.37585995  0.25017208  0.66729465  1
  O  O151  1  0.38227548  0.25164612  0.91622278  1
  O  O152  1  0.37861006  0.49033107  0.16656204  1
  O  O153  1  0.37521275  0.49838903  0.41956368  1
  O  O154  1  0.37959678  0.48994121  0.66481787  1
  O  O155  1  0.38577979  0.48829761  0.90655053  1
  O  O156  1  0.38019333  0.75393462  0.15990035  1
  O  O157  1  0.37654681  0.74325696  0.41932811  1
  O  O158  1  0.37953421  0.75221883  0.66179973  1
  O  O159  1  0.38273659  0.75787660  0.90525996  1
  O  O160  1  0.61914806  0.00628118  0.16150598  1
  O  O161  1  0.62351406  -0.00609790  0.40968921  1
  O  O162  1  0.62983468  0.00328960  0.66411364  1
  O  O163  1  0.62188629  0.00544084  0.91702494  1
  O  O164  1  0.61813679  0.25095026  0.16638347  1
  O  O165  1  0.62232259  0.25196042  0.41676544  1
  O  O166  1  0.62717746  0.25323768  0.66050002  1
  O  O167  1  0.62295498  0.24279728  0.91528544  1
  O  O168  1  0.62000600  0.49441785  0.16311222  1
  O  O169  1  0.62175979  0.50685411  0.41131719  1
  O  O170  1  0.62928052  0.50263445  0.66649566  1
  O  O171  1  0.61940014  0.49625377  0.90532741  1
  O  O172  1  0.61847903  0.74393227  0.15338895  1
  O  O173  1  0.62273642  0.74950497  0.41521675  1
  O  O174  1  0.62853524  0.74396322  0.66191399  1
  O  O175  1  0.62049726  0.74878660  0.91230242  1
  O  O176  1  0.87006513  0.00331833  0.15947709  1
  O  O177  1  0.87702593  0.00680688  0.40983546  1
  O  O178  1  0.87576150  -0.00006073  0.66635783  1
  O  O179  1  0.87201830  0.00041181  0.92171464  1
  O  O180  1  0.87201355  0.24960257  0.16708187  1
  O  O181  1  0.87944383  0.24004214  0.40965177  1
  O  O182  1  0.87612708  0.24148300  0.66190006  1
  O  O183  1  0.86867076  0.24535226  0.91703970  1
  O  O184  1  0.86998373  0.49754978  0.16119306  1
  O  O185  1  0.87690094  0.50379458  0.41373222  1
  O  O186  1  0.87131436  0.50884886  0.66450514  1
  O  O187  1  0.86689517  0.49729105  0.91334507  1
  O  O188  1  0.86941533  0.74786897  0.15605881  1
  O  O189  1  0.87402822  0.75001693  0.41230017  1
  O  O190  1  0.87094774  0.75324060  0.66460150  1
  O  O191  1  0.86754042  0.75655826  0.91675479  1
  O  O192  1  0.00298713  0.12777643  0.15838212  1
  O  O193  1  0.00552398  0.12267484  0.40437040  1
  O  O194  1  -0.00226479  0.12265186  0.66702263  1
  O  O195  1  0.00142563  0.12572278  0.91534012  1
  O  O196  1  0.00608385  0.37452217  0.15259092  1
  O  O197  1  0.00305243  0.37432787  0.41556299  1
  O  O198  1  -0.00319646  0.37312361  0.66999876  1
  O  O199  1  -0.00124937  0.36886194  0.90892960  1
  O  O200  1  0.00337816  0.62162770  0.15415729  1
  O  O201  1  0.00738914  0.62572011  0.40565871  1
  O  O202  1  -0.00943449  0.62897035  0.66643621  1
  O  O203  1  -0.00256261  0.62589753  0.91173074  1
  O  O204  1  0.00011365  0.87582163  0.14991677  1
  O  O205  1  0.00218890  0.87690656  0.41029384  1
  O  O206  1  -0.00974624  0.87682646  0.66986788  1
  O  O207  1  -0.00826855  0.87868667  0.91806633  1
  O  O208  1  0.25239605  0.12899684  0.16565675  1
  O  O209  1  0.25392679  0.12945057  0.41483124  1
  O  O210  1  0.24430270  0.12469046  0.66470895  1
  O  O211  1  0.25345732  0.12664229  0.91433075  1
  O  O212  1  0.25485099  0.37539102  0.15912822  1
  O  O213  1  0.25619323  0.37621917  0.42008521  1
  O  O214  1  0.25784548  0.37003821  0.66495064  1
  O  O215  1  0.26133899  0.36904322  0.90386443  1
  O  O216  1  0.25348785  0.62027399  0.16273793  1
  O  O217  1  0.24946116  0.62329484  0.41797042  1
  O  O218  1  0.25127491  0.62441186  0.66506037  1
  O  O219  1  0.25790894  0.62245133  0.90715061  1
  O  O220  1  0.26000958  0.87349664  0.15634643  1
  O  O221  1  0.24872450  0.87455671  0.41734811  1
  O  O222  1  0.24930662  0.87969650  0.66368489  1
  O  O223  1  0.26176270  0.87910034  0.90881047  1
  O  O224  1  0.50103583  0.12725008  0.16852246  1
  O  O225  1  0.48899353  0.12782816  0.41568652  1
  O  O226  1  0.49813920  0.12740875  0.65722848  1
  O  O227  1  0.50360971  0.12471046  0.91631409  1
  O  O228  1  0.49920914  0.37417678  0.16533401  1
  O  O229  1  0.49161968  0.37682681  0.41766624  1
  O  O230  1  0.50022889  0.37215136  0.66503423  1
  O  O231  1  0.50556834  0.36803528  0.91790882  1
  O  O232  1  0.50473307  0.61799454  0.16647262  1
  O  O233  1  0.50279818  0.62542269  0.41808592  1
  O  O234  1  0.51110829  0.62189429  0.66314171  1
  O  O235  1  0.50679258  0.62272898  0.91544846  1
  O  O236  1  0.49678221  0.87566912  0.16699223  1
  O  O237  1  0.50530813  0.87347752  0.41577896  1
  O  O238  1  0.50312743  0.87888440  0.66269937  1
  O  O239  1  0.49778930  0.87896021  0.91651635  1
  O  O240  1  0.73818097  0.12956553  0.16324094  1
  O  O241  1  0.75561566  0.12516025  0.40602779  1
  O  O242  1  0.75924630  0.12338024  0.66182915  1
  O  O243  1  0.74302282  0.12185987  0.91585917  1
  O  O244  1  0.73896854  0.37104538  0.16238319  1
  O  O245  1  0.75096824  0.37488162  0.41096774  1
  O  O246  1  0.74725191  0.37477236  0.66540375  1
  O  O247  1  0.73585810  0.36967467  0.91541489  1
  O  O248  1  0.73504469  0.61931498  0.16097433  1
  O  O249  1  0.74096817  0.62693128  0.40993180  1
  O  O250  1  0.74985271  0.62738788  0.66830772  1
  O  O251  1  0.73618185  0.62399274  0.91752885  1
  O  O252  1  0.74266813  0.87550958  0.16025557  1
  O  O253  1  0.74406515  0.87405258  0.41016465  1
  O  O254  1  0.75788067  0.87720234  0.66729247  1
  O  O255  1  0.74803290  0.87948562  0.91894269  1
  O  O256  1  0.13656527  0.12758832  0.03089545  1
  O  O257  1  0.12872158  0.12963593  0.29495554  1
  O  O258  1  0.12276563  0.12436691  0.55109179  1
  O  O259  1  0.12287969  0.12541653  0.80467454  1
  O  O260  1  0.12910008  0.37432015  0.04310317  1
  O  O261  1  0.13247227  0.37616964  0.28713062  1
  O  O262  1  0.12229205  0.36605322  0.54400804  1
  O  O263  1  0.12650575  0.36438747  0.78044124  1
  O  O264  1  0.13503037  0.62217958  0.02624368  1
  O  O265  1  0.13063718  0.62076583  0.29605758  1
  O  O266  1  0.12793346  0.62865741  0.53887153  1
  O  O267  1  0.12271210  0.62482673  0.78514647  1
  O  O268  1  0.13146139  0.88150662  0.02282792  1
  O  O269  1  0.13385278  0.87344324  0.28169419  1
  O  O270  1  0.11923308  0.88042157  0.53823710  1
  O  O271  1  0.11852229  0.88492343  0.79549413  1
  O  O272  1  0.37659604  0.13217200  0.03543873  1
  O  O273  1  0.37180554  0.12349055  0.29882255  1
  O  O274  1  0.37022455  0.12636906  0.54518347  1
  O  O275  1  0.37739967  0.12537231  0.80120804  1
  O  O276  1  0.37734387  0.37665108  0.04667988  1
  O  O277  1  0.37290159  0.37630338  0.30232016  1
  O  O278  1  0.37495110  0.37302230  0.55069442  1
  O  O279  1  0.38421773  0.36592375  0.79555501  1
  O  O280  1  0.38014644  0.61529859  0.03444409  1
  O  O281  1  0.37467959  0.62314505  0.30199867  1
  O  O282  1  0.38017842  0.61835218  0.54070315  1
  O  O283  1  0.38719527  0.62091970  0.78050505  1
  O  O284  1  0.38324541  0.87447935  0.04515138  1
  O  O285  1  0.37908271  0.86760846  0.29183868  1
  O  O286  1  0.38104114  0.88013253  0.53119195  1
  O  O287  1  0.37968228  0.88166673  0.79502961  1
  O  O288  1  0.61878975  0.12772636  0.05093078  1
  O  O289  1  0.61591710  0.13073269  0.28996760  1
  O  O290  1  0.63180614  0.12271887  0.52866092  1
  O  O291  1  0.62589485  0.12723361  0.79996895  1
  O  O292  1  0.62070571  0.37533843  0.05093438  1
  O  O293  1  0.61742019  0.37285681  0.28572365  1
  O  O294  1  0.62606955  0.37839906  0.54546979  1
  O  O295  1  0.62239581  0.37087361  0.79861651  1
  O  O296  1  0.61776351  0.62033635  0.04521760  1
  O  O297  1  0.61971008  0.62695264  0.29806312  1
  O  O298  1  0.63208139  0.62201594  0.54920512  1
  O  O299  1  0.62626089  0.63027261  0.79783449  1
  O  O300  1  0.61471738  0.87676292  0.03068236  1
  O  O301  1  0.62034357  0.86939650  0.29845426  1
  O  O302  1  0.63100975  0.88076437  0.53478181  1
  O  O303  1  0.62587922  0.87799704  0.80411218  1
  O  O304  1  0.86903131  0.13213278  0.03166935  1
  O  O305  1  0.87532934  0.12399318  0.29207623  1
  O  O306  1  0.88022997  0.12230314  0.54817251  1
  O  O307  1  0.87240370  0.12260673  0.80518870  1
  O  O308  1  0.86566582  0.36891439  0.03530765  1
  O  O309  1  0.87981569  0.37993066  0.28165241  1
  O  O310  1  0.88079314  0.37872326  0.53889215  1
  O  O311  1  0.86498762  0.36964933  0.78589698  1
  O  O312  1  0.86383506  0.62465376  0.03087320  1
  O  O313  1  0.87045072  0.62028430  0.27922311  1
  O  O314  1  0.87534306  0.62836019  0.55225170  1
  O  O315  1  0.86075052  0.62922188  0.79160400  1
  O  O316  1  0.86549947  0.87844097  0.03063815  1
  O  O317  1  0.86934890  0.87337284  0.27960406  1
  O  O318  1  0.87712000  0.87678900  0.55017462  1
  O  O319  1  0.87208031  0.87927426  0.80858944  1
