# generated using pymatgen
data_VFe(PbO3)2
_symmetry_space_group_name_H-M   'P 1'
_cell_length_a   15.37733116
_cell_length_b   15.37972874
_cell_length_c   18.53635026
_cell_angle_alpha   90.00694241
_cell_angle_beta   90.02140349
_cell_angle_gamma   90.00219061
_symmetry_Int_Tables_number   1
_chemical_formula_structural   VFe(PbO3)2
_chemical_formula_sum   'V32 Fe32 Pb64 O192'
_cell_volume   4383.83133248
_cell_formula_units_Z   32
loop_
 _symmetry_equiv_pos_site_id
 _symmetry_equiv_pos_as_xyz
  1  'x, y, z'
loop_
 _atom_site_type_symbol
 _atom_site_label
 _atom_site_symmetry_multiplicity
 _atom_site_fract_x
 _atom_site_fract_y
 _atom_site_fract_z
 _atom_site_occupancy
  V  V0  1  0.62405845  0.62537801  0.14189155  1
  V  V1  1  0.87433433  0.88688786  0.89036496  1
  V  V2  1  0.12399739  0.87591066  0.63995386  1
  V  V3  1  0.87404178  0.87710978  0.13906069  1
  V  V4  1  0.87239898  0.62786713  0.89051024  1
  V  V5  1  0.12305550  0.37292468  0.63902000  1
  V  V6  1  0.13015434  0.37595048  0.13765980  1
  V  V7  1  0.62801263  0.37385297  0.88686620  1
  V  V8  1  0.87482143  0.62369027  0.38856740  1
  V  V9  1  0.87824395  0.37650002  0.89280586  1
  V  V10  1  0.62928276  0.87682714  0.64103085  1
  V  V11  1  0.12668802  0.37490548  0.88402975  1
  V  V12  1  0.87447015  0.62908608  0.64031692  1
  V  V13  1  0.37490220  0.12879946  0.13710573  1
  V  V14  1  0.62355114  0.37640018  0.39319745  1
  V  V15  1  0.37443232  0.62082718  0.13505781  1
  V  V16  1  0.87529539  0.37550197  0.63842765  1
  V  V17  1  0.37552559  0.62447204  0.39320170  1
  V  V18  1  0.62630750  0.12446843  0.63578168  1
  V  V19  1  0.87398512  0.62443901  0.14013733  1
  V  V20  1  0.87401784  0.12202825  0.64099427  1
  V  V21  1  0.62368914  0.12539905  0.88958157  1
  V  V22  1  0.37543739  0.87784582  0.88679024  1
  V  V23  1  0.62641513  0.62456949  0.64081755  1
  V  V24  1  0.12589169  0.37618958  0.39049849  1
  V  V25  1  0.87480901  0.12608637  0.38408231  1
  V  V26  1  0.12526309  0.87170777  0.38598839  1
  V  V27  1  0.87473627  0.37796708  0.14440753  1
  V  V28  1  0.87675473  0.87524537  0.63857226  1
  V  V29  1  0.37240099  0.37577159  0.39681861  1
  V  V30  1  0.62130875  0.37567626  0.14172108  1
  V  V31  1  0.62403555  0.87169994  0.38614924  1
  Fe  Fe32  1  0.87807763  0.87324100  0.38224705  1
  Fe  Fe33  1  0.37811131  0.37447358  0.63323984  1
  Fe  Fe34  1  0.37630434  0.87309877  0.13149597  1
  Fe  Fe35  1  0.62600061  0.62378907  0.88210979  1
  Fe  Fe36  1  0.12488616  0.62392835  0.13610140  1
  Fe  Fe37  1  0.62397744  0.87337692  0.13375162  1
  Fe  Fe38  1  0.37410053  0.12181492  0.63236026  1
  Fe  Fe39  1  0.12489355  0.12443022  0.38114083  1
  Fe  Fe40  1  0.12477650  0.12594358  0.14159604  1
  Fe  Fe41  1  0.12185741  0.87462640  0.89332443  1
  Fe  Fe42  1  0.11953640  0.62491456  0.64289244  1
  Fe  Fe43  1  0.62809410  0.87600454  0.88863687  1
  Fe  Fe44  1  0.37542137  0.12470272  0.39151517  1
  Fe  Fe45  1  0.62503027  0.12560597  0.14612176  1
  Fe  Fe46  1  0.37729107  0.37271770  0.88294815  1
  Fe  Fe47  1  0.37737575  0.62542371  0.87543127  1
  Fe  Fe48  1  0.62495021  0.12469875  0.37992197  1
  Fe  Fe49  1  0.12387410  0.62294134  0.88249848  1
  Fe  Fe50  1  0.12668742  0.87259097  0.12840844  1
  Fe  Fe51  1  0.37387387  0.62885235  0.64677199  1
  Fe  Fe52  1  0.37570932  0.12468095  0.88134351  1
  Fe  Fe53  1  0.37599716  0.37624718  0.13347660  1
  Fe  Fe54  1  0.12357104  0.12673356  0.88255371  1
  Fe  Fe55  1  0.12774218  0.62365260  0.38702605  1
  Fe  Fe56  1  0.63124073  0.37190531  0.63427113  1
  Fe  Fe57  1  0.87786439  0.37579433  0.38260906  1
  Fe  Fe58  1  0.87415445  0.12817793  0.13168211  1
  Fe  Fe59  1  0.37728271  0.87472051  0.63247776  1
  Fe  Fe60  1  0.37265511  0.87144752  0.38904952  1
  Fe  Fe61  1  0.11993142  0.12523870  0.63964054  1
  Fe  Fe62  1  0.62297666  0.62460041  0.38638929  1
  Fe  Fe63  1  0.87299122  0.13100189  0.89608453  1
  Pb  Pb64  1  0.01242357  0.00916398  0.00404716  1
  Pb  Pb65  1  0.00479811  0.00251939  0.24337199  1
  Pb  Pb66  1  0.00739827  0.00381078  0.49665366  1
  Pb  Pb67  1  0.00887462  -0.00094083  0.75960723  1
  Pb  Pb68  1  0.00294772  0.23989467  0.00530974  1
  Pb  Pb69  1  0.00055169  0.25066108  0.24761380  1
  Pb  Pb70  1  0.00604590  0.24498368  0.49893087  1
  Pb  Pb71  1  -0.00491176  0.23887405  0.75585016  1
  Pb  Pb72  1  0.00706787  0.50275128  0.00304158  1
  Pb  Pb73  1  0.00168329  0.49978595  0.25245797  1
  Pb  Pb74  1  0.00668883  0.50511420  0.50186224  1
  Pb  Pb75  1  0.00116019  0.50239036  0.75140965  1
  Pb  Pb76  1  0.01161730  0.74637624  0.00346613  1
  Pb  Pb77  1  0.00267490  0.75192972  0.24770606  1
  Pb  Pb78  1  0.00808233  0.74531424  0.50006009  1
  Pb  Pb79  1  0.00912999  0.75501406  0.75981065  1
  Pb  Pb80  1  0.24491722  0.00215893  -0.00448337  1
  Pb  Pb81  1  0.25243051  -0.00353908  0.24441740  1
  Pb  Pb82  1  0.25311075  0.00252889  0.49639033  1
  Pb  Pb83  1  0.24973154  0.00640148  0.74653710  1
  Pb  Pb84  1  0.25290213  0.24683617  -0.00599054  1
  Pb  Pb85  1  0.25432539  0.23815211  0.25643233  1
  Pb  Pb86  1  0.25065028  0.23920582  0.50322275  1
  Pb  Pb87  1  0.25564023  0.24296537  0.74453448  1
  Pb  Pb88  1  0.25466483  0.50456687  -0.00946720  1
  Pb  Pb89  1  0.24448595  0.50460562  0.25073032  1
  Pb  Pb90  1  0.25592966  0.50179728  0.50899199  1
  Pb  Pb91  1  0.25627792  0.50257288  0.74628903  1
  Pb  Pb92  1  0.24954017  0.75100141  -0.00789347  1
  Pb  Pb93  1  0.25106951  0.75525306  0.24475027  1
  Pb  Pb94  1  0.25779484  0.74371185  0.50881933  1
  Pb  Pb95  1  0.24845362  0.74707094  0.74948182  1
  Pb  Pb96  1  0.49773857  -0.00865768  0.00358618  1
  Pb  Pb97  1  0.49473652  -0.00055378  0.24773415  1
  Pb  Pb98  1  0.49280214  0.00217837  0.49520681  1
  Pb  Pb99  1  0.49574696  0.00074452  0.74724414  1
  Pb  Pb100  1  0.49560848  0.25165834  -0.00074727  1
  Pb  Pb101  1  0.49388110  0.23957052  0.25737683  1
  Pb  Pb102  1  0.49577712  0.24832865  0.50161021  1
  Pb  Pb103  1  0.48931169  0.25327915  0.74644555  1
  Pb  Pb104  1  0.49268337  0.49992989  -0.00804759  1
  Pb  Pb105  1  0.50313944  0.50593743  0.25306212  1
  Pb  Pb106  1  0.49417134  0.49676415  0.50848233  1
  Pb  Pb107  1  0.49168776  0.49239327  0.74858778  1
  Pb  Pb108  1  0.49978530  0.75333522  -0.00681882  1
  Pb  Pb109  1  0.49469411  0.75675747  0.24885932  1
  Pb  Pb110  1  0.48966640  0.74802335  0.50735069  1
  Pb  Pb111  1  0.50204458  0.74777941  0.75042599  1
  Pb  Pb112  1  0.73276471  0.00844769  0.01113078  1
  Pb  Pb113  1  0.74617794  0.00265860  0.24630755  1
  Pb  Pb114  1  0.74969941  -0.00177836  0.49201890  1
  Pb  Pb115  1  0.74978620  -0.00282317  0.75513370  1
  Pb  Pb116  1  0.74590010  0.24199256  0.00826324  1
  Pb  Pb117  1  0.75128723  0.25132842  0.25031370  1
  Pb  Pb118  1  0.74670695  0.25444482  0.49718457  1
  Pb  Pb119  1  0.75691539  0.24315431  0.75288774  1
  Pb  Pb120  1  0.74725564  0.49691233  0.00140625  1
  Pb  Pb121  1  0.74771284  0.50091417  0.25532602  1
  Pb  Pb122  1  0.74718938  0.49470222  0.50062903  1
  Pb  Pb123  1  0.74751182  0.50583372  0.75048449  1
  Pb  Pb124  1  0.74446062  0.75366257  -0.00021062  1
  Pb  Pb125  1  0.75264250  0.75276781  0.25186220  1
  Pb  Pb126  1  0.75022920  0.75006022  0.49653328  1
  Pb  Pb127  1  0.74217568  0.75322419  0.75605445  1
  O  O128  1  0.12428443  -0.00297047  0.16206746  1
  O  O129  1  0.12300390  -0.00643145  0.40907560  1
  O  O130  1  0.11610320  -0.00629103  0.66506303  1
  O  O131  1  0.12085295  0.00099043  0.91426946  1
  O  O132  1  0.12347788  0.26053248  0.16271156  1
  O  O133  1  0.12477021  0.25674022  0.41320235  1
  O  O134  1  0.11812721  0.25685336  0.66352188  1
  O  O135  1  0.12075927  0.26016339  0.91064268  1
  O  O136  1  0.12402662  0.49526170  0.16640959  1
  O  O137  1  0.12644417  0.49509461  0.41880091  1
  O  O138  1  0.11636574  0.49177392  0.66435352  1
  O  O139  1  0.12045981  0.49272953  0.91161118  1
  O  O140  1  0.12270844  0.74858847  0.16068305  1
  O  O141  1  0.12238322  0.75246700  0.41218336  1
  O  O142  1  0.11689203  0.75811547  0.66529078  1
  O  O143  1  0.11952317  0.74689826  0.91336262  1
  O  O144  1  0.37544018  0.00795691  0.15804577  1
  O  O145  1  0.37467062  -0.00378615  0.41273496  1
  O  O146  1  0.37704827  -0.00269702  0.66355860  1
  O  O147  1  0.37670522  -0.00284821  0.91208282  1
  O  O148  1  0.37518097  0.24895601  0.16351490  1
  O  O149  1  0.37560868  0.25524088  0.41845191  1
  O  O150  1  0.37598454  0.24822856  0.65839269  1
  O  O151  1  0.37804096  0.24912785  0.91416459  1
  O  O152  1  0.37670402  0.50451002  0.16421150  1
  O  O153  1  0.37482806  0.50280880  0.42130654  1
  O  O154  1  0.37630655  0.49921305  0.66231887  1
  O  O155  1  0.37724085  0.49830602  0.90751894  1
  O  O156  1  0.37707682  0.73870767  0.15972007  1
  O  O157  1  0.37499549  0.74297875  0.41681014  1
  O  O158  1  0.37572502  0.75621274  0.67009078  1
  O  O159  1  0.37735613  0.75647550  0.90586345  1
  O  O160  1  0.62575047  -0.00307217  0.16678055  1
  O  O161  1  0.62885152  -0.00746166  0.40830041  1
  O  O162  1  0.63302926  0.00415168  0.66633039  1
  O  O163  1  0.62875280  0.00721226  0.91203134  1
  O  O164  1  0.62611764  0.26048277  0.16421223  1
  O  O165  1  0.62627992  0.25592839  0.41214168  1
  O  O166  1  0.63328891  0.23946922  0.65805523  1
  O  O167  1  0.62627316  0.25186278  0.91454275  1
  O  O168  1  0.62586917  0.49904192  0.17068084  1
  O  O169  1  0.62597330  0.49663379  0.41810384  1
  O  O170  1  0.63286496  0.50727349  0.65887718  1
  O  O171  1  0.62751706  0.49225568  0.90978087  1
  O  O172  1  0.62637052  0.74475693  0.16228417  1
  O  O173  1  0.62854661  0.75305846  0.41419163  1
  O  O174  1  0.63385980  0.74926129  0.66478525  1
  O  O175  1  0.63059393  0.74962135  0.91345031  1
  O  O176  1  0.87364730  -0.00578013  0.15577895  1
  O  O177  1  0.87589730  0.00603529  0.40882239  1
  O  O178  1  0.87325343  0.00305696  0.66356525  1
  O  O179  1  0.87391124  -0.00041986  0.90593749  1
  O  O180  1  0.87370654  0.25711494  0.16422829  1
  O  O181  1  0.87566808  0.24482042  0.41015996  1
  O  O182  1  0.87229499  0.24614389  0.66380573  1
  O  O183  1  0.87203260  0.26317598  0.92050259  1
  O  O184  1  0.87278358  0.50452671  0.16880677  1
  O  O185  1  0.87550092  0.50480357  0.41317361  1
  O  O186  1  0.87355569  0.50394459  0.66332839  1
  O  O187  1  0.87074029  0.49436570  0.91969506  1
  O  O188  1  0.87326420  0.74354825  0.16368771  1
  O  O189  1  0.87618310  0.74298308  0.41417940  1
  O  O190  1  0.87171876  0.74758066  0.66210868  1
  O  O191  1  0.87126017  0.74099524  0.91010046  1
  O  O192  1  -0.00325314  0.12754071  0.16487787  1
  O  O193  1  -0.00426629  0.12586432  0.40996789  1
  O  O194  1  -0.00959449  0.12572062  0.66584943  1
  O  O195  1  -0.00036658  0.13132370  0.91683488  1
  O  O196  1  0.00225859  0.37980351  0.16476241  1
  O  O197  1  0.00635187  0.37650457  0.41138580  1
  O  O198  1  -0.00556619  0.37406184  0.66808032  1
  O  O199  1  -0.00344224  0.37822605  0.91082038  1
  O  O200  1  -0.00836476  0.62191845  0.16302376  1
  O  O201  1  -0.00445826  0.62300582  0.41362946  1
  O  O202  1  -0.01063291  0.62597301  0.66739487  1
  O  O203  1  -0.01052215  0.61670272  0.91434567  1
  O  O204  1  -0.00733567  0.86963531  0.16031137  1
  O  O205  1  0.00519337  0.87348736  0.41198493  1
  O  O206  1  -0.00489755  0.87543107  0.66778842  1
  O  O207  1  -0.01451518  0.87060836  0.91878190  1
  O  O208  1  0.25620025  0.12884414  0.16313459  1
  O  O209  1  0.24678845  0.12620424  0.41504064  1
  O  O210  1  0.24637147  0.12302649  0.65919309  1
  O  O211  1  0.24910877  0.12740555  0.91069193  1
  O  O212  1  0.24555249  0.37889284  0.16008385  1
  O  O213  1  0.24593389  0.37687032  0.41974618  1
  O  O214  1  0.24024717  0.37510859  0.65699915  1
  O  O215  1  0.24330325  0.37544296  0.90447025  1
  O  O216  1  0.25669611  0.62114143  0.15839187  1
  O  O217  1  0.25623912  0.62264724  0.41783599  1
  O  O218  1  0.24429558  0.62693154  0.66492788  1
  O  O219  1  0.25096156  0.62370919  0.90517917  1
  O  O220  1  0.25217404  0.87229927  0.16092361  1
  O  O221  1  0.24089348  0.87177460  0.41272336  1
  O  O222  1  0.24021185  0.87627217  0.65864650  1
  O  O223  1  0.25587420  0.87531879  0.90848949  1
  O  O224  1  0.49308798  0.12891465  0.16426081  1
  O  O225  1  0.50411492  0.12548362  0.41494204  1
  O  O226  1  0.51089432  0.12057169  0.65427722  1
  O  O227  1  0.50765449  0.12651890  0.91233698  1
  O  O228  1  0.50576085  0.37969691  0.16470405  1
  O  O229  1  0.50333708  0.37773806  0.41708066  1
  O  O230  1  0.50677341  0.37389359  0.65941213  1
  O  O231  1  0.51008304  0.37253471  0.91037538  1
  O  O232  1  0.49762656  0.62070718  0.16308901  1
  O  O233  1  0.49436457  0.62278328  0.41728797  1
  O  O234  1  0.51136574  0.63019646  0.65917760  1
  O  O235  1  0.50116362  0.62492541  0.90873197  1
  O  O236  1  0.49918044  0.87267652  0.16502962  1
  O  O237  1  0.50886531  0.87167110  0.41064778  1
  O  O238  1  0.50935455  0.87541691  0.66130421  1
  O  O239  1  0.49777157  0.87776704  0.91104963  1
  O  O240  1  0.75331545  0.12764785  0.16826934  1
  O  O241  1  0.75468279  0.12531496  0.40788075  1
  O  O242  1  0.75343645  0.12317385  0.66719719  1
  O  O243  1  0.74227885  0.13096046  0.91764910  1
  O  O244  1  0.74551980  0.38042762  0.16837434  1
  O  O245  1  0.74800115  0.37614943  0.41239326  1
  O  O246  1  0.75662327  0.37487645  0.66728914  1
  O  O247  1  0.74665485  0.37464399  0.91665511  1
  O  O248  1  0.75311190  0.62257854  0.16634168  1
  O  O249  1  0.75520922  0.62419844  0.41339992  1
  O  O250  1  0.75466849  0.62608520  0.66681967  1
  O  O251  1  0.75494000  0.61759896  0.91792435  1
  O  O252  1  0.75532325  0.86912522  0.16373683  1
  O  O253  1  0.74815543  0.87268207  0.41240005  1
  O  O254  1  0.75447585  0.87729016  0.66978695  1
  O  O255  1  0.76039351  0.87283253  0.91911002  1
  O  O256  1  0.12013744  0.12712291  0.04026144  1
  O  O257  1  0.12852339  0.12941304  0.28072770  1
  O  O258  1  0.11242315  0.12603708  0.53876911  1
  O  O259  1  0.11734154  0.12395435  0.78110782  1
  O  O260  1  0.12668299  0.37842779  0.04652149  1
  O  O261  1  0.13069643  0.37907000  0.29954242  1
  O  O262  1  0.11605365  0.37312167  0.54797812  1
  O  O263  1  0.12197559  0.37585202  0.79343144  1
  O  O264  1  0.11788243  0.61915474  0.03582884  1
  O  O265  1  0.12904277  0.61553311  0.28769072  1
  O  O266  1  0.11269698  0.62471656  0.54186741  1
  O  O267  1  0.11345423  0.62630318  0.78187142  1
  O  O268  1  0.12397165  0.87277207  0.02707054  1
  O  O269  1  0.12536492  0.87015039  0.29456585  1
  O  O270  1  0.11781856  0.87591235  0.54900355  1
  O  O271  1  0.11180227  0.87493982  0.79206308  1
  O  O272  1  0.37524026  0.13177543  0.04585680  1
  O  O273  1  0.37490076  0.13437610  0.29033232  1
  O  O274  1  0.37543515  0.12258990  0.53083218  1
  O  O275  1  0.37724415  0.12576586  0.78087034  1
  O  O276  1  0.37994492  0.37570585  0.03423780  1
  O  O277  1  0.37292566  0.37886514  0.30574731  1
  O  O278  1  0.37756972  0.38218949  0.53231611  1
  O  O279  1  0.38349201  0.37181369  0.78175529  1
  O  O280  1  0.37645565  0.61895071  0.04375864  1
  O  O281  1  0.37453494  0.62233369  0.30238400  1
  O  O282  1  0.37520475  0.63452169  0.54421741  1
  O  O283  1  0.37915747  0.62447076  0.77382788  1
  O  O284  1  0.38239563  0.87398825  0.03195745  1
  O  O285  1  0.37426026  0.86498055  0.28865679  1
  O  O286  1  0.37548348  0.86484577  0.53170320  1
  O  O287  1  0.37870230  0.88156144  0.79575722  1
  O  O288  1  0.63061514  0.12369101  0.04458939  1
  O  O289  1  0.61993597  0.12883728  0.27961826  1
  O  O290  1  0.63395277  0.11986235  0.54487994  1
  O  O291  1  0.62617564  0.12786240  0.79851733  1
  O  O292  1  0.62396538  0.37974227  0.05075460  1
  O  O293  1  0.62147848  0.37919476  0.30222765  1
  O  O294  1  0.63774880  0.37311333  0.53462460  1
  O  O295  1  0.63018562  0.37092760  0.79599954  1
  O  O296  1  0.62594886  0.61855952  0.05104053  1
  O  O297  1  0.62122523  0.61827591  0.28744661  1
  O  O298  1  0.63229866  0.62915428  0.54963884  1
  O  O299  1  0.63383658  0.62641478  0.78240380  1
  O  O300  1  0.62644141  0.88025735  0.03275522  1
  O  O301  1  0.62588901  0.86841503  0.29495930  1
  O  O302  1  0.63521984  0.87734470  0.55026279  1
  O  O303  1  0.63654547  0.87725300  0.78854811  1
  O  O304  1  0.87165418  0.13484926  0.03079300  1
  O  O305  1  0.87622542  0.12727324  0.29322139  1
  O  O306  1  0.87290709  0.12354635  0.55025417  1
  O  O307  1  0.87213327  0.13885621  0.79501755  1
  O  O308  1  0.87177995  0.38193796  0.05338211  1
  O  O309  1  0.87613911  0.37777312  0.28369044  1
  O  O310  1  0.87613733  0.37432954  0.54711107  1
  O  O311  1  0.87308775  0.37596780  0.80192431  1
  O  O312  1  0.87215393  0.62199427  0.04931401  1
  O  O313  1  0.87503247  0.62485356  0.29734465  1
  O  O314  1  0.87423387  0.62724170  0.54933185  1
  O  O315  1  0.87084487  0.62139865  0.79927246  1
  O  O316  1  0.87180569  0.86930123  0.04882388  1
  O  O317  1  0.87580479  0.86691735  0.28352217  1
  O  O318  1  0.87655163  0.87588441  0.54765023  1
  O  O319  1  0.87354757  0.87643263  0.79868004  1
