# generated using pymatgen
data_VFe(PbO3)2
_symmetry_space_group_name_H-M   'P 1'
_cell_length_a   15.38013308
_cell_length_b   15.37758369
_cell_length_c   18.49265582
_cell_angle_alpha   89.99511408
_cell_angle_beta   89.96776789
_cell_angle_gamma   89.99743338
_symmetry_Int_Tables_number   1
_chemical_formula_structural   VFe(PbO3)2
_chemical_formula_sum   'V32 Fe32 Pb64 O192'
_cell_volume   4373.68407013
_cell_formula_units_Z   32
loop_
 _symmetry_equiv_pos_site_id
 _symmetry_equiv_pos_as_xyz
  1  'x, y, z'
loop_
 _atom_site_type_symbol
 _atom_site_label
 _atom_site_symmetry_multiplicity
 _atom_site_fract_x
 _atom_site_fract_y
 _atom_site_fract_z
 _atom_site_occupancy
  V  V0  1  0.38018602  0.12016883  0.14183002  1
  V  V1  1  0.62613614  0.62269800  0.63820341  1
  V  V2  1  0.12607977  0.87668790  0.13940330  1
  V  V3  1  0.87540901  0.37306566  0.38633987  1
  V  V4  1  0.62029317  0.62604338  0.89071067  1
  V  V5  1  0.12740699  0.62495743  0.89560492  1
  V  V6  1  0.87377924  0.12622161  0.88526630  1
  V  V7  1  0.62541202  0.62466372  0.13986484  1
  V  V8  1  0.13009586  0.12053827  0.13808491  1
  V  V9  1  0.37599723  0.62210623  0.89262624  1
  V  V10  1  0.87226266  0.37600291  0.64014844  1
  V  V11  1  0.37289646  0.87138809  0.63642446  1
  V  V12  1  0.62428325  0.37642051  0.89403655  1
  V  V13  1  0.37318073  0.37609088  0.89520349  1
  V  V14  1  0.37417488  0.87314079  0.89091100  1
  V  V15  1  0.87760992  0.87686917  0.39272092  1
  V  V16  1  0.12850415  0.12592458  0.89091702  1
  V  V17  1  0.62276889  0.87465135  0.14038106  1
  V  V18  1  0.87465664  0.62594157  0.38782775  1
  V  V19  1  0.37702132  0.87850179  0.38885804  1
  V  V20  1  0.62704556  0.37833701  0.38570942  1
  V  V21  1  0.37319986  0.12538320  0.63957871  1
  V  V22  1  0.12495430  0.87344631  0.38962445  1
  V  V23  1  0.12660459  0.87429279  0.88633473  1
  V  V24  1  0.12378071  0.37561584  0.63880258  1
  V  V25  1  0.37549675  0.62900991  0.14493693  1
  V  V26  1  0.62272227  0.37773931  0.63581328  1
  V  V27  1  0.12123467  0.12498303  0.38928537  1
  V  V28  1  0.12532102  0.87497445  0.63922993  1
  V  V29  1  0.87718396  0.12084149  0.13703190  1
  V  V30  1  0.62802628  0.12206878  0.13843930  1
  V  V31  1  0.37387564  0.37397585  0.63230223  1
  Fe  Fe32  1  0.62478313  0.37034099  0.13533159  1
  Fe  Fe33  1  0.12498437  0.62832667  0.13881455  1
  Fe  Fe34  1  0.87023934  0.37388440  0.12851671  1
  Fe  Fe35  1  0.37264210  0.37241828  0.37625666  1
  Fe  Fe36  1  0.87963417  0.12786564  0.63517198  1
  Fe  Fe37  1  0.12148785  0.62739112  0.37759199  1
  Fe  Fe38  1  0.37557545  0.12187369  0.38482498  1
  Fe  Fe39  1  0.62064143  0.12681549  0.87972748  1
  Fe  Fe40  1  0.37421768  0.62032067  0.63067942  1
  Fe  Fe41  1  0.37586192  0.62673334  0.38499940  1
  Fe  Fe42  1  0.62286225  0.87435719  0.63854133  1
  Fe  Fe43  1  0.12374376  0.37212933  0.13987854  1
  Fe  Fe44  1  0.87214260  0.87671606  0.13365971  1
  Fe  Fe45  1  0.62243077  0.87338086  0.87653429  1
  Fe  Fe46  1  0.37292596  0.12825916  0.88548848  1
  Fe  Fe47  1  0.87217068  0.63048674  0.12738076  1
  Fe  Fe48  1  0.12453166  0.12650199  0.63648849  1
  Fe  Fe49  1  0.87727277  0.37479666  0.89576470  1
  Fe  Fe50  1  0.62842117  0.87479096  0.39072476  1
  Fe  Fe51  1  0.12684861  0.62269901  0.63536257  1
  Fe  Fe52  1  0.62805895  0.12446759  0.38921302  1
  Fe  Fe53  1  0.87635136  0.87300390  0.63951556  1
  Fe  Fe54  1  0.87819070  0.62148847  0.63907219  1
  Fe  Fe55  1  0.37818046  0.37469884  0.14955672  1
  Fe  Fe56  1  0.62846498  0.62675633  0.38345845  1
  Fe  Fe57  1  0.87484068  0.12481211  0.38950351  1
  Fe  Fe58  1  0.11863494  0.37604535  0.37562811  1
  Fe  Fe59  1  0.87478907  0.62379694  0.89451741  1
  Fe  Fe60  1  0.37624212  0.87605602  0.13781063  1
  Fe  Fe61  1  0.12853873  0.37478288  0.89372018  1
  Fe  Fe62  1  0.62600104  0.12967951  0.63955235  1
  Fe  Fe63  1  0.87664528  0.87495077  0.87947397  1
  Pb  Pb64  1  -0.00174639  -0.00405632  -0.00400490  1
  Pb  Pb65  1  -0.00879848  0.00512409  0.25245468  1
  Pb  Pb66  1  -0.00569868  0.00310597  0.50688955  1
  Pb  Pb67  1  -0.00373398  0.00132107  0.74609022  1
  Pb  Pb68  1  0.00384278  0.25573048  0.00245854  1
  Pb  Pb69  1  -0.00299252  0.25347860  0.24608517  1
  Pb  Pb70  1  0.00020174  0.24117599  0.50308734  1
  Pb  Pb71  1  0.00410419  0.26252109  0.75454339  1
  Pb  Pb72  1  0.00060068  0.49534701  0.00460118  1
  Pb  Pb73  1  0.00047615  0.50136382  0.23625322  1
  Pb  Pb74  1  0.00482351  0.51008425  0.49660566  1
  Pb  Pb75  1  -0.00582675  0.50062616  0.75950667  1
  Pb  Pb76  1  -0.00753088  0.74937189  0.00094452  1
  Pb  Pb77  1  -0.00312189  0.74676018  0.24273472  1
  Pb  Pb78  1  -0.01014076  0.74891801  0.50591897  1
  Pb  Pb79  1  -0.00925542  0.74148459  0.75236299  1
  Pb  Pb80  1  0.25537149  -0.00472071  0.00107308  1
  Pb  Pb81  1  0.25609777  0.00361296  0.25450996  1
  Pb  Pb82  1  0.24133574  0.00258639  0.50087393  1
  Pb  Pb83  1  0.25724787  0.00660844  0.75130794  1
  Pb  Pb84  1  0.25642360  0.26486860  0.01419376  1
  Pb  Pb85  1  0.24993712  0.25804817  0.25288026  1
  Pb  Pb86  1  0.24985729  0.25493527  0.48918910  1
  Pb  Pb87  1  0.25003796  0.25288645  0.75199449  1
  Pb  Pb88  1  0.24128763  0.50076786  0.01441397  1
  Pb  Pb89  1  0.24021945  0.49785200  0.24906746  1
  Pb  Pb90  1  0.24567934  0.50324643  0.48511430  1
  Pb  Pb91  1  0.24668411  0.49439732  0.74857939  1
  Pb  Pb92  1  0.24590063  0.74514571  0.00650226  1
  Pb  Pb93  1  0.25200843  0.74124896  0.25650267  1
  Pb  Pb94  1  0.24717313  0.73500293  0.49948028  1
  Pb  Pb95  1  0.24990287  0.74372019  0.74738133  1
  Pb  Pb96  1  0.50109342  0.00160520  -0.00774655  1
  Pb  Pb97  1  0.50809623  0.00350713  0.25768117  1
  Pb  Pb98  1  0.51332399  0.00434582  0.50392036  1
  Pb  Pb99  1  0.50930681  0.00327124  0.74906417  1
  Pb  Pb100  1  0.49947963  0.25492447  0.00453557  1
  Pb  Pb101  1  0.49546015  0.24846026  0.25300349  1
  Pb  Pb102  1  0.50382117  0.24543437  0.49362981  1
  Pb  Pb103  1  0.49740555  0.24399175  0.75187937  1
  Pb  Pb104  1  0.49721893  0.49013177  0.01003387  1
  Pb  Pb105  1  0.49750570  0.50405106  0.25256569  1
  Pb  Pb106  1  0.49134483  0.50551672  0.49059838  1
  Pb  Pb107  1  0.49976423  0.49729144  0.74559700  1
  Pb  Pb108  1  0.49446873  0.75553341  0.00256306  1
  Pb  Pb109  1  0.50189736  0.74507154  0.25814890  1
  Pb  Pb110  1  0.50655927  0.75174144  0.49681674  1
  Pb  Pb111  1  0.50370875  0.75047825  0.74784701  1
  Pb  Pb112  1  0.74900972  -0.00696976  -0.01257625  1
  Pb  Pb113  1  0.74160484  -0.00033055  0.25752156  1
  Pb  Pb114  1  0.74597208  0.00091322  0.50601511  1
  Pb  Pb115  1  0.75068796  -0.00181690  0.74037200  1
  Pb  Pb116  1  0.74833809  0.25612524  0.00066028  1
  Pb  Pb117  1  0.75182008  0.23745404  0.25073940  1
  Pb  Pb118  1  0.75024382  0.24047419  0.50253158  1
  Pb  Pb119  1  0.74768511  0.24824147  0.74856332  1
  Pb  Pb120  1  0.75519646  0.50040023  0.00243560  1
  Pb  Pb121  1  0.75289167  0.49669564  0.24098946  1
  Pb  Pb122  1  0.75792999  0.50570006  0.49954774  1
  Pb  Pb123  1  0.76355244  0.50004304  0.76047074  1
  Pb  Pb124  1  0.76007593  0.75693065  -0.00322369  1
  Pb  Pb125  1  0.74188841  0.75405967  0.25109150  1
  Pb  Pb126  1  0.75244471  0.75876179  0.50643752  1
  Pb  Pb127  1  0.75747864  0.75787936  0.74990957  1
  O  O128  1  0.12202510  0.00413472  0.16896039  1
  O  O129  1  0.11952996  -0.00214498  0.41695157  1
  O  O130  1  0.13111546  -0.00629965  0.66504076  1
  O  O131  1  0.12713346  -0.00108361  0.91505630  1
  O  O132  1  0.12253397  0.23545799  0.16220459  1
  O  O133  1  0.11923206  0.24308294  0.40684469  1
  O  O134  1  0.12658934  0.25791134  0.66536288  1
  O  O135  1  0.12791310  0.24066094  0.91568082  1
  O  O136  1  0.12613976  0.50054174  0.15921712  1
  O  O137  1  0.12043854  0.50155647  0.40297271  1
  O  O138  1  0.12877979  0.49138682  0.66456337  1
  O  O139  1  0.13107593  0.50670808  0.91859393  1
  O  O140  1  0.12729137  0.76091838  0.16027126  1
  O  O141  1  0.12170301  0.75778052  0.41055558  1
  O  O142  1  0.13379803  0.75752949  0.66365285  1
  O  O143  1  0.13126041  0.74889188  0.91675841  1
  O  O144  1  0.37508813  0.00334798  0.16818841  1
  O  O145  1  0.36891163  -0.00605713  0.41818193  1
  O  O146  1  0.37278955  0.00391393  0.66066588  1
  O  O147  1  0.37315269  -0.00701251  0.91058999  1
  O  O148  1  0.37629313  0.23576764  0.16516696  1
  O  O149  1  0.37403474  0.24853143  0.41123357  1
  O  O150  1  0.37213180  0.25029648  0.66313330  1
  O  O151  1  0.37370288  0.25770730  0.91647169  1
  O  O152  1  0.37957063  0.50963204  0.16483106  1
  O  O153  1  0.37584749  0.49709171  0.40396340  1
  O  O154  1  0.37323837  0.49300308  0.66148980  1
  O  O155  1  0.37645080  0.49708855  0.92117915  1
  O  O156  1  0.37733746  0.74988865  0.16736379  1
  O  O157  1  0.37046748  0.76274215  0.41272790  1
  O  O158  1  0.37351217  0.75399525  0.65838616  1
  O  O159  1  0.37497332  0.75001382  0.91673133  1
  O  O160  1  0.62455158  0.00173906  0.16511094  1
  O  O161  1  0.62894770  -0.00149716  0.42058072  1
  O  O162  1  0.62063343  0.00229898  0.66053134  1
  O  O163  1  0.62126985  -0.00028841  0.90579695  1
  O  O164  1  0.62503920  0.23720367  0.16169272  1
  O  O165  1  0.63259064  0.26035338  0.41243718  1
  O  O166  1  0.62499984  0.25976196  0.66581236  1
  O  O167  1  0.62176647  0.25626122  0.91184583  1
  O  O168  1  0.62214679  0.50764421  0.15808483  1
  O  O169  1  0.63141406  0.49526828  0.41191189  1
  O  O170  1  0.62326919  0.49864067  0.66792387  1
  O  O171  1  0.61812946  0.49774337  0.91945497  1
  O  O172  1  0.62288085  0.75398952  0.16238026  1
  O  O173  1  0.62724351  0.75027674  0.41727984  1
  O  O174  1  0.61925263  0.73965254  0.66030926  1
  O  O175  1  0.61660024  0.74287680  0.90878598  1
  O  O176  1  0.87291091  0.00371229  0.16489953  1
  O  O177  1  0.87849788  -0.00658972  0.41403194  1
  O  O178  1  0.87891623  0.00071205  0.66098946  1
  O  O179  1  0.87901830  0.00641119  0.90878994  1
  O  O180  1  0.87029129  0.23794516  0.15931669  1
  O  O181  1  0.87535558  0.25773920  0.41009274  1
  O  O182  1  0.87868593  0.26107459  0.66488997  1
  O  O183  1  0.87892617  0.24052538  0.91401214  1
  O  O184  1  0.86982969  0.50252099  0.15226156  1
  O  O185  1  0.87517312  0.50418294  0.40984365  1
  O  O186  1  0.87699528  0.49329029  0.66985565  1
  O  O187  1  0.87435770  0.50067231  0.92122312  1
  O  O188  1  0.87137987  0.75436536  0.16369226  1
  O  O189  1  0.87763023  0.74933600  0.41384891  1
  O  O190  1  0.87671332  0.74571429  0.66683827  1
  O  O191  1  0.87559512  0.75048143  0.91036373  1
  O  O192  1  -0.00331076  0.12086391  0.15919101  1
  O  O193  1  0.00321063  0.12209661  0.41602532  1
  O  O194  1  0.00308122  0.12867900  0.66980175  1
  O  O195  1  0.00492500  0.12185743  0.91356806  1
  O  O196  1  -0.00533724  0.36863656  0.15701962  1
  O  O197  1  -0.00870686  0.37837911  0.41005265  1
  O  O198  1  0.00308346  0.37643501  0.66210437  1
  O  O199  1  0.00422324  0.37405352  0.91992032  1
  O  O200  1  -0.00240649  0.63038914  0.15644059  1
  O  O201  1  -0.00654066  0.62787378  0.41049911  1
  O  O202  1  0.00478766  0.62216910  0.66853125  1
  O  O203  1  0.01091150  0.62613648  0.91366588  1
  O  O204  1  0.00643993  0.88046857  0.16271479  1
  O  O205  1  -0.00033379  0.87419733  0.41715277  1
  O  O206  1  0.01083029  0.87333619  0.66055534  1
  O  O207  1  0.00595462  0.87418326  0.91147220  1
  O  O208  1  0.24761001  0.11916864  0.16007506  1
  O  O209  1  0.24035284  0.12091190  0.41114671  1
  O  O210  1  0.25313111  0.12729495  0.66569823  1
  O  O211  1  0.24547168  0.12002073  0.91567572  1
  O  O212  1  0.25022172  0.36961537  0.16465563  1
  O  O213  1  0.24478522  0.37090931  0.40265353  1
  O  O214  1  0.24931510  0.37318575  0.66276741  1
  O  O215  1  0.25648646  0.37712142  0.92099062  1
  O  O216  1  0.25719591  0.62907177  0.16471759  1
  O  O217  1  0.24779048  0.62969289  0.40649747  1
  O  O218  1  0.25143628  0.62292217  0.66806290  1
  O  O219  1  0.25368170  0.62551935  0.92206699  1
  O  O220  1  0.24350517  0.88316659  0.16425365  1
  O  O221  1  0.24213190  0.87925251  0.41158703  1
  O  O222  1  0.25595377  0.87755114  0.66690434  1
  O  O223  1  0.25254589  0.87313280  0.91651960  1
  O  O224  1  0.50125274  0.11950979  0.16089761  1
  O  O225  1  0.50144388  0.12464408  0.41439604  1
  O  O226  1  0.49096809  0.13039565  0.66197219  1
  O  O227  1  0.49688615  0.12691603  0.91423166  1
  O  O228  1  0.50506729  0.37176076  0.17101829  1
  O  O229  1  0.50988545  0.37503002  0.40314118  1
  O  O230  1  0.49793776  0.37522942  0.66069422  1
  O  O231  1  0.49672838  0.37558830  0.91860113  1
  O  O232  1  0.50230386  0.63094849  0.16678144  1
  O  O233  1  0.50216730  0.62628231  0.41231160  1
  O  O234  1  0.50317157  0.61869140  0.66232696  1
  O  O235  1  0.49827321  0.62181603  0.92289461  1
  O  O236  1  0.50677151  0.87915190  0.16614455  1
  O  O237  1  0.49309689  0.87802078  0.40860404  1
  O  O238  1  0.48852366  0.87616288  0.66167672  1
  O  O239  1  0.49366273  0.87211995  0.91133357  1
  O  O240  1  0.74808874  0.11968003  0.16049680  1
  O  O241  1  0.75221911  0.12550577  0.41954690  1
  O  O242  1  0.75373827  0.13188977  0.66303816  1
  O  O243  1  0.75620691  0.12549517  0.90471004  1
  O  O244  1  0.74818206  0.37137166  0.16506313  1
  O  O245  1  0.75729033  0.37981674  0.41496573  1
  O  O246  1  0.75346647  0.37746611  0.66125672  1
  O  O247  1  0.74218118  0.37530944  0.91281887  1
  O  O248  1  0.74191627  0.63079363  0.15928402  1
  O  O249  1  0.75792690  0.62690006  0.41432882  1
  O  O250  1  0.74149226  0.61967878  0.66406944  1
  O  O251  1  0.73587057  0.62099750  0.91015466  1
  O  O252  1  0.74089579  0.87849425  0.16319874  1
  O  O253  1  0.76059315  0.87295051  0.41600637  1
  O  O254  1  0.74826526  0.87152874  0.66199767  1
  O  O255  1  0.74819159  0.87501269  0.90370960  1
  O  O256  1  0.12786277  0.11735866  0.04723492  1
  O  O257  1  0.11846805  0.11921794  0.29809570  1
  O  O258  1  0.11961647  0.12496989  0.53680999  1
  O  O259  1  0.12930158  0.12567173  0.79956757  1
  O  O260  1  0.13202674  0.36983591  0.03673341  1
  O  O261  1  0.11854845  0.36879517  0.27479351  1
  O  O262  1  0.12431603  0.37515115  0.54780476  1
  O  O263  1  0.13023121  0.37162844  0.79352959  1
  O  O264  1  0.13607193  0.62839279  0.03795180  1
  O  O265  1  0.12545404  0.63177040  0.27648212  1
  O  O266  1  0.12775467  0.62167621  0.53508082  1
  O  O267  1  0.13353549  0.62586053  0.80432246  1
  O  O268  1  0.12664148  0.88177375  0.04788091  1
  O  O269  1  0.12203348  0.87722613  0.29888701  1
  O  O270  1  0.12965224  0.87597857  0.54772957  1
  O  O271  1  0.12949159  0.87378716  0.79632143  1
  O  O272  1  0.37605979  0.11880068  0.05036655  1
  O  O273  1  0.37566344  0.11687390  0.28524484  1
  O  O274  1  0.37149538  0.12677804  0.54862642  1
  O  O275  1  0.37130640  0.13060802  0.78573751  1
  O  O276  1  0.38026862  0.36802718  0.04671119  1
  O  O277  1  0.37665865  0.36573149  0.27470295  1
  O  O278  1  0.37174306  0.37269477  0.54122318  1
  O  O279  1  0.37337154  0.37796694  0.80410741  1
  O  O280  1  0.37790095  0.63124389  0.05341129  1
  O  O281  1  0.38016013  0.63615433  0.28404717  1
  O  O282  1  0.37086424  0.62161591  0.53077594  1
  O  O283  1  0.37637588  0.62151233  0.80174146  1
  O  O284  1  0.37888403  0.87747485  0.03841943  1
  O  O285  1  0.37205156  0.88147477  0.29719315  1
  O  O286  1  0.36984246  0.87441297  0.54591602  1
  O  O287  1  0.37184136  0.87004499  0.80010254  1
  O  O288  1  0.62733457  0.12013694  0.04748158  1
  O  O289  1  0.63076025  0.11737681  0.28777724  1
  O  O290  1  0.62283590  0.13142527  0.53771200  1
  O  O291  1  0.61697857  0.13344449  0.77896616  1
  O  O292  1  0.62037498  0.36772963  0.03465916  1
  O  O293  1  0.63427709  0.37820991  0.29481550  1
  O  O294  1  0.62448027  0.37960933  0.54496975  1
  O  O295  1  0.61988203  0.38096690  0.80311612  1
  O  O296  1  0.62130829  0.62940742  0.04918772  1
  O  O297  1  0.62569639  0.63236024  0.28343386  1
  O  O298  1  0.62661065  0.61938134  0.54707152  1
  O  O299  1  0.61291109  0.61961456  0.79994590  1
  O  O300  1  0.62206043  0.87592293  0.04893873  1
  O  O301  1  0.63290938  0.88021277  0.28958879  1
  O  O302  1  0.62273395  0.87248479  0.53688180  1
  O  O303  1  0.61344081  0.86844590  0.77623025  1
  O  O304  1  0.87522330  0.11902428  0.04609849  1
  O  O305  1  0.87474151  0.12543103  0.28901695  1
  O  O306  1  0.88481326  0.13162865  0.53367359  1
  O  O307  1  0.87950261  0.12853269  0.79428447  1
  O  O308  1  0.86688815  0.36721141  0.02681251  1
  O  O309  1  0.87257936  0.37460577  0.29486123  1
  O  O310  1  0.87534640  0.37915365  0.54926046  1
  O  O311  1  0.87723288  0.38114227  0.79432776  1
  O  O312  1  0.86986787  0.63624327  0.02555413  1
  O  O313  1  0.87335930  0.62758547  0.29686087  1
  O  O314  1  0.87994895  0.61950843  0.53873870  1
  O  O315  1  0.87838183  0.61453750  0.79179144  1
  O  O316  1  0.87106456  0.87509454  0.03330134  1
  O  O317  1  0.87868434  0.87547559  0.30130649  1
  O  O318  1  0.87875772  0.86506066  0.53794700  1
  O  O319  1  0.87775526  0.87221438  0.77886472  1
