# generated using pymatgen
data_VFe(PbO3)2
_symmetry_space_group_name_H-M   'P 1'
_cell_length_a   15.37467925
_cell_length_b   15.37712898
_cell_length_c   18.54154966
_cell_angle_alpha   90.01219335
_cell_angle_beta   89.97902319
_cell_angle_gamma   90.00706591
_symmetry_Int_Tables_number   1
_chemical_formula_structural   VFe(PbO3)2
_chemical_formula_sum   'V32 Fe32 Pb64 O192'
_cell_volume   4383.56355642
_cell_formula_units_Z   32
loop_
 _symmetry_equiv_pos_site_id
 _symmetry_equiv_pos_as_xyz
  1  'x, y, z'
loop_
 _atom_site_type_symbol
 _atom_site_label
 _atom_site_symmetry_multiplicity
 _atom_site_fract_x
 _atom_site_fract_y
 _atom_site_fract_z
 _atom_site_occupancy
  V  V0  1  0.37456313  0.37984680  0.89407150  1
  V  V1  1  0.37582471  0.62422595  0.13533547  1
  V  V2  1  0.37624655  0.62925631  0.38726393  1
  V  V3  1  0.62402838  0.87732543  0.39518904  1
  V  V4  1  0.12751200  0.62552103  0.89647122  1
  V  V5  1  0.12573856  0.12632841  0.13799867  1
  V  V6  1  0.62485783  0.12343638  0.39364419  1
  V  V7  1  0.87592485  0.37223621  0.13941740  1
  V  V8  1  0.87572022  0.37498186  0.63783942  1
  V  V9  1  0.87601005  0.37873911  0.88888751  1
  V  V10  1  0.12305092  0.37393312  0.38892254  1
  V  V11  1  0.37124329  0.88017246  0.63884695  1
  V  V12  1  0.62518745  0.12521049  0.13427210  1
  V  V13  1  0.87237533  0.87463704  0.39711975  1
  V  V14  1  0.12441052  0.87366789  0.89106395  1
  V  V15  1  0.87313811  0.12496784  0.13579914  1
  V  V16  1  0.12764697  0.62646205  0.38506160  1
  V  V17  1  0.37528035  0.62501303  0.63850119  1
  V  V18  1  0.87628823  0.12468441  0.39697029  1
  V  V19  1  0.62227507  0.37728115  0.63767027  1
  V  V20  1  0.12582477  0.62391709  0.63767267  1
  V  V21  1  0.36941755  0.12154964  0.39283866  1
  V  V22  1  0.62478042  0.37683903  0.88908984  1
  V  V23  1  0.12512828  0.37650632  0.89131123  1
  V  V24  1  0.87518450  0.87732903  0.13587781  1
  V  V25  1  0.37437948  0.87192331  0.89227154  1
  V  V26  1  0.62299705  0.62447642  0.89380998  1
  V  V27  1  0.62641350  0.62637398  0.38936944  1
  V  V28  1  0.87456995  0.87062710  0.88425932  1
  V  V29  1  0.37575687  0.62452755  0.89536656  1
  V  V30  1  0.12675449  0.12601401  0.63755545  1
  V  V31  1  0.12376129  0.87772034  0.39144783  1
  Fe  Fe32  1  0.87675955  0.12542999  0.87968728  1
  Fe  Fe33  1  0.37200179  0.37658645  0.63024684  1
  Fe  Fe34  1  0.87472384  0.62303480  0.89670368  1
  Fe  Fe35  1  0.87927787  0.87369028  0.63332181  1
  Fe  Fe36  1  0.37801092  0.12623521  0.12725980  1
  Fe  Fe37  1  0.37317125  0.12618515  0.89129804  1
  Fe  Fe38  1  0.12107307  0.87596895  0.13151089  1
  Fe  Fe39  1  0.12351471  0.37574578  0.63443677  1
  Fe  Fe40  1  0.62652091  0.37226522  0.38380749  1
  Fe  Fe41  1  0.62381391  0.62225500  0.63209070  1
  Fe  Fe42  1  0.62489812  0.87262321  0.88060818  1
  Fe  Fe43  1  0.12316682  0.12429847  0.38444064  1
  Fe  Fe44  1  0.87592794  0.62322488  0.62888203  1
  Fe  Fe45  1  0.37470329  0.12801559  0.63279915  1
  Fe  Fe46  1  0.62390853  0.87069495  0.64191824  1
  Fe  Fe47  1  0.12588053  0.12621205  0.88508049  1
  Fe  Fe48  1  0.62402217  0.12601579  0.87878619  1
  Fe  Fe49  1  0.87526061  0.12520849  0.63988443  1
  Fe  Fe50  1  0.62635773  0.62663428  0.13480977  1
  Fe  Fe51  1  0.12232533  0.37513655  0.13450040  1
  Fe  Fe52  1  0.87709887  0.62812033  0.39138693  1
  Fe  Fe53  1  0.12929555  0.87464913  0.63767076  1
  Fe  Fe54  1  0.62691433  0.37364729  0.13777551  1
  Fe  Fe55  1  0.87146367  0.37404234  0.38521789  1
  Fe  Fe56  1  0.12399968  0.62412759  0.13588683  1
  Fe  Fe57  1  0.62912278  0.87639752  0.13168869  1
  Fe  Fe58  1  0.37797302  0.37332327  0.39111332  1
  Fe  Fe59  1  0.62320055  0.12669598  0.64095336  1
  Fe  Fe60  1  0.37492093  0.37167185  0.13405866  1
  Fe  Fe61  1  0.87446547  0.62528987  0.12861417  1
  Fe  Fe62  1  0.37699730  0.87620943  0.38580202  1
  Fe  Fe63  1  0.37536569  0.87833161  0.13249840  1
  Pb  Pb64  1  0.00174575  -0.00253520  -0.00670676  1
  Pb  Pb65  1  0.00399502  0.00536626  0.25066358  1
  Pb  Pb66  1  -0.00814793  -0.00214222  0.50830314  1
  Pb  Pb67  1  -0.00068292  0.00164657  0.74581198  1
  Pb  Pb68  1  0.00300389  0.25106142  -0.00354717  1
  Pb  Pb69  1  0.00066213  0.24692285  0.25141359  1
  Pb  Pb70  1  0.00537499  0.25371352  0.50175502  1
  Pb  Pb71  1  0.00227037  0.24323846  0.75113198  1
  Pb  Pb72  1  0.00491258  0.50244073  0.00710887  1
  Pb  Pb73  1  -0.00906067  0.50426956  0.24820174  1
  Pb  Pb74  1  -0.00356592  0.50448137  0.49639645  1
  Pb  Pb75  1  -0.00683208  0.50538773  0.75207058  1
  Pb  Pb76  1  0.00084688  0.74376710  0.00391249  1
  Pb  Pb77  1  -0.00497277  0.74373724  0.24706646  1
  Pb  Pb78  1  -0.00520566  0.75404691  0.50347758  1
  Pb  Pb79  1  -0.00658718  0.74717094  0.74693001  1
  Pb  Pb80  1  0.25175021  -0.00224594  0.00061638  1
  Pb  Pb81  1  0.25413360  -0.00268389  0.24495830  1
  Pb  Pb82  1  0.24586825  -0.00362486  0.50137727  1
  Pb  Pb83  1  0.24970451  0.01538947  0.75625578  1
  Pb  Pb84  1  0.25620234  0.24960571  0.00095961  1
  Pb  Pb85  1  0.25647668  0.25373429  0.24797914  1
  Pb  Pb86  1  0.25143787  0.25932076  0.50272788  1
  Pb  Pb87  1  0.25267460  0.24680720  0.74897078  1
  Pb  Pb88  1  0.24339852  0.49690035  0.00814779  1
  Pb  Pb89  1  0.25071031  0.49407700  0.24473939  1
  Pb  Pb90  1  0.24981249  0.49287312  0.49818199  1
  Pb  Pb91  1  0.24948169  0.49433377  0.74783336  1
  Pb  Pb92  1  0.24873496  0.75843296  0.00839592  1
  Pb  Pb93  1  0.25006573  0.75697235  0.24190945  1
  Pb  Pb94  1  0.24417004  0.75476875  0.49892003  1
  Pb  Pb95  1  0.25098248  0.74809000  0.75253309  1
  Pb  Pb96  1  0.49894443  0.00097475  -0.00712666  1
  Pb  Pb97  1  0.49406673  -0.00377492  0.24492282  1
  Pb  Pb98  1  0.50277092  0.00781380  0.50880474  1
  Pb  Pb99  1  0.50926368  0.00588126  0.75115010  1
  Pb  Pb100  1  0.49558890  0.24935508  -0.00069572  1
  Pb  Pb101  1  0.49505989  0.26106134  0.25166600  1
  Pb  Pb102  1  0.49916772  0.24251117  0.50333861  1
  Pb  Pb103  1  0.49080619  0.23916253  0.75078004  1
  Pb  Pb104  1  0.50315019  0.49291417  0.00858753  1
  Pb  Pb105  1  0.50392211  0.49316170  0.24618504  1
  Pb  Pb106  1  0.49916740  0.49789438  0.49469946  1
  Pb  Pb107  1  0.49969060  0.49652130  0.74750194  1
  Pb  Pb108  1  0.50550709  0.75597126  0.00503272  1
  Pb  Pb109  1  0.50025940  0.75713903  0.24276045  1
  Pb  Pb110  1  0.50921315  0.75176394  0.50619025  1
  Pb  Pb111  1  0.50616214  0.75094421  0.75221261  1
  Pb  Pb112  1  0.74348373  -0.00015951  -0.01262976  1
  Pb  Pb113  1  0.75019973  0.00257928  0.24821185  1
  Pb  Pb114  1  0.75121720  0.00198738  0.51285486  1
  Pb  Pb115  1  0.74673935  -0.00232966  0.74196637  1
  Pb  Pb116  1  0.74532894  0.25130560  -0.00655737  1
  Pb  Pb117  1  0.74987176  0.25766568  0.25384454  1
  Pb  Pb118  1  0.74928390  0.24069054  0.50526266  1
  Pb  Pb119  1  0.75002320  0.24316261  0.74916750  1
  Pb  Pb120  1  0.74005869  0.49934141  0.00695262  1
  Pb  Pb121  1  0.75147561  0.49741889  0.24797657  1
  Pb  Pb122  1  0.75448364  0.50173837  0.49500673  1
  Pb  Pb123  1  0.75713662  0.50889932  0.74868110  1
  Pb  Pb124  1  0.74340452  0.74666852  0.00198797  1
  Pb  Pb125  1  0.75471812  0.74218695  0.24712031  1
  Pb  Pb126  1  0.74105871  0.75212965  0.50854709  1
  Pb  Pb127  1  0.75194992  0.74770936  0.74161135  1
  O  O128  1  0.11804153  0.00689844  0.16194220  1
  O  O129  1  0.12451215  -0.00420703  0.41494081  1
  O  O130  1  0.12862869  0.00601718  0.66184324  1
  O  O131  1  0.12572814  -0.00495572  0.91182159  1
  O  O132  1  0.11796347  0.24397770  0.16307016  1
  O  O133  1  0.12436727  0.25296113  0.41381278  1
  O  O134  1  0.12630582  0.24518160  0.66097166  1
  O  O135  1  0.12485381  0.25718864  0.91370399  1
  O  O136  1  0.12383352  0.49909716  0.16793983  1
  O  O137  1  0.12613654  0.49698679  0.40816589  1
  O  O138  1  0.12580487  0.50693778  0.66374335  1
  O  O139  1  0.12692532  0.50142632  0.91830409  1
  O  O140  1  0.12386154  0.75101126  0.16277805  1
  O  O141  1  0.12758992  0.75403529  0.41288351  1
  O  O142  1  0.13030533  0.73997035  0.66633045  1
  O  O143  1  0.12719599  0.74554713  0.91710058  1
  O  O144  1  0.37444346  0.00581687  0.16312090  1
  O  O145  1  0.37859741  0.00384722  0.41828167  1
  O  O146  1  0.37021463  -0.00563066  0.65613766  1
  O  O147  1  0.37217635  -0.00920860  0.90961733  1
  O  O148  1  0.37537908  0.24470006  0.16598140  1
  O  O149  1  0.37909885  0.23962710  0.41399514  1
  O  O150  1  0.37297448  0.25387348  0.66126142  1
  O  O151  1  0.37514173  0.26091656  0.91161493  1
  O  O152  1  0.37565328  0.50449028  0.15997500  1
  O  O153  1  0.37499913  0.50950329  0.41234515  1
  O  O154  1  0.37283563  0.50509572  0.66479827  1
  O  O155  1  0.37507384  0.49991282  0.92202992  1
  O  O156  1  0.37472821  0.74609925  0.15893614  1
  O  O157  1  0.37223502  0.74603796  0.41191441  1
  O  O158  1  0.37059093  0.74097727  0.66516625  1
  O  O159  1  0.37297054  0.74855920  0.91940509  1
  O  O160  1  0.63302510  0.00663834  0.16225033  1
  O  O161  1  0.62748988  -0.00207641  0.41971335  1
  O  O162  1  0.61985943  -0.00262338  0.66153098  1
  O  O163  1  0.62454736  -0.00222857  0.90660485  1
  O  O164  1  0.63123301  0.24033330  0.16025765  1
  O  O165  1  0.62724564  0.24008861  0.41222152  1
  O  O166  1  0.62611146  0.26329778  0.66445839  1
  O  O167  1  0.62416417  0.25644340  0.90970075  1
  O  O168  1  0.62619059  0.50096398  0.16483043  1
  O  O169  1  0.62218472  0.50918575  0.40757979  1
  O  O170  1  0.62567512  0.49488489  0.66560401  1
  O  O171  1  0.62298054  0.50128605  0.91970283  1
  O  O172  1  0.62649576  0.75230486  0.16553399  1
  O  O173  1  0.62318163  0.75219465  0.41575954  1
  O  O174  1  0.61998068  0.74360237  0.66813241  1
  O  O175  1  0.62204868  0.74422429  0.91134354  1
  O  O176  1  0.87442369  0.00042099  0.16465576  1
  O  O177  1  0.87339560  0.00171528  0.42225379  1
  O  O178  1  0.87841463  -0.00096314  0.66422298  1
  O  O179  1  0.87779934  -0.00898192  0.90625108  1
  O  O180  1  0.87476949  0.24920335  0.16451357  1
  O  O181  1  0.87232881  0.24238380  0.41627395  1
  O  O182  1  0.87588212  0.25886716  0.66247916  1
  O  O183  1  0.87531697  0.26076973  0.91217296  1
  O  O184  1  0.87455026  0.49241935  0.15702200  1
  O  O185  1  0.87626130  0.50015439  0.41369027  1
  O  O186  1  0.87800099  0.49591652  0.66481065  1
  O  O187  1  0.87435280  0.49237996  0.91913050  1
  O  O188  1  0.87584564  0.75889298  0.15734901  1
  O  O189  1  0.87709168  0.75489384  0.41803523  1
  O  O190  1  0.87956929  0.74638704  0.66059714  1
  O  O191  1  0.87774554  0.75533499  0.91350262  1
  O  O192  1  -0.00450646  0.12509057  0.16596536  1
  O  O193  1  -0.00569545  0.12286550  0.41618012  1
  O  O194  1  0.00731757  0.12712756  0.66121326  1
  O  O195  1  -0.00050826  0.12706676  0.91405841  1
  O  O196  1  -0.00659594  0.37184054  0.16408566  1
  O  O197  1  0.00413388  0.37250968  0.41254429  1
  O  O198  1  -0.00497852  0.37647376  0.66333020  1
  O  O199  1  -0.00248671  0.37863650  0.91305829  1
  O  O200  1  -0.00420762  0.62519840  0.16424445  1
  O  O201  1  0.00989771  0.62683393  0.41405315  1
  O  O202  1  0.00761881  0.62336449  0.65938645  1
  O  O203  1  0.00815366  0.62341595  0.91639267  1
  O  O204  1  -0.00780950  0.87935644  0.16231660  1
  O  O205  1  0.00431379  0.87629304  0.41554832  1
  O  O206  1  0.00619853  0.87201255  0.66644143  1
  O  O207  1  -0.00073377  0.87131332  0.91286360  1
  O  O208  1  0.24156521  0.12527211  0.15358582  1
  O  O209  1  0.25287439  0.12165557  0.40870687  1
  O  O210  1  0.24670854  0.12585264  0.66236970  1
  O  O211  1  0.24815922  0.12656747  0.91755784  1
  O  O212  1  0.24849299  0.37145200  0.16409935  1
  O  O213  1  0.24538995  0.37356190  0.41241234  1
  O  O214  1  0.24781085  0.37897936  0.66546474  1
  O  O215  1  0.25329861  0.37994676  0.91410923  1
  O  O216  1  0.25765552  0.62472011  0.16202686  1
  O  O217  1  0.25030377  0.62570735  0.41272323  1
  O  O218  1  0.25044163  0.62144424  0.66519077  1
  O  O219  1  0.24860844  0.62314397  0.92022457  1
  O  O220  1  0.24755177  0.87916423  0.16155515  1
  O  O221  1  0.24636480  0.87735926  0.41357797  1
  O  O222  1  0.25668166  0.86855884  0.67109734  1
  O  O223  1  0.25117475  0.87008323  0.91730510  1
  O  O224  1  0.50999507  0.12196251  0.15170518  1
  O  O225  1  0.50614489  0.11978949  0.41504565  1
  O  O226  1  0.49693588  0.12708109  0.66566352  1
  O  O227  1  0.49999438  0.12595952  0.91163808  1
  O  O228  1  0.50069915  0.37210298  0.16401536  1
  O  O229  1  0.50326309  0.37483665  0.41600172  1
  O  O230  1  0.50418388  0.38043414  0.65747432  1
  O  O231  1  0.49748418  0.38031962  0.91510078  1
  O  O232  1  0.49319194  0.62595981  0.16218496  1
  O  O233  1  0.49766028  0.62952713  0.41098814  1
  O  O234  1  0.49233135  0.62113687  0.66201298  1
  O  O235  1  0.50039094  0.62340410  0.92009209  1
  O  O236  1  0.50252439  0.87900592  0.16047259  1
  O  O237  1  0.50613609  0.87595053  0.41535238  1
  O  O238  1  0.48440984  0.86785920  0.66512052  1
  O  O239  1  0.49326852  0.86981022  0.90983607  1
  O  O240  1  0.75268997  0.12449459  0.16657435  1
  O  O241  1  0.74890028  0.11990585  0.42025406  1
  O  O242  1  0.74905247  0.12890828  0.66417388  1
  O  O243  1  0.75146191  0.12758400  0.90764495  1
  O  O244  1  0.75628597  0.37128233  0.16429292  1
  O  O245  1  0.74796329  0.37428249  0.41812640  1
  O  O246  1  0.75425004  0.37865319  0.66227869  1
  O  O247  1  0.75165568  0.37789062  0.91187839  1
  O  O248  1  0.75364165  0.62662324  0.16328238  1
  O  O249  1  0.74234423  0.63014698  0.41014033  1
  O  O250  1  0.75046186  0.62146029  0.65918162  1
  O  O251  1  0.74164156  0.62304172  0.91222252  1
  O  O252  1  0.75826544  0.87807287  0.16441248  1
  O  O253  1  0.74559965  0.87488628  0.42014021  1
  O  O254  1  0.75199663  0.87126578  0.66148182  1
  O  O255  1  0.75655917  0.87136421  0.90375931  1
  O  O256  1  0.11761733  0.12697643  0.04701478  1
  O  O257  1  0.11628335  0.12390190  0.28583606  1
  O  O258  1  0.12695990  0.12592888  0.54611218  1
  O  O259  1  0.13078770  0.12674713  0.78503755  1
  O  O260  1  0.12143549  0.38083478  0.03445636  1
  O  O261  1  0.12339262  0.37138132  0.29811838  1
  O  O262  1  0.12768274  0.37125643  0.53474198  1
  O  O263  1  0.12550601  0.38005707  0.80019767  1
  O  O264  1  0.12084808  0.61867500  0.03583625  1
  O  O265  1  0.12649712  0.62843048  0.29430187  1
  O  O266  1  0.12942960  0.62620493  0.54675789  1
  O  O267  1  0.12898680  0.62461770  0.80563379  1
  O  O268  1  0.12491223  0.87549648  0.03167420  1
  O  O269  1  0.12224645  0.87713985  0.30063643  1
  O  O270  1  0.13582903  0.87350321  0.53817521  1
  O  O271  1  0.12873571  0.86913933  0.80029029  1
  O  O272  1  0.37666544  0.13026111  0.02653545  1
  O  O273  1  0.37780322  0.12010230  0.30187512  1
  O  O274  1  0.38424867  0.12488768  0.53298734  1
  O  O275  1  0.36761669  0.12911791  0.78923211  1
  O  O276  1  0.37731745  0.36916021  0.03423627  1
  O  O277  1  0.37667257  0.36640905  0.29051519  1
  O  O278  1  0.36568108  0.37860941  0.52918379  1
  O  O279  1  0.37597611  0.38552042  0.80291311  1
  O  O280  1  0.37588630  0.62389613  0.04438894  1
  O  O281  1  0.37536715  0.62782400  0.29709191  1
  O  O282  1  0.37305141  0.62526481  0.54781459  1
  O  O283  1  0.37574685  0.62244790  0.80472465  1
  O  O284  1  0.37240341  0.87620952  0.03265071  1
  O  O285  1  0.37667709  0.88345083  0.28671466  1
  O  O286  1  0.36789987  0.87208204  0.54749030  1
  O  O287  1  0.36816114  0.86653870  0.80171219  1
  O  O288  1  0.63362423  0.12400358  0.04296743  1
  O  O289  1  0.62819298  0.11773889  0.30330588  1
  O  O290  1  0.62158762  0.12807380  0.53913767  1
  O  O291  1  0.61894982  0.12749704  0.77800175  1
  O  O292  1  0.62955622  0.37946913  0.03675078  1
  O  O293  1  0.62844321  0.36998078  0.28304893  1
  O  O294  1  0.62596900  0.37796572  0.54682865  1
  O  O295  1  0.62281913  0.38359849  0.79858272  1
  O  O296  1  0.62924165  0.62808275  0.03437298  1
  O  O297  1  0.62380961  0.63211245  0.29865278  1
  O  O298  1  0.61982081  0.63122060  0.53248367  1
  O  O299  1  0.61693996  0.61852216  0.80296719  1
  O  O300  1  0.62945546  0.86996066  0.03149340  1
  O  O301  1  0.62754038  0.87856402  0.30470836  1
  O  O302  1  0.62183684  0.86114493  0.54029560  1
  O  O303  1  0.61760868  0.86975181  0.78052543  1
  O  O304  1  0.87264225  0.12461916  0.04510874  1
  O  O305  1  0.87195272  0.12094124  0.30606752  1
  O  O306  1  0.87051604  0.12267779  0.53875304  1
  O  O307  1  0.88275187  0.13390882  0.77964108  1
  O  O308  1  0.87508014  0.36821066  0.04867586  1
  O  O309  1  0.86896731  0.37159043  0.28585032  1
  O  O310  1  0.87575406  0.37697400  0.54660734  1
  O  O311  1  0.87771864  0.38174024  0.79784582  1
  O  O312  1  0.87785122  0.62987749  0.02723682  1
  O  O313  1  0.87909045  0.63119003  0.29078563  1
  O  O314  1  0.88040385  0.62037698  0.52860296  1
  O  O315  1  0.87879367  0.61592766  0.79602981  1
  O  O316  1  0.87386846  0.87994822  0.04520408  1
  O  O317  1  0.87354003  0.87837595  0.30631934  1
  O  O318  1  0.88336708  0.87828741  0.53210815  1
  O  O319  1  0.88111389  0.86740609  0.79333164  1
