# generated using pymatgen
data_VFe(PbO3)2
_symmetry_space_group_name_H-M   'P 1'
_cell_length_a   15.39205366
_cell_length_b   15.36489410
_cell_length_c   18.53363926
_cell_angle_alpha   90.01940322
_cell_angle_beta   90.01172896
_cell_angle_gamma   89.99859213
_symmetry_Int_Tables_number   1
_chemical_formula_structural   VFe(PbO3)2
_chemical_formula_sum   'V32 Fe32 Pb64 O192'
_cell_volume   4383.15482665
_cell_formula_units_Z   32
loop_
 _symmetry_equiv_pos_site_id
 _symmetry_equiv_pos_as_xyz
  1  'x, y, z'
loop_
 _atom_site_type_symbol
 _atom_site_label
 _atom_site_symmetry_multiplicity
 _atom_site_fract_x
 _atom_site_fract_y
 _atom_site_fract_z
 _atom_site_occupancy
  V  V0  1  0.87302054  0.37536955  0.88653383  1
  V  V1  1  0.62129080  0.37493108  0.89167421  1
  V  V2  1  0.12520607  0.12673537  0.38713611  1
  V  V3  1  0.37643165  0.12477914  0.89394517  1
  V  V4  1  0.62755797  0.12735517  0.14052901  1
  V  V5  1  0.87464939  0.62412650  0.13598546  1
  V  V6  1  0.63197033  0.87442389  0.63698423  1
  V  V7  1  0.37728969  0.87327050  0.38237242  1
  V  V8  1  0.12368703  0.37533516  0.38869793  1
  V  V9  1  0.12298847  0.62363061  0.13440723  1
  V  V10  1  0.62322046  0.12599566  0.88769119  1
  V  V11  1  0.12194615  0.12626712  0.13505025  1
  V  V12  1  0.61828676  0.37678548  0.39203260  1
  V  V13  1  0.12961516  0.62939845  0.64253084  1
  V  V14  1  0.62499249  0.62172330  0.14061863  1
  V  V15  1  0.62308188  0.87845775  0.89273739  1
  V  V16  1  0.12565723  0.87589598  0.38768161  1
  V  V17  1  0.87852646  0.62199068  0.39199987  1
  V  V18  1  0.12761003  0.12118926  0.64071587  1
  V  V19  1  0.12643716  0.62470147  0.88910575  1
  V  V20  1  0.87338030  0.87591402  0.14071666  1
  V  V21  1  0.87640408  0.37360870  0.63903359  1
  V  V22  1  0.87638871  0.62532571  0.64202083  1
  V  V23  1  0.12625595  0.12530388  0.88985546  1
  V  V24  1  0.37695615  0.87449901  0.63840470  1
  V  V25  1  0.12498965  0.62339613  0.38908089  1
  V  V26  1  0.37926896  0.62781946  0.89685939  1
  V  V27  1  0.87516373  0.37571445  0.39318209  1
  V  V28  1  0.12638231  0.87677984  0.89453143  1
  V  V29  1  0.87990683  0.87415104  0.63999145  1
  V  V30  1  0.87311655  0.37410025  0.13818317  1
  V  V31  1  0.62503724  0.62607132  0.88795673  1
  Fe  Fe32  1  0.37144713  0.62469420  0.38504860  1
  Fe  Fe33  1  0.12496860  0.37504888  0.88229669  1
  Fe  Fe34  1  0.62670914  0.12506397  0.38575450  1
  Fe  Fe35  1  0.37217269  0.12507421  0.38299099  1
  Fe  Fe36  1  0.87316253  0.87386738  0.88675616  1
  Fe  Fe37  1  0.37486800  0.87517458  0.89715092  1
  Fe  Fe38  1  0.37409427  0.87461660  0.13186368  1
  Fe  Fe39  1  0.87422673  0.12558311  0.13073140  1
  Fe  Fe40  1  0.37363409  0.37578100  0.63075276  1
  Fe  Fe41  1  0.62635093  0.37586074  0.62887983  1
  Fe  Fe42  1  0.62530457  0.62257611  0.38539521  1
  Fe  Fe43  1  0.87365484  0.12337616  0.89360185  1
  Fe  Fe44  1  0.37025234  0.37545442  0.39024616  1
  Fe  Fe45  1  0.37586050  0.62680823  0.63289878  1
  Fe  Fe46  1  0.62883685  0.87286951  0.37505784  1
  Fe  Fe47  1  0.62807707  0.37421342  0.13386513  1
  Fe  Fe48  1  0.62488017  0.12304224  0.63130596  1
  Fe  Fe49  1  0.12259297  0.37492155  0.64636307  1
  Fe  Fe50  1  0.62560687  0.62822686  0.63409404  1
  Fe  Fe51  1  0.37526438  0.37525320  0.13184364  1
  Fe  Fe52  1  0.37389732  0.37554150  0.89016017  1
  Fe  Fe53  1  0.37407298  0.62310385  0.13200549  1
  Fe  Fe54  1  0.87885680  0.87373857  0.38172369  1
  Fe  Fe55  1  0.87291534  0.62704208  0.88755124  1
  Fe  Fe56  1  0.12126067  0.37404599  0.13354787  1
  Fe  Fe57  1  0.62566862  0.87475766  0.14631149  1
  Fe  Fe58  1  0.12563740  0.87396110  0.63664852  1
  Fe  Fe59  1  0.12192757  0.87560188  0.13307208  1
  Fe  Fe60  1  0.37426253  0.12339364  0.63143773  1
  Fe  Fe61  1  0.87884038  0.12773376  0.39188091  1
  Fe  Fe62  1  0.87728318  0.12309089  0.63188492  1
  Fe  Fe63  1  0.37380749  0.12523324  0.13669909  1
  Pb  Pb64  1  -0.00236877  -0.00042200  0.00105521  1
  Pb  Pb65  1  -0.01052686  0.00003491  0.25053201  1
  Pb  Pb66  1  -0.00314738  0.00305743  0.49890014  1
  Pb  Pb67  1  -0.00670502  0.00324989  0.75473708  1
  Pb  Pb68  1  0.00211238  0.25355834  -0.00089639  1
  Pb  Pb69  1  -0.00529995  0.24187906  0.24930235  1
  Pb  Pb70  1  0.00836172  0.25477262  0.50536981  1
  Pb  Pb71  1  0.00109345  0.24448138  0.75135461  1
  Pb  Pb72  1  0.00428355  0.49455966  -0.00250799  1
  Pb  Pb73  1  -0.00145614  0.49943108  0.24680554  1
  Pb  Pb74  1  0.00957387  0.49581835  0.50738308  1
  Pb  Pb75  1  0.00287417  0.50048113  0.75370725  1
  Pb  Pb76  1  0.00193752  0.75405299  -0.00020062  1
  Pb  Pb77  1  -0.00561804  0.75443196  0.24905682  1
  Pb  Pb78  1  0.00735597  0.75505776  0.50119645  1
  Pb  Pb79  1  -0.00557213  0.74868580  0.75632883  1
  Pb  Pb80  1  0.25536180  0.00287416  0.00690533  1
  Pb  Pb81  1  0.25289369  0.00236703  0.24240650  1
  Pb  Pb82  1  0.25136712  0.00078086  0.49739387  1
  Pb  Pb83  1  0.25492457  -0.00605442  0.75211859  1
  Pb  Pb84  1  0.24963939  0.26055877  0.00179712  1
  Pb  Pb85  1  0.25959953  0.25622651  0.24673730  1
  Pb  Pb86  1  0.25787141  0.25362267  0.50233979  1
  Pb  Pb87  1  0.25671285  0.25929905  0.74934379  1
  Pb  Pb88  1  0.25401959  0.49816405  0.00209549  1
  Pb  Pb89  1  0.26193017  0.49494678  0.24992217  1
  Pb  Pb90  1  0.25634899  0.49754790  0.50454690  1
  Pb  Pb91  1  0.25855308  0.49026067  0.75188505  1
  Pb  Pb92  1  0.24973052  0.75381585  0.00591242  1
  Pb  Pb93  1  0.25469851  0.74694480  0.24193092  1
  Pb  Pb94  1  0.24865829  0.75413353  0.49956336  1
  Pb  Pb95  1  0.25823757  0.75806770  0.75550947  1
  Pb  Pb96  1  0.49362885  0.00072707  0.00906885  1
  Pb  Pb97  1  0.49871969  0.00531812  0.24696135  1
  Pb  Pb98  1  0.50588796  0.00607018  0.49085038  1
  Pb  Pb99  1  0.49881406  0.00056040  0.74626155  1
  Pb  Pb100  1  0.49239727  0.25247229  0.00429826  1
  Pb  Pb101  1  0.49475885  0.25216795  0.24692565  1
  Pb  Pb102  1  0.49411256  0.23949006  0.49838561  1
  Pb  Pb103  1  0.49708808  0.25403360  0.73831963  1
  Pb  Pb104  1  0.49205912  0.49948867  0.00381566  1
  Pb  Pb105  1  0.49126169  0.49764181  0.24933156  1
  Pb  Pb106  1  0.48854532  0.50486662  0.50018068  1
  Pb  Pb107  1  0.49816409  0.49688027  0.73971408  1
  Pb  Pb108  1  0.50428960  0.76174810  0.01045329  1
  Pb  Pb109  1  0.49971516  0.74996024  0.24574473  1
  Pb  Pb110  1  0.50456313  0.73832062  0.49384752  1
  Pb  Pb111  1  0.49852362  0.75090745  0.74901465  1
  Pb  Pb112  1  0.75203884  0.00279902  0.00237767  1
  Pb  Pb113  1  0.74482861  0.00413821  0.25546661  1
  Pb  Pb114  1  0.75281260  0.00346198  0.48895363  1
  Pb  Pb115  1  0.76025629  0.00452460  0.75231126  1
  Pb  Pb116  1  0.74602316  0.25078361  0.00014557  1
  Pb  Pb117  1  0.75056231  0.23752057  0.25614771  1
  Pb  Pb118  1  0.74145400  0.24471115  0.50331982  1
  Pb  Pb119  1  0.74786269  0.24264397  0.74239965  1
  Pb  Pb120  1  0.74222997  0.49628714  -0.00048559  1
  Pb  Pb121  1  0.74418087  0.50319277  0.25349164  1
  Pb  Pb122  1  0.74077069  0.49966813  0.50613164  1
  Pb  Pb123  1  0.74941522  0.50470416  0.74562401  1
  Pb  Pb124  1  0.74374662  0.75546479  0.00275422  1
  Pb  Pb125  1  0.74488600  0.74842217  0.25438275  1
  Pb  Pb126  1  0.74510967  0.75025029  0.49332673  1
  Pb  Pb127  1  0.75934956  0.75197914  0.75553263  1
  O  O128  1  0.11888323  0.00724324  0.16029457  1
  O  O129  1  0.12525557  0.00277477  0.41001445  1
  O  O130  1  0.12452152  0.00188847  0.66666332  1
  O  O131  1  0.12697196  -0.00022880  0.91567675  1
  O  O132  1  0.11951179  0.24338706  0.16139193  1
  O  O133  1  0.12347711  0.24790437  0.41293718  1
  O  O134  1  0.12133981  0.24001148  0.66691304  1
  O  O135  1  0.12483724  0.24311570  0.91046573  1
  O  O136  1  0.11512035  0.50650701  0.15851139  1
  O  O137  1  0.12192443  0.50378028  0.41375987  1
  O  O138  1  0.11959982  0.51206323  0.66672238  1
  O  O139  1  0.12407094  0.50615481  0.90956865  1
  O  O140  1  0.11887541  0.74127580  0.16116157  1
  O  O141  1  0.12436295  0.74649550  0.41333003  1
  O  O142  1  0.12214094  0.74667325  0.67054076  1
  O  O143  1  0.12624220  0.75154812  0.91446441  1
  O  O144  1  0.37469865  0.00031778  0.16307411  1
  O  O145  1  0.36926554  -0.00887819  0.40904943  1
  O  O146  1  0.37364512  -0.00695528  0.66410570  1
  O  O147  1  0.37447119  0.00622076  0.91851483  1
  O  O148  1  0.37518457  0.25022609  0.16225433  1
  O  O149  1  0.36959822  0.24988431  0.41347201  1
  O  O150  1  0.37247637  0.24824820  0.65999782  1
  O  O151  1  0.37387961  0.24250210  0.91569272  1
  O  O152  1  0.37475461  0.50020931  0.16352650  1
  O  O153  1  0.36969304  0.50072243  0.41681917  1
  O  O154  1  0.37299648  0.50305220  0.66276765  1
  O  O155  1  0.37188628  0.50714928  0.91507020  1
  O  O156  1  0.37315278  0.74731611  0.15925901  1
  O  O157  1  0.36800712  0.75731793  0.40958347  1
  O  O158  1  0.37418772  0.75623657  0.66565484  1
  O  O159  1  0.37243390  0.74444630  0.91922029  1
  O  O160  1  0.62929295  0.00686405  0.16333384  1
  O  O161  1  0.62545134  -0.00403684  0.40727134  1
  O  O162  1  0.62349897  -0.01077453  0.66377102  1
  O  O163  1  0.62218166  -0.00158580  0.91484974  1
  O  O164  1  0.63010763  0.24602468  0.16405425  1
  O  O165  1  0.63141595  0.25996723  0.41242557  1
  O  O166  1  0.62898510  0.25026044  0.66106974  1
  O  O167  1  0.62390172  0.24866510  0.91671033  1
  O  O168  1  0.63146378  0.50380989  0.16426725  1
  O  O169  1  0.63219162  0.49452597  0.41548412  1
  O  O170  1  0.63017309  0.50147650  0.66145277  1
  O  O171  1  0.62396919  0.50148158  0.91582107  1
  O  O172  1  0.63072218  0.73927484  0.16512438  1
  O  O173  1  0.62778933  0.74949686  0.41036916  1
  O  O174  1  0.62438522  0.76028257  0.66695220  1
  O  O175  1  0.62228191  0.75160989  0.91696048  1
  O  O176  1  0.87708452  -0.00524306  0.15868830  1
  O  O177  1  0.88165268  -0.00073371  0.41223416  1
  O  O178  1  0.87526097  -0.00784721  0.66311135  1
  O  O179  1  0.87317625  -0.00334274  0.91975656  1
  O  O180  1  0.87434223  0.25592639  0.15928767  1
  O  O181  1  0.88388333  0.26073835  0.41479798  1
  O  O182  1  0.87798684  0.25439246  0.65954661  1
  O  O183  1  0.87388103  0.25692375  0.91176135  1
  O  O184  1  0.87673643  0.49861985  0.16451383  1
  O  O185  1  0.88492355  0.50152231  0.42058631  1
  O  O186  1  0.87618595  0.49959241  0.66507488  1
  O  O187  1  0.87451748  0.49452943  0.91200930  1
  O  O188  1  0.87629728  0.74852873  0.16296510  1
  O  O189  1  0.88212255  0.73939417  0.41216975  1
  O  O190  1  0.87420489  0.75487923  0.66695387  1
  O  O191  1  0.87401792  0.75106904  0.91806234  1
  O  O192  1  0.00009840  0.12643455  0.16177132  1
  O  O193  1  0.01023433  0.12592772  0.41622233  1
  O  O194  1  0.00378655  0.12022537  0.66728289  1
  O  O195  1  0.00836704  0.12226615  0.91328054  1
  O  O196  1  -0.00806354  0.37520769  0.16570138  1
  O  O197  1  0.00254160  0.37829156  0.42160390  1
  O  O198  1  -0.00762933  0.37690634  0.67049050  1
  O  O199  1  -0.00538148  0.37491164  0.90940654  1
  O  O200  1  -0.00338142  0.62457576  0.16448733  1
  O  O201  1  0.00527450  0.62448869  0.41890392  1
  O  O202  1  -0.00118406  0.63002769  0.66982959  1
  O  O203  1  0.00767074  0.62764847  0.91206625  1
  O  O204  1  -0.00472348  0.87251120  0.16460586  1
  O  O205  1  0.00611739  0.87171661  0.41484304  1
  O  O206  1  -0.00461955  0.87309016  0.66293219  1
  O  O207  1  0.00615963  0.87562147  0.91272214  1
  O  O208  1  0.24020614  0.12486348  0.15731477  1
  O  O209  1  0.24112275  0.12405019  0.41309504  1
  O  O210  1  0.24443939  0.12048798  0.66322813  1
  O  O211  1  0.24779250  0.12298969  0.91528841  1
  O  O212  1  0.24565144  0.37474644  0.15705587  1
  O  O213  1  0.23963203  0.37656972  0.41477569  1
  O  O214  1  0.24784541  0.37632805  0.66510750  1
  O  O215  1  0.24764170  0.37385633  0.91467098  1
  O  O216  1  0.23920709  0.62315624  0.15384924  1
  O  O217  1  0.23979684  0.62556585  0.41366337  1
  O  O218  1  0.24470512  0.63038524  0.66136424  1
  O  O219  1  0.24452262  0.62744783  0.91688252  1
  O  O220  1  0.24640530  0.87427664  0.15898637  1
  O  O221  1  0.24781483  0.87420368  0.41493857  1
  O  O222  1  0.25489114  0.87406666  0.66582571  1
  O  O223  1  0.24422393  0.87526126  0.91957149  1
  O  O224  1  0.50799563  0.12640164  0.16131465  1
  O  O225  1  0.49913366  0.12577386  0.40952636  1
  O  O226  1  0.49979066  0.12000692  0.66382288  1
  O  O227  1  0.49733789  0.12480288  0.91609928  1
  O  O228  1  0.50370528  0.37543819  0.16180146  1
  O  O229  1  0.50384559  0.37733538  0.40445736  1
  O  O230  1  0.50046750  0.37595727  0.65691160  1
  O  O231  1  0.50133374  0.37467811  0.91417635  1
  O  O232  1  0.50763618  0.62231919  0.15784361  1
  O  O233  1  0.49854582  0.62409992  0.40918216  1
  O  O234  1  0.50057921  0.63047085  0.66580880  1
  O  O235  1  0.49788821  0.62489496  0.91538275  1
  O  O236  1  0.49882154  0.87206738  0.16511501  1
  O  O237  1  0.49232889  0.87304926  0.39885616  1
  O  O238  1  0.49712025  0.87452394  0.66113363  1
  O  O239  1  0.50540942  0.87466572  0.91842076  1
  O  O240  1  0.74959542  0.12557756  0.16421608  1
  O  O241  1  0.75263672  0.12914419  0.41300830  1
  O  O242  1  0.75189520  0.12088577  0.66193050  1
  O  O243  1  0.74263851  0.12385962  0.91502963  1
  O  O244  1  0.75797115  0.37751847  0.16438884  1
  O  O245  1  0.76192541  0.38010048  0.41468133  1
  O  O246  1  0.76000352  0.37595612  0.66262607  1
  O  O247  1  0.75282797  0.37551046  0.91361906  1
  O  O248  1  0.75385390  0.62267087  0.16509490  1
  O  O249  1  0.76221847  0.62030777  0.41231682  1
  O  O250  1  0.75459771  0.62953704  0.66536939  1
  O  O251  1  0.74362680  0.62577679  0.91406939  1
  O  O252  1  0.75874653  0.87204211  0.16305973  1
  O  O253  1  0.75432440  0.87095660  0.40724968  1
  O  O254  1  0.75016125  0.87406410  0.65914985  1
  O  O255  1  0.74090888  0.87453275  0.91645450  1
  O  O256  1  0.11940169  0.12740616  0.04361445  1
  O  O257  1  0.12256653  0.12857815  0.29642758  1
  O  O258  1  0.12539958  0.12270832  0.54958141  1
  O  O259  1  0.12650677  0.12179254  0.79914824  1
  O  O260  1  0.11268141  0.37179095  0.03304110  1
  O  O261  1  0.11989392  0.37574509  0.29769851  1
  O  O262  1  0.11506692  0.37467899  0.54566978  1
  O  O263  1  0.12345477  0.37619262  0.78162786  1
  O  O264  1  0.11752299  0.62499590  0.04305592  1
  O  O265  1  0.12233033  0.62355701  0.29862100  1
  O  O266  1  0.12392993  0.63084175  0.55118898  1
  O  O267  1  0.12841268  0.62777045  0.79842364  1
  O  O268  1  0.11817755  0.87128529  0.03362343  1
  O  O269  1  0.12544110  0.87401956  0.29674662  1
  O  O270  1  0.12821784  0.86824613  0.53765054  1
  O  O271  1  0.12915275  0.87682773  0.80326935  1
  O  O272  1  0.37792824  0.12129529  0.03595129  1
  O  O273  1  0.37051259  0.12540037  0.28248018  1
  O  O274  1  0.37439853  0.12248026  0.53138452  1
  O  O275  1  0.37598880  0.12261953  0.80310797  1
  O  O276  1  0.37628454  0.37503080  0.02964268  1
  O  O277  1  0.36720632  0.37901988  0.28814389  1
  O  O278  1  0.36642280  0.37815336  0.52940078  1
  O  O279  1  0.36888143  0.37550959  0.78956448  1
  O  O280  1  0.37337662  0.61583690  0.03182942  1
  O  O281  1  0.36629686  0.61958901  0.28460620  1
  O  O282  1  0.37748722  0.62449039  0.53278129  1
  O  O283  1  0.37491508  0.62971376  0.80570235  1
  O  O284  1  0.37887375  0.87849570  0.02912614  1
  O  O285  1  0.36743497  0.87203628  0.29140378  1
  O  O286  1  0.37469909  0.87374405  0.54797360  1
  O  O287  1  0.36932851  0.87378570  0.79680242  1
  O  O288  1  0.62917511  0.12823321  0.04911908  1
  O  O289  1  0.63503375  0.12599714  0.28489159  1
  O  O290  1  0.62231764  0.12507314  0.53061836  1
  O  O291  1  0.62241482  0.12540737  0.79687204  1
  O  O292  1  0.63489171  0.37550414  0.03390103  1
  O  O293  1  0.63188671  0.37903851  0.30127508  1
  O  O294  1  0.63485318  0.37600530  0.52908358  1
  O  O295  1  0.62701325  0.37432041  0.80105521  1
  O  O296  1  0.63008128  0.62228882  0.04924480  1
  O  O297  1  0.63484036  0.62079759  0.28578927  1
  O  O298  1  0.62719229  0.63222519  0.53380928  1
  O  O299  1  0.62309512  0.62762078  0.79722218  1
  O  O300  1  0.62530179  0.86619033  0.04467469  1
  O  O301  1  0.63218335  0.86978639  0.27324863  1
  O  O302  1  0.62851045  0.87208784  0.54620637  1
  O  O303  1  0.62356823  0.87697143  0.80215232  1
  O  O304  1  0.87212025  0.12346530  0.03070694  1
  O  O305  1  0.88022345  0.13150251  0.28983457  1
  O  O306  1  0.88276991  0.11948248  0.53238956  1
  O  O307  1  0.87586979  0.11458410  0.79240019  1
  O  O308  1  0.87536848  0.37731744  0.04685421  1
  O  O309  1  0.87892474  0.37962568  0.30229671  1
  O  O310  1  0.88101583  0.37725727  0.54822985  1
  O  O311  1  0.87113833  0.37549551  0.79588943  1
  O  O312  1  0.87470221  0.62277341  0.04509483  1
  O  O313  1  0.88211113  0.61736953  0.30099086  1
  O  O314  1  0.87822160  0.62676980  0.55123220  1
  O  O315  1  0.87279581  0.63412746  0.78756727  1
  O  O316  1  0.87511301  0.87301270  0.04900032  1
  O  O317  1  0.88522362  0.87466501  0.28202521  1
  O  O318  1  0.87895369  0.87122026  0.54922421  1
  O  O319  1  0.86969586  0.87452422  0.78635936  1
