# generated using pymatgen
data_VFe(PbO3)2
_symmetry_space_group_name_H-M   'P 1'
_cell_length_a   15.38614085
_cell_length_b   15.37992871
_cell_length_c   18.56465462
_cell_angle_alpha   90.04193142
_cell_angle_beta   90.04020966
_cell_angle_gamma   89.99165695
_symmetry_Int_Tables_number   1
_chemical_formula_structural   VFe(PbO3)2
_chemical_formula_sum   'V32 Fe32 Pb64 O192'
_cell_volume   4393.09578207
_cell_formula_units_Z   32
loop_
 _symmetry_equiv_pos_site_id
 _symmetry_equiv_pos_as_xyz
  1  'x, y, z'
loop_
 _atom_site_type_symbol
 _atom_site_label
 _atom_site_symmetry_multiplicity
 _atom_site_fract_x
 _atom_site_fract_y
 _atom_site_fract_z
 _atom_site_occupancy
  V  V0  1  0.37468326  0.37684204  0.89515050  1
  V  V1  1  0.37241323  0.12888930  0.88762746  1
  V  V2  1  0.12341869  0.62428144  0.38369617  1
  V  V3  1  0.62420293  0.36943661  0.13547104  1
  V  V4  1  0.87511430  0.12281553  0.39701178  1
  V  V5  1  0.87851477  0.12785381  0.88167105  1
  V  V6  1  0.87158800  0.87292037  0.39218372  1
  V  V7  1  0.37229484  0.37654178  0.63534747  1
  V  V8  1  0.37201213  0.87615653  0.63389235  1
  V  V9  1  0.87702399  0.62500466  0.38785944  1
  V  V10  1  0.87654987  0.87818319  0.64615083  1
  V  V11  1  0.87402808  0.87894284  0.13206052  1
  V  V12  1  0.62853513  0.12477296  0.39420087  1
  V  V13  1  0.12481596  0.12502488  0.63535455  1
  V  V14  1  0.37426739  0.87871702  0.89018222  1
  V  V15  1  0.12950720  0.62635683  0.89763580  1
  V  V16  1  0.12483291  0.87806858  0.14032597  1
  V  V17  1  0.62884121  0.38062941  0.64377060  1
  V  V18  1  0.37409538  0.62554943  0.89737312  1
  V  V19  1  0.12567522  0.37504042  0.89450120  1
  V  V20  1  0.12267893  0.62433741  0.64296462  1
  V  V21  1  0.37306863  0.62583601  0.63779967  1
  V  V22  1  0.38727380  0.62403661  0.38288487  1
  V  V23  1  0.87229255  0.62561087  0.64519941  1
  V  V24  1  0.37697716  0.12427490  0.14449109  1
  V  V25  1  0.87287336  0.12400790  0.13915781  1
  V  V26  1  0.87240859  0.37452626  0.13392485  1
  V  V27  1  0.62350229  0.62353111  0.88977336  1
  V  V28  1  0.62546650  0.37441605  0.39021587  1
  V  V29  1  0.37651684  0.87570029  0.14390376  1
  V  V30  1  0.62478825  0.87997515  0.13875824  1
  V  V31  1  0.87157485  0.37383872  0.39125938  1
  Fe  Fe32  1  0.87678504  0.87724161  0.88135847  1
  Fe  Fe33  1  0.87594402  0.12597218  0.63368653  1
  Fe  Fe34  1  0.37563289  0.12594662  0.39381060  1
  Fe  Fe35  1  0.87709589  0.62265828  0.89440490  1
  Fe  Fe36  1  0.62853786  0.87341399  0.38820599  1
  Fe  Fe37  1  0.12152241  0.87251343  0.38470267  1
  Fe  Fe38  1  0.88018122  0.37694135  0.64211693  1
  Fe  Fe39  1  0.62149386  0.87374135  0.87923931  1
  Fe  Fe40  1  0.62641768  0.62560723  0.13319783  1
  Fe  Fe41  1  0.37326728  0.12574568  0.62447041  1
  Fe  Fe42  1  0.12388449  0.62713670  0.12987306  1
  Fe  Fe43  1  0.37676813  0.37901040  0.37963592  1
  Fe  Fe44  1  0.12125872  0.37733461  0.37795626  1
  Fe  Fe45  1  0.12063208  0.12489240  0.37991852  1
  Fe  Fe46  1  0.62269024  0.12602444  0.63860923  1
  Fe  Fe47  1  0.62261472  0.62332371  0.63745349  1
  Fe  Fe48  1  0.12873694  0.87684922  0.88310807  1
  Fe  Fe49  1  0.12681280  0.37875429  0.63355009  1
  Fe  Fe50  1  0.37677994  0.87128590  0.38340061  1
  Fe  Fe51  1  0.12517530  0.87074615  0.64054054  1
  Fe  Fe52  1  0.62156080  0.12564864  0.87880880  1
  Fe  Fe53  1  0.37643069  0.62772734  0.13317157  1
  Fe  Fe54  1  0.62436219  0.12414272  0.13590665  1
  Fe  Fe55  1  0.62346182  0.86981445  0.64292259  1
  Fe  Fe56  1  0.63527718  0.62295587  0.38559694  1
  Fe  Fe57  1  0.37705973  0.37298319  0.13975345  1
  Fe  Fe58  1  0.12904750  0.12764490  0.88599925  1
  Fe  Fe59  1  0.62163477  0.37567073  0.88125711  1
  Fe  Fe60  1  0.12296006  0.37173902  0.14210749  1
  Fe  Fe61  1  0.87546988  0.37314368  0.88367477  1
  Fe  Fe62  1  0.12554227  0.12228317  0.14577347  1
  Fe  Fe63  1  0.87485851  0.63125597  0.12494598  1
  Pb  Pb64  1  0.00633696  0.00418295  -0.00669843  1
  Pb  Pb65  1  0.00641714  -0.00147893  0.25437403  1
  Pb  Pb66  1  0.00525080  -0.00114237  0.49969448  1
  Pb  Pb67  1  0.00444497  -0.00638356  0.75166618  1
  Pb  Pb68  1  0.01575505  0.24654702  0.00651800  1
  Pb  Pb69  1  0.00630520  0.24686076  0.25259575  1
  Pb  Pb70  1  0.00258565  0.25803633  0.49866721  1
  Pb  Pb71  1  -0.00007641  0.25322788  0.74474936  1
  Pb  Pb72  1  0.00294459  0.50300997  0.00321820  1
  Pb  Pb73  1  0.00382935  0.50096553  0.24037539  1
  Pb  Pb74  1  -0.00137841  0.49149064  0.50360091  1
  Pb  Pb75  1  -0.00524024  0.49966421  0.75830606  1
  Pb  Pb76  1  -0.00063016  0.75012656  -0.00462847  1
  Pb  Pb77  1  0.00037341  0.75323262  0.24321425  1
  Pb  Pb78  1  0.00234675  0.75382871  0.50331783  1
  Pb  Pb79  1  -0.00803367  0.75046915  0.76004434  1
  Pb  Pb80  1  0.24445350  0.00497500  0.00191173  1
  Pb  Pb81  1  0.25902839  -0.00070418  0.25986133  1
  Pb  Pb82  1  0.24910023  0.00090501  0.48893504  1
  Pb  Pb83  1  0.23968395  0.00259243  0.74926868  1
  Pb  Pb84  1  0.24953955  0.25831549  0.01279944  1
  Pb  Pb85  1  0.24706283  0.25480419  0.25185503  1
  Pb  Pb86  1  0.24819655  0.25226609  0.48465095  1
  Pb  Pb87  1  0.24637076  0.24325279  0.74537373  1
  Pb  Pb88  1  0.25266635  0.49030535  0.01269280  1
  Pb  Pb89  1  0.25047903  0.49711412  0.23927373  1
  Pb  Pb90  1  0.24375229  0.49512359  0.49120565  1
  Pb  Pb91  1  0.25139288  0.50125816  0.75116834  1
  Pb  Pb92  1  0.25256093  0.74435986  0.00511473  1
  Pb  Pb93  1  0.24916274  0.75447362  0.24738390  1
  Pb  Pb94  1  0.24464678  0.75672170  0.49691081  1
  Pb  Pb95  1  0.24811065  0.75344640  0.75205665  1
  Pb  Pb96  1  0.50694154  0.00395320  -0.00274129  1
  Pb  Pb97  1  0.49393153  -0.00080547  0.25953557  1
  Pb  Pb98  1  0.49851845  -0.00144468  0.49761735  1
  Pb  Pb99  1  0.50385906  0.00558822  0.74278394  1
  Pb  Pb100  1  0.50212152  0.24992110  -0.00169009  1
  Pb  Pb101  1  0.48729141  0.24460509  0.25948652  1
  Pb  Pb102  1  0.49716355  0.24605423  0.50226243  1
  Pb  Pb103  1  0.50315628  0.25125768  0.74782641  1
  Pb  Pb104  1  0.49938038  0.50591925  0.00587810  1
  Pb  Pb105  1  0.49904199  0.50155106  0.24281155  1
  Pb  Pb106  1  0.51085944  0.50626452  0.49993636  1
  Pb  Pb107  1  0.50041704  0.49615413  0.75263976  1
  Pb  Pb108  1  0.50122812  0.74303286  0.00405868  1
  Pb  Pb109  1  0.50911486  0.74993115  0.24886512  1
  Pb  Pb110  1  0.51614881  0.75536848  0.50206084  1
  Pb  Pb111  1  0.50199922  0.75078249  0.74922961  1
  Pb  Pb112  1  0.74504329  0.00305045  -0.01265637  1
  Pb  Pb113  1  0.74648095  -0.00765473  0.25160539  1
  Pb  Pb114  1  0.74630536  0.00804470  0.51058115  1
  Pb  Pb115  1  0.74106883  0.00208965  0.74808503  1
  Pb  Pb116  1  0.74394520  0.24707550  -0.01127116  1
  Pb  Pb117  1  0.75078019  0.24871332  0.24887277  1
  Pb  Pb118  1  0.75209029  0.24406614  0.51162681  1
  Pb  Pb119  1  0.74962846  0.24693497  0.74655559  1
  Pb  Pb120  1  0.75348108  0.49914143  -0.00513841  1
  Pb  Pb121  1  0.74825102  0.50907226  0.24334886  1
  Pb  Pb122  1  0.75892976  0.49580292  0.50432744  1
  Pb  Pb123  1  0.76256685  0.50080696  0.76071020  1
  Pb  Pb124  1  0.75298282  0.75159034  -0.00853698  1
  Pb  Pb125  1  0.74298589  0.74883733  0.24787626  1
  Pb  Pb126  1  0.74212595  0.75024628  0.50527163  1
  Pb  Pb127  1  0.74972804  0.75442995  0.75586070  1
  O  O128  1  0.12406454  -0.00662172  0.16746701  1
  O  O129  1  0.11951407  -0.00157081  0.41209594  1
  O  O130  1  0.12694743  0.00337215  0.65989780  1
  O  O131  1  0.13015754  0.00231097  0.91579593  1
  O  O132  1  0.12127343  0.24627507  0.16852365  1
  O  O133  1  0.11884902  0.25245493  0.40701600  1
  O  O134  1  0.12816035  0.24537346  0.65862046  1
  O  O135  1  0.13035802  0.25456894  0.91645010  1
  O  O136  1  0.12012515  0.50021297  0.15801338  1
  O  O137  1  0.11481627  0.50685375  0.40803185  1
  O  O138  1  0.12788746  0.50827352  0.66846895  1
  O  O139  1  0.13100947  0.49556005  0.91969316  1
  O  O140  1  0.12348314  0.75865994  0.16181082  1
  O  O141  1  0.11629692  0.74171182  0.41342508  1
  O  O142  1  0.12562428  0.74117842  0.67120239  1
  O  O143  1  0.13068981  0.74544183  0.91104809  1
  O  O144  1  0.37733703  0.00047700  0.17168972  1
  O  O145  1  0.37852509  -0.00308206  0.41452525  1
  O  O146  1  0.37277315  -0.00778379  0.64892686  1
  O  O147  1  0.37352877  -0.00100886  0.91174026  1
  O  O148  1  0.37818186  0.24218828  0.16632433  1
  O  O149  1  0.37897618  0.25636483  0.41191768  1
  O  O150  1  0.37181123  0.25945429  0.65309881  1
  O  O151  1  0.37450829  0.24544472  0.91249916  1
  O  O152  1  0.37965638  0.50056445  0.15947993  1
  O  O153  1  0.37321766  0.51046523  0.41288247  1
  O  O154  1  0.37054012  0.50095583  0.66664338  1
  O  O155  1  0.37268002  0.50061873  0.92048886  1
  O  O156  1  0.37725432  0.75617593  0.16555931  1
  O  O157  1  0.37122902  0.73523100  0.41036562  1
  O  O158  1  0.37098101  0.74650858  0.66545315  1
  O  O159  1  0.37301671  0.75225025  0.91629853  1
  O  O160  1  0.62547702  -0.00354763  0.16662273  1
  O  O161  1  0.62956747  0.00703748  0.41304873  1
  O  O162  1  0.62325462  -0.00325904  0.66121425  1
  O  O163  1  0.61985457  0.00045741  0.90859623  1
  O  O164  1  0.63121232  0.25322315  0.16403068  1
  O  O165  1  0.62977425  0.25551552  0.41734497  1
  O  O166  1  0.61878728  0.26127389  0.66282603  1
  O  O167  1  0.61900495  0.24865713  0.91050796  1
  O  O168  1  0.63079386  0.48908865  0.15886968  1
  O  O169  1  0.63143153  0.49353787  0.41582834  1
  O  O170  1  0.61919341  0.49738631  0.66843486  1
  O  O171  1  0.61949852  0.50499442  0.91333218  1
  O  O172  1  0.62775573  0.75910868  0.16050880  1
  O  O173  1  0.63118689  0.74672904  0.41673538  1
  O  O174  1  0.62386574  0.74444177  0.67065903  1
  O  O175  1  0.62048087  0.74456824  0.90990866  1
  O  O176  1  0.87293732  -0.00025264  0.16554752  1
  O  O177  1  0.87233530  -0.00331598  0.41896731  1
  O  O178  1  0.87737395  -0.00472299  0.66141260  1
  O  O179  1  0.87685933  0.00953118  0.90810224  1
  O  O180  1  0.87056868  0.24437435  0.16314169  1
  O  O181  1  0.87208767  0.25478422  0.41560342  1
  O  O182  1  0.87731363  0.25038991  0.66454419  1
  O  O183  1  0.87618757  0.24369454  0.90908611  1
  O  O184  1  0.87303958  0.49106901  0.15109827  1
  O  O185  1  0.87314274  0.49645445  0.41372195  1
  O  O186  1  0.87843750  0.50724678  0.66967398  1
  O  O187  1  0.87759465  0.49569730  0.91830145  1
  O  O188  1  0.87331712  0.76034402  0.15542669  1
  O  O189  1  0.87416159  0.75330117  0.41302216  1
  O  O190  1  0.87907112  0.74437554  0.67015416  1
  O  O191  1  0.87638318  0.75052079  0.91169918  1
  O  O192  1  -0.01198872  0.12137143  0.16544774  1
  O  O193  1  -0.00543687  0.12552818  0.41798296  1
  O  O194  1  0.00737439  0.12378546  0.65973959  1
  O  O195  1  -0.00225817  0.12704728  0.90819268  1
  O  O196  1  -0.01312407  0.36812286  0.16069145  1
  O  O197  1  -0.00927507  0.37646869  0.41161066  1
  O  O198  1  0.00636032  0.37808512  0.66821644  1
  O  O199  1  0.00947631  0.37416991  0.91251102  1
  O  O200  1  -0.00346187  0.62883008  0.15913571  1
  O  O201  1  -0.00476054  0.62502542  0.41706545  1
  O  O202  1  0.00359630  0.62470585  0.66776105  1
  O  O203  1  0.01070002  0.62115735  0.91318467  1
  O  O204  1  0.00108236  0.87785292  0.15878824  1
  O  O205  1  -0.00965337  0.87403497  0.41781547  1
  O  O206  1  -0.00309270  0.87079531  0.66844492  1
  O  O207  1  0.00393325  0.87634129  0.91058354  1
  O  O208  1  0.25884685  0.12131507  0.16747893  1
  O  O209  1  0.24649561  0.12539743  0.40702710  1
  O  O210  1  0.24762529  0.12516566  0.65832024  1
  O  O211  1  0.25884347  0.12421472  0.91769243  1
  O  O212  1  0.25090749  0.37126327  0.16433899  1
  O  O213  1  0.24885461  0.38226463  0.40436890  1
  O  O214  1  0.25409063  0.37978012  0.66301439  1
  O  O215  1  0.25037161  0.37395696  0.92400465  1
  O  O216  1  0.24965591  0.62881490  0.15977088  1
  O  O217  1  0.23753489  0.62266542  0.40206639  1
  O  O218  1  0.24804204  0.62501584  0.66862400  1
  O  O219  1  0.24917682  0.62325222  0.92322809  1
  O  O220  1  0.24713430  0.87706535  0.16429298  1
  O  O221  1  0.24915479  0.86866405  0.41157593  1
  O  O222  1  0.25593749  0.86899218  0.66348408  1
  O  O223  1  0.25732103  0.87464715  0.91871075  1
  O  O224  1  0.49712772  0.12183918  0.16807735  1
  O  O225  1  0.51202725  0.12932454  0.41545124  1
  O  O226  1  0.49369489  0.12704260  0.66008031  1
  O  O227  1  0.48945605  0.12300775  0.91185195  1
  O  O228  1  0.51016441  0.37106790  0.15780948  1
  O  O229  1  0.50920579  0.37924776  0.41123415  1
  O  O230  1  0.49017865  0.38064839  0.66341407  1
  O  O231  1  0.49445210  0.37527115  0.91674758  1
  O  O232  1  0.50344665  0.62776111  0.16529847  1
  O  O233  1  0.50157920  0.62102084  0.40079472  1
  O  O234  1  0.49197607  0.62258749  0.66421929  1
  O  O235  1  0.49972880  0.62500413  0.91707319  1
  O  O236  1  0.50568160  0.87706683  0.16390449  1
  O  O237  1  0.50212423  0.87095575  0.41297298  1
  O  O238  1  0.48771517  0.86831763  0.66087944  1
  O  O239  1  0.49136288  0.87387138  0.91338853  1
  O  O240  1  0.75444278  0.12143474  0.16668705  1
  O  O241  1  0.74780232  0.12845629  0.42219562  1
  O  O242  1  0.75026370  0.12654144  0.66569671  1
  O  O243  1  0.75480991  0.12564134  0.90258625  1
  O  O244  1  0.75345960  0.36976789  0.16304393  1
  O  O245  1  0.75144891  0.37531464  0.41966166  1
  O  O246  1  0.74467511  0.37939364  0.65922439  1
  O  O247  1  0.74804635  0.37430031  0.90938819  1
  O  O248  1  0.75286864  0.62501671  0.15916338  1
  O  O249  1  0.76019303  0.62306816  0.41827951  1
  O  O250  1  0.75593049  0.62354742  0.66470124  1
  O  O251  1  0.74146567  0.62349500  0.90883263  1
  O  O252  1  0.74735361  0.87987005  0.15998879  1
  O  O253  1  0.75706700  0.87540750  0.42085982  1
  O  O254  1  0.75794609  0.86870150  0.66560268  1
  O  O255  1  0.74823090  0.87588304  0.90797517  1
  O  O256  1  0.12124276  0.12289159  0.04440293  1
  O  O257  1  0.11235360  0.12069193  0.27901875  1
  O  O258  1  0.12405765  0.12418717  0.54473370  1
  O  O259  1  0.13809112  0.12580113  0.78658297  1
  O  O260  1  0.12644766  0.36321550  0.04040217  1
  O  O261  1  0.11568085  0.37718250  0.27763855  1
  O  O262  1  0.12074913  0.38457359  0.53400716  1
  O  O263  1  0.13311258  0.37675002  0.80385158  1
  O  O264  1  0.12189473  0.63032407  0.03012317  1
  O  O265  1  0.11447364  0.62775330  0.29277654  1
  O  O266  1  0.12330080  0.62516820  0.55233609  1
  O  O267  1  0.13480837  0.61870568  0.80690196  1
  O  O268  1  0.12746534  0.88015522  0.04937847  1
  O  O269  1  0.11658003  0.87026715  0.28541249  1
  O  O270  1  0.12189788  0.86162893  0.54090482  1
  O  O271  1  0.13212094  0.88160837  0.78244530  1
  O  O272  1  0.37767707  0.12159780  0.05371247  1
  O  O273  1  0.38731187  0.12183920  0.29224739  1
  O  O274  1  0.37958804  0.12826375  0.52426950  1
  O  O275  1  0.36936704  0.12793777  0.79659038  1
  O  O276  1  0.36960422  0.36801276  0.03871049  1
  O  O277  1  0.38307283  0.37430896  0.27960386  1
  O  O278  1  0.37308920  0.38535882  0.54486711  1
  O  O279  1  0.36893817  0.37586835  0.80429757  1
  O  O280  1  0.38205837  0.63220282  0.03243205  1
  O  O281  1  0.37908377  0.62287772  0.29193610  1
  O  O282  1  0.37075165  0.62398691  0.54736576  1
  O  O283  1  0.37187959  0.62423306  0.80643709  1
  O  O284  1  0.37653487  0.88029853  0.05320469  1
  O  O285  1  0.37327178  0.87955363  0.28299323  1
  O  O286  1  0.36980743  0.86534221  0.54310733  1
  O  O287  1  0.37164001  0.87673415  0.79966783  1
  O  O288  1  0.62144484  0.12213525  0.03688078  1
  O  O289  1  0.63223069  0.12950046  0.30343849  1
  O  O290  1  0.63152207  0.13093184  0.53803836  1
  O  O291  1  0.61699765  0.12619406  0.77814676  1
  O  O292  1  0.62702344  0.36731208  0.04441826  1
  O  O293  1  0.63067025  0.37286547  0.29991521  1
  O  O294  1  0.61934237  0.38368643  0.55274408  1
  O  O295  1  0.61423265  0.37761194  0.78167052  1
  O  O296  1  0.61686990  0.62580845  0.03390048  1
  O  O297  1  0.63888730  0.62621985  0.28534076  1
  O  O298  1  0.62048801  0.62358528  0.53733510  1
  O  O299  1  0.61861158  0.62176831  0.79874037  1
  O  O300  1  0.62312270  0.88201991  0.04791389  1
  O  O301  1  0.63639918  0.87208595  0.28859329  1
  O  O302  1  0.62445447  0.86153629  0.54142133  1
  O  O303  1  0.62008358  0.87155464  0.77904736  1
  O  O304  1  0.87279154  0.12409837  0.04877846  1
  O  O305  1  0.87078385  0.12252760  0.30623801  1
  O  O306  1  0.86545445  0.12533109  0.53389981  1
  O  O307  1  0.87951891  0.12810666  0.79074934  1
  O  O308  1  0.87181152  0.36705010  0.04336295  1
  O  O309  1  0.86698026  0.37355502  0.30091583  1
  O  O310  1  0.87960295  0.38507638  0.54146173  1
  O  O311  1  0.87769513  0.38339991  0.78299854  1
  O  O312  1  0.87618115  0.62749637  0.02435110  1
  O  O313  1  0.87555299  0.62436649  0.29693935  1
  O  O314  1  0.87653378  0.62563162  0.55455571  1
  O  O315  1  0.87701880  0.61609250  0.79262854  1
  O  O316  1  0.87278966  0.88280577  0.04139497  1
  O  O317  1  0.87029717  0.87632661  0.30135864  1
  O  O318  1  0.87894188  0.86970298  0.55559408  1
  O  O319  1  0.88015953  0.87254379  0.78107406  1
