# generated using pymatgen
data_VFe(PbO3)2
_symmetry_space_group_name_H-M   'P 1'
_cell_length_a   15.39777332
_cell_length_b   15.37417855
_cell_length_c   18.55558959
_cell_angle_alpha   90.00283961
_cell_angle_beta   90.01224417
_cell_angle_gamma   89.97416888
_symmetry_Int_Tables_number   1
_chemical_formula_structural   VFe(PbO3)2
_chemical_formula_sum   'V32 Fe32 Pb64 O192'
_cell_volume   4392.62921583
_cell_formula_units_Z   32
loop_
 _symmetry_equiv_pos_site_id
 _symmetry_equiv_pos_as_xyz
  1  'x, y, z'
loop_
 _atom_site_type_symbol
 _atom_site_label
 _atom_site_symmetry_multiplicity
 _atom_site_fract_x
 _atom_site_fract_y
 _atom_site_fract_z
 _atom_site_occupancy
  V  V0  1  0.37635412  0.87245573  0.63361962  1
  V  V1  1  0.88619935  0.12617731  0.13876385  1
  V  V2  1  0.62642882  0.62446084  0.14489515  1
  V  V3  1  0.13251626  0.12547196  0.13670033  1
  V  V4  1  0.12437847  0.62421069  0.38993903  1
  V  V5  1  0.88905915  0.37201425  0.40189432  1
  V  V6  1  0.37139984  0.87887658  0.38972873  1
  V  V7  1  0.62154273  0.62395841  0.63088414  1
  V  V8  1  0.62662253  0.12552599  0.14148425  1
  V  V9  1  0.12410413  0.37654370  0.14323555  1
  V  V10  1  0.12209091  0.37588221  0.63777817  1
  V  V11  1  0.37915414  0.37321792  0.14178512  1
  V  V12  1  0.62408644  0.87628161  0.39129653  1
  V  V13  1  0.87325300  0.37582004  0.88480020  1
  V  V14  1  0.37378765  0.37434762  0.63913023  1
  V  V15  1  0.37316109  0.62530277  0.14876952  1
  V  V16  1  0.37648479  0.62895505  0.88870639  1
  V  V17  1  0.62818440  0.12438635  0.88668106  1
  V  V18  1  0.37229146  0.37352523  0.38768044  1
  V  V19  1  0.63334693  0.37241833  0.39534753  1
  V  V20  1  0.87169662  0.12421828  0.39832109  1
  V  V21  1  0.87720501  0.87326014  0.39981191  1
  V  V22  1  0.37745177  0.12400132  0.89023330  1
  V  V23  1  0.37349154  0.12536457  0.38988496  1
  V  V24  1  0.37732488  0.87802089  0.14392529  1
  V  V25  1  0.62232073  0.87558630  0.89024623  1
  V  V26  1  0.37682427  0.87395625  0.88916394  1
  V  V27  1  0.12290416  0.62598699  0.88686504  1
  V  V28  1  0.12348333  0.12500477  0.39519241  1
  V  V29  1  0.37499214  0.12301485  0.63958926  1
  V  V30  1  0.62538740  0.62618252  0.88808887  1
  V  V31  1  0.12437264  0.62519526  0.14268120  1
  Fe  Fe32  1  0.12927218  0.12639840  0.64799897  1
  Fe  Fe33  1  0.12976466  0.37268497  0.38738656  1
  Fe  Fe34  1  0.62157251  0.12541485  0.62593400  1
  Fe  Fe35  1  0.87652933  0.62271669  0.13693266  1
  Fe  Fe36  1  0.62194751  0.37627498  0.62686154  1
  Fe  Fe37  1  0.87694347  0.62231753  0.62579505  1
  Fe  Fe38  1  0.37438715  0.62249048  0.62951543  1
  Fe  Fe39  1  0.12623720  0.37868938  0.88139068  1
  Fe  Fe40  1  0.62555755  0.87322965  0.13819336  1
  Fe  Fe41  1  0.62230997  0.87343472  0.63061983  1
  Fe  Fe42  1  0.12383421  0.12560557  0.87563266  1
  Fe  Fe43  1  0.62503774  0.62347421  0.38505361  1
  Fe  Fe44  1  0.87237403  0.12488813  0.87579123  1
  Fe  Fe45  1  0.87431096  0.12697057  0.63645157  1
  Fe  Fe46  1  0.62293827  0.12568391  0.40014215  1
  Fe  Fe47  1  0.62633359  0.37571548  0.13828361  1
  Fe  Fe48  1  0.13045416  0.62333521  0.63197384  1
  Fe  Fe49  1  0.37811336  0.37796773  0.88471836  1
  Fe  Fe50  1  0.87259239  0.37374774  0.13970248  1
  Fe  Fe51  1  0.12528532  0.87403213  0.13771113  1
  Fe  Fe52  1  0.12664483  0.87330675  0.88319607  1
  Fe  Fe53  1  0.87404506  0.62395035  0.39577610  1
  Fe  Fe54  1  0.87348152  0.87362288  0.87859876  1
  Fe  Fe55  1  0.12438901  0.87771041  0.39915396  1
  Fe  Fe56  1  0.12685307  0.87405700  0.62791374  1
  Fe  Fe57  1  0.87381083  0.87504266  0.13739442  1
  Fe  Fe58  1  0.37535291  0.62603701  0.38610905  1
  Fe  Fe59  1  0.87222774  0.87275497  0.62743104  1
  Fe  Fe60  1  0.37658182  0.12531919  0.13551611  1
  Fe  Fe61  1  0.62425313  0.37634531  0.88528547  1
  Fe  Fe62  1  0.87262155  0.62472289  0.88288718  1
  Fe  Fe63  1  0.87378342  0.37617918  0.62427355  1
  Pb  Pb64  1  -0.00249577  -0.00350919  -0.01421260  1
  Pb  Pb65  1  0.00565122  -0.01356303  0.25739427  1
  Pb  Pb66  1  -0.00890684  0.00302406  0.51296349  1
  Pb  Pb67  1  -0.00434857  -0.00512766  0.73842547  1
  Pb  Pb68  1  0.00055424  0.24967543  -0.01259881  1
  Pb  Pb69  1  0.00447543  0.25637680  0.25415942  1
  Pb  Pb70  1  0.00422574  0.23631144  0.51349750  1
  Pb  Pb71  1  -0.00733631  0.24139521  0.74632724  1
  Pb  Pb72  1  -0.00889939  0.50171640  0.00024346  1
  Pb  Pb73  1  -0.00871608  0.50341918  0.25600286  1
  Pb  Pb74  1  0.00491333  0.50856992  0.50461721  1
  Pb  Pb75  1  -0.00738652  0.50903684  0.74296359  1
  Pb  Pb76  1  -0.01189806  0.75844043  -0.00402547  1
  Pb  Pb77  1  -0.00639807  0.74863473  0.25134976  1
  Pb  Pb78  1  0.00950865  0.74985821  0.50588385  1
  Pb  Pb79  1  -0.00180819  0.75506820  0.73651519  1
  Pb  Pb80  1  0.24223075  -0.00262833  -0.00340773  1
  Pb  Pb81  1  0.24427885  -0.00826079  0.25482117  1
  Pb  Pb82  1  0.23914560  0.00439446  0.50932757  1
  Pb  Pb83  1  0.23728761  -0.00540988  0.75146129  1
  Pb  Pb84  1  0.25065541  0.25016945  -0.00849774  1
  Pb  Pb85  1  0.24768011  0.25498329  0.25144127  1
  Pb  Pb86  1  0.24669692  0.24525846  0.50665126  1
  Pb  Pb87  1  0.24627285  0.25670871  0.75530443  1
  Pb  Pb88  1  0.25170604  0.50090937  -0.00487991  1
  Pb  Pb89  1  0.24972034  0.49886870  0.25422567  1
  Pb  Pb90  1  0.25273414  0.50925781  0.50006231  1
  Pb  Pb91  1  0.25179846  0.49460901  0.74956541  1
  Pb  Pb92  1  0.24461017  0.75521662  0.00168970  1
  Pb  Pb93  1  0.24954484  0.74997235  0.25589911  1
  Pb  Pb94  1  0.24694857  0.74564108  0.50145839  1
  Pb  Pb95  1  0.24270459  0.75069777  0.74408685  1
  Pb  Pb96  1  0.49698333  0.00569756  0.00348293  1
  Pb  Pb97  1  0.50711252  0.00824184  0.25532553  1
  Pb  Pb98  1  0.50459291  -0.00096622  0.50246969  1
  Pb  Pb99  1  0.50441048  0.00110066  0.74433022  1
  Pb  Pb100  1  0.50287298  0.25137271  -0.00042968  1
  Pb  Pb101  1  0.51070831  0.24292291  0.25886963  1
  Pb  Pb102  1  0.50411631  0.25269402  0.50442186  1
  Pb  Pb103  1  0.50452214  0.25930521  0.74826405  1
  Pb  Pb104  1  0.50509890  0.49707390  -0.00120703  1
  Pb  Pb105  1  0.50150726  0.50702072  0.25680954  1
  Pb  Pb106  1  0.49948611  0.49846238  0.49655701  1
  Pb  Pb107  1  0.50057668  0.49162927  0.74971400  1
  Pb  Pb108  1  0.50607529  0.75398163  0.00389279  1
  Pb  Pb109  1  0.50010130  0.74253976  0.25712492  1
  Pb  Pb110  1  0.49852481  0.74697343  0.49570173  1
  Pb  Pb111  1  0.50153395  0.74370094  0.74330931  1
  Pb  Pb112  1  0.75502748  -0.00703014  -0.00370794  1
  Pb  Pb113  1  0.74851888  0.00080480  0.25124820  1
  Pb  Pb114  1  0.74771574  -0.00723170  0.50878739  1
  Pb  Pb115  1  0.75504048  -0.00126836  0.73711388  1
  Pb  Pb116  1  0.75054153  0.26408131  0.00187945  1
  Pb  Pb117  1  0.74706013  0.24903014  0.25420290  1
  Pb  Pb118  1  0.75995934  0.24870426  0.51002014  1
  Pb  Pb119  1  0.74652681  0.25118909  0.73408822  1
  Pb  Pb120  1  0.75875207  0.50004651  0.00373426  1
  Pb  Pb121  1  0.75388666  0.50461560  0.25429104  1
  Pb  Pb122  1  0.75732744  0.50183544  0.50140143  1
  Pb  Pb123  1  0.75122903  0.49967787  0.73871325  1
  Pb  Pb124  1  0.75375671  0.75629583  0.00072007  1
  Pb  Pb125  1  0.75403227  0.74545148  0.25153939  1
  Pb  Pb126  1  0.74938686  0.75433302  0.50059376  1
  Pb  Pb127  1  0.76290362  0.75241022  0.74212105  1
  O  O128  1  0.12447665  0.01017295  0.16416608  1
  O  O129  1  0.12399286  0.00892624  0.42219070  1
  O  O130  1  0.13170385  -0.00282125  0.66011225  1
  O  O131  1  0.12921130  0.00161824  0.90903695  1
  O  O132  1  0.12643687  0.24476433  0.16545508  1
  O  O133  1  0.12860227  0.24262878  0.41928671  1
  O  O134  1  0.13231434  0.26023328  0.66511214  1
  O  O135  1  0.12812043  0.25093236  0.91061411  1
  O  O136  1  0.12663576  0.50207711  0.16835490  1
  O  O137  1  0.12748638  0.50348084  0.41055903  1
  O  O138  1  0.13298873  0.49232813  0.66038433  1
  O  O139  1  0.12823594  0.50771650  0.91411889  1
  O  O140  1  0.12605947  0.74363220  0.16597185  1
  O  O141  1  0.12434818  0.74563172  0.41332259  1
  O  O142  1  0.13178303  0.75044732  0.65804879  1
  O  O143  1  0.12898759  0.74189428  0.91481882  1
  O  O144  1  0.37511553  -0.00514830  0.16592604  1
  O  O145  1  0.37550711  -0.00216195  0.41691268  1
  O  O146  1  0.37766492  0.00150833  0.65880735  1
  O  O147  1  0.37896362  0.00025382  0.91475699  1
  O  O148  1  0.37298381  0.25672749  0.16236173  1
  O  O149  1  0.36916647  0.24666828  0.41365786  1
  O  O150  1  0.37608339  0.25183510  0.66259357  1
  O  O151  1  0.38031770  0.24342802  0.91093967  1
  O  O152  1  0.37128889  0.49692562  0.17011289  1
  O  O153  1  0.37188709  0.49266726  0.40641010  1
  O  O154  1  0.37561258  0.49307435  0.65899268  1
  O  O155  1  0.37889391  0.50797132  0.91721127  1
  O  O156  1  0.37155863  0.75299869  0.17193667  1
  O  O157  1  0.37618433  0.75974052  0.40983648  1
  O  O158  1  0.37682210  0.75569324  0.65538811  1
  O  O159  1  0.37741607  0.75074517  0.91934610  1
  O  O160  1  0.62174661  0.00532889  0.16602077  1
  O  O161  1  0.62373343  -0.00555473  0.41605010  1
  O  O162  1  0.61810175  0.00055854  0.65816807  1
  O  O163  1  0.62230329  0.00272343  0.91418395  1
  O  O164  1  0.62153827  0.24547881  0.16923651  1
  O  O165  1  0.61750250  0.25602282  0.41736859  1
  O  O166  1  0.61754961  0.25021169  0.65503571  1
  O  O167  1  0.62183966  0.24188680  0.91011963  1
  O  O168  1  0.62219991  0.50468602  0.16677183  1
  O  O169  1  0.61707432  0.49032352  0.41090317  1
  O  O170  1  0.61825080  0.50637143  0.65678599  1
  O  O171  1  0.62076338  0.50867333  0.91089394  1
  O  O172  1  0.62320413  0.74421870  0.16803803  1
  O  O173  1  0.62558763  0.75754480  0.41105929  1
  O  O174  1  0.61892949  0.74234098  0.65849377  1
  O  O175  1  0.62153367  0.74818104  0.91668308  1
  O  O176  1  0.87264354  0.01341512  0.16798271  1
  O  O177  1  0.87610687  0.00572089  0.42018529  1
  O  O178  1  0.87426008  -0.00116332  0.65432012  1
  O  O179  1  0.87113930  0.00015231  0.90852516  1
  O  O180  1  0.87158087  0.23980369  0.17026956  1
  O  O181  1  0.87759855  0.24769398  0.42085226  1
  O  O182  1  0.87552118  0.25552695  0.65832610  1
  O  O183  1  0.87204836  0.25749552  0.90724698  1
  O  O184  1  0.87592662  0.49893318  0.17144615  1
  O  O185  1  0.87653444  0.48931585  0.41275540  1
  O  O186  1  0.87439619  0.49874419  0.65840964  1
  O  O187  1  0.87309572  0.49633935  0.91437303  1
  O  O188  1  0.87589830  0.74797736  0.16724281  1
  O  O189  1  0.87320655  0.75654740  0.41209146  1
  O  O190  1  0.87215331  0.74586711  0.65161332  1
  O  O191  1  0.87217368  0.74849540  0.91241094  1
  O  O192  1  0.00081391  0.12940034  0.15534926  1
  O  O193  1  0.00325484  0.12684749  0.41956021  1
  O  O194  1  0.00199693  0.12812893  0.66037613  1
  O  O195  1  -0.00222560  0.12802287  0.90664430  1
  O  O196  1  0.00227949  0.37061989  0.16899331  1
  O  O197  1  0.00389972  0.37067355  0.41780260  1
  O  O198  1  0.00635608  0.37700637  0.65019825  1
  O  O199  1  -0.00620215  0.37749302  0.90811938  1
  O  O200  1  0.00763142  0.62281860  0.16654664  1
  O  O201  1  0.00664400  0.62366434  0.41526932  1
  O  O202  1  0.00348581  0.62187888  0.65549245  1
  O  O203  1  0.00678822  0.62375004  0.90904292  1
  O  O204  1  0.00008384  0.87845255  0.16884116  1
  O  O205  1  -0.00621100  0.87905845  0.41905165  1
  O  O206  1  0.00032433  0.87250654  0.64899888  1
  O  O207  1  0.00076157  0.87250159  0.90825673  1
  O  O208  1  0.24756085  0.12626362  0.16144434  1
  O  O209  1  0.24937398  0.12160371  0.41785697  1
  O  O210  1  0.26274849  0.12723930  0.66967673  1
  O  O211  1  0.25947542  0.12474996  0.90728266  1
  O  O212  1  0.25124053  0.37478385  0.16903991  1
  O  O213  1  0.25526074  0.37155326  0.41577875  1
  O  O214  1  0.25577885  0.37432094  0.66453529  1
  O  O215  1  0.25338890  0.37735339  0.91554989  1
  O  O216  1  0.24535966  0.62426567  0.17168119  1
  O  O217  1  0.24647683  0.62662436  0.41009366  1
  O  O218  1  0.25394599  0.62276214  0.66365447  1
  O  O219  1  0.25123605  0.62579902  0.91436625  1
  O  O220  1  0.25360668  0.87571974  0.17113252  1
  O  O221  1  0.25697920  0.87844240  0.41328211  1
  O  O222  1  0.26137089  0.87725392  0.65827158  1
  O  O223  1  0.25625309  0.87311932  0.91559352  1
  O  O224  1  0.50321968  0.12550561  0.16848498  1
  O  O225  1  0.48916714  0.12428700  0.41612963  1
  O  O226  1  0.49110352  0.12629470  0.66356087  1
  O  O227  1  0.50212121  0.12171119  0.91737396  1
  O  O228  1  0.49369792  0.37773507  0.16412904  1
  O  O229  1  0.48672402  0.37020708  0.41394164  1
  O  O230  1  0.49404644  0.37555501  0.66135702  1
  O  O231  1  0.50079957  0.37568174  0.91940173  1
  O  O232  1  0.49971899  0.62483080  0.16944419  1
  O  O233  1  0.49972035  0.62611462  0.41253644  1
  O  O234  1  0.50083991  0.62487882  0.66068265  1
  O  O235  1  0.50257563  0.62914130  0.91835870  1
  O  O236  1  0.49383196  0.87235873  0.16687531  1
  O  O237  1  0.49992280  0.87722086  0.41087166  1
  O  O238  1  0.49317091  0.87520429  0.66304099  1
  O  O239  1  0.49946853  0.87439364  0.92025664  1
  O  O240  1  0.74245884  0.12614121  0.16532985  1
  O  O241  1  0.75533654  0.12884188  0.41385348  1
  O  O242  1  0.74592979  0.12747069  0.65270243  1
  O  O243  1  0.74264893  0.12359400  0.90767971  1
  O  O244  1  0.74872672  0.37198668  0.17400070  1
  O  O245  1  0.74721045  0.37081431  0.40964304  1
  O  O246  1  0.74709815  0.37823010  0.65184460  1
  O  O247  1  0.75274866  0.37697630  0.91150107  1
  O  O248  1  0.74495856  0.62353489  0.16483715  1
  O  O249  1  0.74735196  0.62154929  0.41479379  1
  O  O250  1  0.73943683  0.62193306  0.65058377  1
  O  O251  1  0.74077448  0.62636875  0.91029164  1
  O  O252  1  0.74979329  0.87822040  0.17210924  1
  O  O253  1  0.74895861  0.87936181  0.41389973  1
  O  O254  1  0.74570012  0.87226442  0.65824539  1
  O  O255  1  0.74300736  0.87363233  0.91259860  1
  O  O256  1  0.13201525  0.12615919  0.04602153  1
  O  O257  1  0.12388981  0.12414321  0.30438023  1
  O  O258  1  0.13590918  0.13132071  0.54554365  1
  O  O259  1  0.13016289  0.12695234  0.77488846  1
  O  O260  1  0.12448308  0.37603814  0.05264463  1
  O  O261  1  0.12774407  0.36329217  0.28802758  1
  O  O262  1  0.13337809  0.37293674  0.54660821  1
  O  O263  1  0.13367868  0.38090092  0.78298439  1
  O  O264  1  0.12648560  0.62323725  0.05219078  1
  O  O265  1  0.12307813  0.62577101  0.29876638  1
  O  O266  1  0.13043321  0.62361217  0.53096073  1
  O  O267  1  0.12687641  0.62752839  0.79607239  1
  O  O268  1  0.13425517  0.87427168  0.03864821  1
  O  O269  1  0.12392778  0.88775223  0.29760276  1
  O  O270  1  0.13103969  0.87126127  0.52499391  1
  O  O271  1  0.13434149  0.87028550  0.78348093  1
  O  O272  1  0.38193235  0.12178422  0.03716512  1
  O  O273  1  0.37288888  0.12304706  0.29859438  1
  O  O274  1  0.37115038  0.12537584  0.54867402  1
  O  O275  1  0.38430689  0.12132454  0.79994894  1
  O  O276  1  0.37605423  0.37742513  0.05090981  1
  O  O277  1  0.37164512  0.36885573  0.29652635  1
  O  O278  1  0.37205044  0.37230075  0.54807158  1
  O  O279  1  0.38072916  0.37992486  0.78532589  1
  O  O280  1  0.37307770  0.62748310  0.05812725  1
  O  O281  1  0.37636056  0.62682075  0.28500435  1
  O  O282  1  0.36983200  0.62326584  0.52900480  1
  O  O283  1  0.37865217  0.62940421  0.79810386  1
  O  O284  1  0.37387504  0.87458591  0.05401269  1
  O  O285  1  0.37141001  0.88231542  0.29843167  1
  O  O286  1  0.37829103  0.87570002  0.54305652  1
  O  O287  1  0.37779732  0.87300060  0.79665307  1
  O  O288  1  0.62565616  0.12738587  0.05089062  1
  O  O289  1  0.61571811  0.12701049  0.29836478  1
  O  O290  1  0.61474235  0.12387053  0.52384232  1
  O  O291  1  0.62204312  0.12110282  0.79608189  1
  O  O292  1  0.63008213  0.37040659  0.03869951  1
  O  O293  1  0.62170020  0.36825059  0.30352061  1
  O  O294  1  0.61394233  0.37620414  0.52645082  1
  O  O295  1  0.61480437  0.37787755  0.78580472  1
  O  O296  1  0.62424311  0.62597950  0.05418028  1
  O  O297  1  0.62085351  0.62336936  0.28497991  1
  O  O298  1  0.61587012  0.62461352  0.53966578  1
  O  O299  1  0.62085562  0.63007266  0.79757820  1
  O  O300  1  0.62702820  0.86976269  0.03913798  1
  O  O301  1  0.62522094  0.87904998  0.30016880  1
  O  O302  1  0.62439830  0.87420748  0.53084957  1
  O  O303  1  0.61759718  0.87399406  0.79956328  1
  O  O304  1  0.87502644  0.12776467  0.04834846  1
  O  O305  1  0.88005271  0.12437181  0.30788477  1
  O  O306  1  0.88110280  0.12986605  0.53324056  1
  O  O307  1  0.87415794  0.12874313  0.77609096  1
  O  O308  1  0.86654783  0.37640638  0.03991797  1
  O  O309  1  0.88388672  0.36453773  0.30995950  1
  O  O310  1  0.86889547  0.37318109  0.52215336  1
  O  O311  1  0.87117368  0.38026354  0.79436512  1
  O  O312  1  0.87747531  0.61461802  0.03682617  1
  O  O313  1  0.87969814  0.62110800  0.29438414  1
  O  O314  1  0.87738250  0.61358881  0.52366957  1
  O  O315  1  0.87380287  0.61806471  0.78341936  1
  O  O316  1  0.87020176  0.87421136  0.03731133  1
  O  O317  1  0.87718768  0.88359408  0.30819814  1
  O  O318  1  0.86541908  0.87804681  0.52484760  1
  O  O319  1  0.86970496  0.86907254  0.77858266  1
