# generated using pymatgen
data_VFe(PbO3)2
_symmetry_space_group_name_H-M   'P 1'
_cell_length_a   15.39552077
_cell_length_b   15.40128121
_cell_length_c   18.51626808
_cell_angle_alpha   90.02452414
_cell_angle_beta   90.03401516
_cell_angle_gamma   90.01114812
_symmetry_Int_Tables_number   1
_chemical_formula_structural   VFe(PbO3)2
_chemical_formula_sum   'V32 Fe32 Pb64 O192'
_cell_volume   4390.40485570
_cell_formula_units_Z   32
loop_
 _symmetry_equiv_pos_site_id
 _symmetry_equiv_pos_as_xyz
  1  'x, y, z'
loop_
 _atom_site_type_symbol
 _atom_site_label
 _atom_site_symmetry_multiplicity
 _atom_site_fract_x
 _atom_site_fract_y
 _atom_site_fract_z
 _atom_site_occupancy
  V  V0  1  0.62456846  0.37502175  0.89328504  1
  V  V1  1  0.37458217  0.36791949  0.13318858  1
  V  V2  1  0.62261568  0.87704900  0.38889973  1
  V  V3  1  0.12471204  0.62201722  0.64620705  1
  V  V4  1  0.37637628  0.12301105  0.38864254  1
  V  V5  1  0.62718015  0.37410100  0.63961342  1
  V  V6  1  0.37967411  0.62811674  0.13703991  1
  V  V7  1  0.87364005  0.62480243  0.64137164  1
  V  V8  1  0.37427654  0.62147303  0.88536092  1
  V  V9  1  0.87717844  0.87601702  0.88969041  1
  V  V10  1  0.62376096  0.12644295  0.64384962  1
  V  V11  1  0.62378399  0.87197508  0.13618665  1
  V  V12  1  0.87286898  0.13453365  0.91155001  1
  V  V13  1  0.87625292  0.12673585  0.63876929  1
  V  V14  1  0.12432881  0.12730727  0.64314928  1
  V  V15  1  0.88592198  0.62724998  0.14053854  1
  V  V16  1  0.13251868  0.62769011  0.13613644  1
  V  V17  1  0.12410998  0.12315468  0.89802185  1
  V  V18  1  0.12519632  0.87328908  0.13601439  1
  V  V19  1  0.62656099  0.62605221  0.88645761  1
  V  V20  1  0.37454092  0.87423208  0.39081691  1
  V  V21  1  0.12637099  0.37507712  0.89368810  1
  V  V22  1  0.62601195  0.87637359  0.88864232  1
  V  V23  1  0.37926575  0.12852591  0.89460660  1
  V  V24  1  0.87441522  0.37228608  0.64073187  1
  V  V25  1  0.37401299  0.37739817  0.38513009  1
  V  V26  1  0.37449952  0.87710110  0.64424626  1
  V  V27  1  0.12126407  0.87630620  0.64648031  1
  V  V28  1  0.37419945  0.37087949  0.64359410  1
  V  V29  1  0.12580570  0.62708390  0.38822324  1
  V  V30  1  0.12250775  0.37258038  0.64037584  1
  V  V31  1  0.63004970  0.62732638  0.14133617  1
  Fe  Fe32  1  0.87307792  0.12421304  0.37469640  1
  Fe  Fe33  1  0.37204080  0.12514675  0.63777547  1
  Fe  Fe34  1  0.12639253  0.12210122  0.37559535  1
  Fe  Fe35  1  0.87361058  0.62525359  0.38033018  1
  Fe  Fe36  1  0.62326930  0.12347104  0.38044661  1
  Fe  Fe37  1  0.12399519  0.62472777  0.88199914  1
  Fe  Fe38  1  0.62162514  0.62491341  0.38600020  1
  Fe  Fe39  1  0.12933340  0.87396934  0.38349298  1
  Fe  Fe40  1  0.37650177  0.87630933  0.89089157  1
  Fe  Fe41  1  0.12505954  0.87564522  0.88220699  1
  Fe  Fe42  1  0.37635556  0.86927695  0.12769865  1
  Fe  Fe43  1  0.12793672  0.12472799  0.13773740  1
  Fe  Fe44  1  0.62976159  0.12510520  0.90048840  1
  Fe  Fe45  1  0.87587757  0.87418514  0.37657197  1
  Fe  Fe46  1  0.87496009  0.37621196  0.37442617  1
  Fe  Fe47  1  0.62147929  0.12376539  0.12639270  1
  Fe  Fe48  1  0.37216933  0.62297648  0.63531072  1
  Fe  Fe49  1  0.87415906  0.62512334  0.88542009  1
  Fe  Fe50  1  0.87504145  0.12361013  0.12960352  1
  Fe  Fe51  1  0.87587619  0.37713901  0.90061535  1
  Fe  Fe52  1  0.62023956  0.37989058  0.14585145  1
  Fe  Fe53  1  0.87266663  0.87082389  0.14526544  1
  Fe  Fe54  1  0.37452258  0.11865171  0.12731892  1
  Fe  Fe55  1  0.37475288  0.62776082  0.39205830  1
  Fe  Fe56  1  0.62750993  0.87680367  0.63665858  1
  Fe  Fe57  1  0.87451656  0.37973195  0.13474044  1
  Fe  Fe58  1  0.12972289  0.37529000  0.37554360  1
  Fe  Fe59  1  0.62424702  0.62155209  0.63576060  1
  Fe  Fe60  1  0.87459889  0.87987796  0.63628201  1
  Fe  Fe61  1  0.62125744  0.37262828  0.37436188  1
  Fe  Fe62  1  0.37547817  0.37429617  0.88769625  1
  Fe  Fe63  1  0.12945848  0.38089641  0.14589766  1
  Pb  Pb64  1  -0.00061495  0.00397324  0.00828181  1
  Pb  Pb65  1  -0.00930674  0.00829536  0.24604256  1
  Pb  Pb66  1  -0.00227431  -0.00069304  0.48602713  1
  Pb  Pb67  1  0.00090053  0.00096420  0.75224232  1
  Pb  Pb68  1  0.01341883  0.25273988  0.01578855  1
  Pb  Pb69  1  -0.00594094  0.24945536  0.23689263  1
  Pb  Pb70  1  0.00147082  0.24953631  0.47979122  1
  Pb  Pb71  1  -0.00965759  0.25684384  0.75736766  1
  Pb  Pb72  1  -0.00244047  0.49796820  0.00169984  1
  Pb  Pb73  1  -0.00220617  0.49166820  0.25051996  1
  Pb  Pb74  1  -0.00073592  0.49682662  0.48913156  1
  Pb  Pb75  1  -0.00676782  0.50116288  0.75774881  1
  Pb  Pb76  1  0.00213000  0.74949489  -0.00609892  1
  Pb  Pb77  1  0.00234883  0.76100198  0.25625984  1
  Pb  Pb78  1  -0.00969980  0.76071432  0.49612139  1
  Pb  Pb79  1  0.00051099  0.74178419  0.75310812  1
  Pb  Pb80  1  0.25459137  0.00285531  0.00140964  1
  Pb  Pb81  1  0.24638959  -0.00078045  0.24306965  1
  Pb  Pb82  1  0.25048870  0.00455342  0.49895999  1
  Pb  Pb83  1  0.25219899  -0.01022509  0.76012953  1
  Pb  Pb84  1  0.24701593  0.24379845  0.00780429  1
  Pb  Pb85  1  0.24029531  0.24232795  0.24711573  1
  Pb  Pb86  1  0.25053288  0.24529459  0.49428360  1
  Pb  Pb87  1  0.25267165  0.25226984  0.75542410  1
  Pb  Pb88  1  0.24379011  0.49095361  0.00451311  1
  Pb  Pb89  1  0.25584782  0.50419916  0.25264322  1
  Pb  Pb90  1  0.25364012  0.50281543  0.50049568  1
  Pb  Pb91  1  0.24730217  0.49834671  0.75091249  1
  Pb  Pb92  1  0.25270506  0.75643961  -0.00815360  1
  Pb  Pb93  1  0.24996770  0.75315933  0.25115548  1
  Pb  Pb94  1  0.25262631  0.74508197  0.50437976  1
  Pb  Pb95  1  0.24354875  0.75166416  0.75401416  1
  Pb  Pb96  1  0.49855515  0.00683354  0.00188943  1
  Pb  Pb97  1  0.49860363  0.00165378  0.23940926  1
  Pb  Pb98  1  0.50400230  -0.00457456  0.50417497  1
  Pb  Pb99  1  0.49420187  -0.00241661  0.75606258  1
  Pb  Pb100  1  0.50939886  0.25335037  0.00874485  1
  Pb  Pb101  1  0.51436843  0.24153057  0.24794658  1
  Pb  Pb102  1  0.49824750  0.24732395  0.49542492  1
  Pb  Pb103  1  0.49863113  0.25058698  0.75571422  1
  Pb  Pb104  1  0.50696835  0.49682394  0.00148349  1
  Pb  Pb105  1  0.50154333  0.50901166  0.25475204  1
  Pb  Pb106  1  0.50637959  0.50840685  0.49889752  1
  Pb  Pb107  1  0.49698014  0.49679237  0.74700580  1
  Pb  Pb108  1  0.49893954  0.75187912  -0.00350876  1
  Pb  Pb109  1  0.49892288  0.74158017  0.25474154  1
  Pb  Pb110  1  0.50922441  0.74566196  0.50654024  1
  Pb  Pb111  1  0.49937029  0.74765043  0.74547105  1
  Pb  Pb112  1  0.76186063  -0.00527728  0.01048968  1
  Pb  Pb113  1  0.75276604  0.01182512  0.24251546  1
  Pb  Pb114  1  0.75560884  -0.00395708  0.49277471  1
  Pb  Pb115  1  0.74534050  0.00954178  0.75492914  1
  Pb  Pb116  1  0.74500866  0.26730742  0.01769486  1
  Pb  Pb117  1  0.75015710  0.25210308  0.23544263  1
  Pb  Pb118  1  0.75012305  0.25081680  0.48211342  1
  Pb  Pb119  1  0.74585511  0.24475867  0.75940065  1
  Pb  Pb120  1  0.75428301  0.49906944  0.00433344  1
  Pb  Pb121  1  0.75679550  0.49821621  0.25218772  1
  Pb  Pb122  1  0.74571275  0.50000768  0.48618092  1
  Pb  Pb123  1  0.76139322  0.49527743  0.75471948  1
  Pb  Pb124  1  0.75670878  0.75671992  0.00187781  1
  Pb  Pb125  1  0.75334883  0.74483935  0.25555629  1
  Pb  Pb126  1  0.75080920  0.75365931  0.49548207  1
  Pb  Pb127  1  0.74822574  0.75251583  0.74436252  1
  O  O128  1  0.12773640  -0.01121877  0.15277857  1
  O  O129  1  0.12982443  -0.00061569  0.41230256  1
  O  O130  1  0.12084579  0.00745044  0.66753888  1
  O  O131  1  0.12334388  0.00534449  0.91457575  1
  O  O132  1  0.13025441  0.25303300  0.16110053  1
  O  O133  1  0.13118453  0.24864155  0.40401305  1
  O  O134  1  0.12158337  0.24760732  0.67032308  1
  O  O135  1  0.12609127  0.25146053  0.92110892  1
  O  O136  1  0.12929409  0.51526091  0.16539867  1
  O  O137  1  0.13051095  0.50667044  0.41156902  1
  O  O138  1  0.12432648  0.49463415  0.66863055  1
  O  O139  1  0.12761727  0.49451688  0.91199299  1
  O  O140  1  0.12416309  0.74295676  0.16471504  1
  O  O141  1  0.12946673  0.74392363  0.41716047  1
  O  O142  1  0.12495943  0.75011221  0.66814135  1
  O  O143  1  0.12553612  0.75016742  0.90980335  1
  O  O144  1  0.37442954  -0.00856486  0.15622685  1
  O  O145  1  0.37476105  -0.00075420  0.41498710  1
  O  O146  1  0.37418602  -0.00058891  0.66940725  1
  O  O147  1  0.37282102  0.00766093  0.91328774  1
  O  O148  1  0.37160645  0.25427401  0.14109161  1
  O  O149  1  0.37334759  0.24546881  0.40956167  1
  O  O150  1  0.37391125  0.24911560  0.67200735  1
  O  O151  1  0.37272809  0.24539124  0.91627573  1
  O  O152  1  0.37409519  0.51539262  0.16318887  1
  O  O153  1  0.37250534  0.49312928  0.40995492  1
  O  O154  1  0.37262233  0.49286746  0.66514982  1
  O  O155  1  0.38044550  0.50596391  0.91132879  1
  O  O156  1  0.37409697  0.74557334  0.16414388  1
  O  O157  1  0.37515684  0.75920426  0.41689069  1
  O  O158  1  0.37181333  0.75765774  0.66326573  1
  O  O159  1  0.38073131  0.74128716  0.90920891  1
  O  O160  1  0.62090059  -0.01010345  0.15182459  1
  O  O161  1  0.61968584  -0.00473516  0.41442461  1
  O  O162  1  0.62728932  0.00880996  0.66727824  1
  O  O163  1  0.62936790  -0.00933700  0.91528358  1
  O  O164  1  0.61868830  0.24983353  0.15620930  1
  O  O165  1  0.61805708  0.24884702  0.40994826  1
  O  O166  1  0.62809176  0.24801432  0.67173675  1
  O  O167  1  0.62474995  0.25789136  0.91921878  1
  O  O168  1  0.61547403  0.51170521  0.16338283  1
  O  O169  1  0.61736184  0.49587932  0.40868434  1
  O  O170  1  0.62513124  0.49301080  0.66565663  1
  O  O171  1  0.62407055  0.49850749  0.91392687  1
  O  O172  1  0.62287434  0.74627838  0.16735737  1
  O  O173  1  0.61812853  0.75959315  0.41333858  1
  O  O174  1  0.62520759  0.74914154  0.66536384  1
  O  O175  1  0.62618446  0.75370955  0.91128298  1
  O  O176  1  0.87460199  -0.00309415  0.15942068  1
  O  O177  1  0.87314297  -0.00248163  0.40686309  1
  O  O178  1  0.87588368  0.00841427  0.66649033  1
  O  O179  1  0.87449349  -0.01003849  0.91903881  1
  O  O180  1  0.87495281  0.25089605  0.14853734  1
  O  O181  1  0.87565767  0.25094605  0.40374335  1
  O  O182  1  0.87533151  0.24891193  0.67206010  1
  O  O183  1  0.87754095  0.24916573  0.92561219  1
  O  O184  1  0.87158626  0.51179372  0.16178809  1
  O  O185  1  0.87705978  0.50072170  0.41153017  1
  O  O186  1  0.87656295  0.49783103  0.66769811  1
  O  O187  1  0.87354848  0.50315065  0.92056690  1
  O  O188  1  0.87043643  0.74093854  0.16660464  1
  O  O189  1  0.87392981  0.75034492  0.41162320  1
  O  O190  1  0.87708278  0.74172683  0.66098459  1
  O  O191  1  0.87316337  0.75543112  0.91299976  1
  O  O192  1  0.00156131  0.12326525  0.15611068  1
  O  O193  1  0.00068911  0.12335026  0.40366425  1
  O  O194  1  0.00098786  0.12838302  0.67046923  1
  O  O195  1  0.00458205  0.12670055  0.92452651  1
  O  O196  1  0.00101080  0.38398043  0.15897092  1
  O  O197  1  0.00476042  0.37787536  0.40415433  1
  O  O198  1  -0.00110722  0.37224132  0.67002057  1
  O  O199  1  0.00945106  0.37352714  0.92058925  1
  O  O200  1  0.00120972  0.62659146  0.15558963  1
  O  O201  1  0.00856295  0.62533804  0.41038522  1
  O  O202  1  -0.00287370  0.62113533  0.66764371  1
  O  O203  1  0.00034174  0.62492092  0.91525758  1
  O  O204  1  0.00822694  0.86537577  0.16058641  1
  O  O205  1  0.00261870  0.87243636  0.40914107  1
  O  O206  1  0.00005511  0.87648230  0.66896109  1
  O  O207  1  -0.00486267  0.87422212  0.90938039  1
  O  O208  1  0.25429699  0.12158493  0.16267139  1
  O  O209  1  0.25769898  0.12225507  0.41250754  1
  O  O210  1  0.24052409  0.12732955  0.66594523  1
  O  O211  1  0.24566561  0.12682304  0.91521799  1
  O  O212  1  0.26426651  0.38630899  0.16549654  1
  O  O213  1  0.25726317  0.37233774  0.41384645  1
  O  O214  1  0.24652658  0.37031343  0.66871692  1
  O  O215  1  0.24654626  0.37419980  0.91599796  1
  O  O216  1  0.25007363  0.63107987  0.15869791  1
  O  O217  1  0.24638945  0.62598777  0.41931195  1
  O  O218  1  0.24763187  0.62303697  0.66910330  1
  O  O219  1  0.25850478  0.62449085  0.90524586  1
  O  O220  1  0.24369290  0.86419737  0.15852514  1
  O  O221  1  0.25796938  0.87613269  0.41743715  1
  O  O222  1  0.25186590  0.87959075  0.66851965  1
  O  O223  1  0.24991642  0.87596116  0.91208474  1
  O  O224  1  0.49701822  0.12092643  0.15760604  1
  O  O225  1  0.49269190  0.12211392  0.41446702  1
  O  O226  1  0.50615814  0.12749093  0.66538598  1
  O  O227  1  0.49615750  0.12400422  0.90877068  1
  O  O228  1  0.48375275  0.38337617  0.16370002  1
  O  O229  1  0.48840366  0.36949794  0.41073032  1
  O  O230  1  0.50135734  0.36920384  0.66766144  1
  O  O231  1  0.50415715  0.37619591  0.91601415  1
  O  O232  1  0.49716561  0.63150385  0.16128588  1
  O  O233  1  0.49777104  0.62752099  0.41968492  1
  O  O234  1  0.49670995  0.62349750  0.66489317  1
  O  O235  1  0.50351098  0.62502732  0.91316846  1
  O  O236  1  0.50630302  0.86651638  0.16030760  1
  O  O237  1  0.49486824  0.87911038  0.41703625  1
  O  O238  1  0.49488823  0.87932495  0.66612021  1
  O  O239  1  0.50819654  0.87505222  0.91081125  1
  O  O240  1  0.74647476  0.12219829  0.14919558  1
  O  O241  1  0.74752133  0.12264906  0.40869929  1
  O  O242  1  0.74988937  0.12875061  0.66913548  1
  O  O243  1  0.75760660  0.12444508  0.92474127  1
  O  O244  1  0.74783370  0.38132378  0.15843080  1
  O  O245  1  0.74749582  0.37549481  0.40264189  1
  O  O246  1  0.75152796  0.37260858  0.66838118  1
  O  O247  1  0.74244881  0.37614781  0.91966407  1
  O  O248  1  0.74451535  0.62595187  0.16046782  1
  O  O249  1  0.74724637  0.62641941  0.41090538  1
  O  O250  1  0.75646041  0.61992508  0.66179039  1
  O  O251  1  0.74395580  0.62562086  0.91371189  1
  O  O252  1  0.73806516  0.86823559  0.16572388  1
  O  O253  1  0.74155739  0.87510086  0.40631828  1
  O  O254  1  0.75189797  0.87649790  0.66807832  1
  O  O255  1  0.75002715  0.87217254  0.91490726  1
  O  O256  1  0.13015034  0.12896291  0.03557564  1
  O  O257  1  0.13666997  0.11954138  0.27503591  1
  O  O258  1  0.12184755  0.12810356  0.55257653  1
  O  O259  1  0.11994462  0.12911454  0.80735666  1
  O  O260  1  0.13673137  0.38381840  0.04418063  1
  O  O261  1  0.13479294  0.38484076  0.27512531  1
  O  O262  1  0.12368952  0.37218195  0.54982150  1
  O  O263  1  0.12418462  0.36932282  0.80261180  1
  O  O264  1  0.13081060  0.62630279  0.04477752  1
  O  O265  1  0.13064927  0.62936017  0.29714708  1
  O  O266  1  0.12502766  0.62154945  0.55531830  1
  O  O267  1  0.12162493  0.62472067  0.78170038  1
  O  O268  1  0.12558770  0.86583065  0.04457533  1
  O  O269  1  0.13027932  0.86348946  0.28398782  1
  O  O270  1  0.12621758  0.87656573  0.55560786  1
  O  O271  1  0.12955865  0.88090664  0.78168196  1
  O  O272  1  0.37265226  0.11783466  0.02648304  1
  O  O273  1  0.37694176  0.12041968  0.29790919  1
  O  O274  1  0.37004400  0.12745313  0.53910657  1
  O  O275  1  0.37242118  0.12891226  0.80253620  1
  O  O276  1  0.37361830  0.38674478  0.04173168  1
  O  O277  1  0.37128187  0.37599773  0.29445918  1
  O  O278  1  0.37289621  0.36784121  0.55269730  1
  O  O279  1  0.37545434  0.36940966  0.78839283  1
  O  O280  1  0.37889461  0.62786745  0.04583015  1
  O  O281  1  0.37774300  0.62911944  0.29189382  1
  O  O282  1  0.36479682  0.62219838  0.53517519  1
  O  O283  1  0.37836779  0.62068654  0.79398603  1
  O  O284  1  0.37761175  0.86619995  0.02687775  1
  O  O285  1  0.37429438  0.87412003  0.29982644  1
  O  O286  1  0.37330700  0.88090078  0.55334231  1
  O  O287  1  0.37613079  0.88453523  0.79005106  1
  O  O288  1  0.61296781  0.12555579  0.02380958  1
  O  O289  1  0.61588871  0.12380150  0.28045022  1
  O  O290  1  0.62647482  0.12855769  0.55335972  1
  O  O291  1  0.63844281  0.12746500  0.79905965  1
  O  O292  1  0.61520072  0.37681464  0.04265088  1
  O  O293  1  0.61487749  0.37175784  0.27281681  1
  O  O294  1  0.62559199  0.37004992  0.54906794  1
  O  O295  1  0.62581696  0.37273491  0.80212511  1
  O  O296  1  0.62537686  0.62989202  0.05001992  1
  O  O297  1  0.61300422  0.62851329  0.28527701  1
  O  O298  1  0.61870391  0.62295899  0.53572845  1
  O  O299  1  0.62575942  0.62387040  0.79539793  1
  O  O300  1  0.62686310  0.86381018  0.04487744  1
  O  O301  1  0.61702421  0.87729588  0.29853580  1
  O  O302  1  0.62173972  0.87927692  0.53728749  1
  O  O303  1  0.62827051  0.87747440  0.79715600  1
  O  O304  1  0.88191788  0.10964241  0.02526682  1
  O  O305  1  0.87306959  0.11903009  0.27379750  1
  O  O306  1  0.87631436  0.12941384  0.54825327  1
  O  O307  1  0.87853142  0.12484173  0.81992761  1
  O  O308  1  0.86949610  0.38516977  0.03141399  1
  O  O309  1  0.87469126  0.38450182  0.27347232  1
  O  O310  1  0.87637806  0.37091592  0.55041766  1
  O  O311  1  0.87736249  0.37696514  0.79917033  1
  O  O312  1  0.87606321  0.62941966  0.04897054  1
  O  O313  1  0.87023696  0.62380900  0.28052197  1
  O  O314  1  0.87796320  0.62030165  0.55090917  1
  O  O315  1  0.87715267  0.61781056  0.78538205  1
  O  O316  1  0.86637567  0.86902435  0.04360282  1
  O  O317  1  0.87755740  0.86835044  0.27496248  1
  O  O318  1  0.87383103  0.87338788  0.53653719  1
  O  O319  1  0.87328954  0.87743086  0.79870284  1
