# generated using pymatgen
data_VFe(PbO3)2
_symmetry_space_group_name_H-M   'P 1'
_cell_length_a   15.36929036
_cell_length_b   15.38034415
_cell_length_c   18.52453342
_cell_angle_alpha   89.99504397
_cell_angle_beta   89.97813033
_cell_angle_gamma   89.99629482
_symmetry_Int_Tables_number   1
_chemical_formula_structural   VFe(PbO3)2
_chemical_formula_sum   'V32 Fe32 Pb64 O192'
_cell_volume   4378.92102412
_cell_formula_units_Z   32
loop_
 _symmetry_equiv_pos_site_id
 _symmetry_equiv_pos_as_xyz
  1  'x, y, z'
loop_
 _atom_site_type_symbol
 _atom_site_label
 _atom_site_symmetry_multiplicity
 _atom_site_fract_x
 _atom_site_fract_y
 _atom_site_fract_z
 _atom_site_occupancy
  V  V0  1  0.12477823  0.12485530  0.13894672  1
  V  V1  1  0.37471860  0.37665203  0.64278870  1
  V  V2  1  0.87613808  0.12158341  0.88877673  1
  V  V3  1  0.87539786  0.37227406  0.64288296  1
  V  V4  1  0.87021553  0.12464609  0.14112703  1
  V  V5  1  0.12525784  0.12600272  0.38842987  1
  V  V6  1  0.62711365  0.12024778  0.88460718  1
  V  V7  1  0.62530416  0.37400899  0.64222549  1
  V  V8  1  0.37243574  0.62694836  0.88783102  1
  V  V9  1  0.87634437  0.12450487  0.38816771  1
  V  V10  1  0.37528172  0.87908400  0.14026013  1
  V  V11  1  0.37588164  0.37651253  0.38887762  1
  V  V12  1  0.86975680  0.62633879  0.13504376  1
  V  V13  1  0.37181682  0.62677045  0.63759436  1
  V  V14  1  0.87780281  0.62481136  0.38904166  1
  V  V15  1  0.87673226  0.12374519  0.64154297  1
  V  V16  1  0.12134149  0.62754713  0.89247363  1
  V  V17  1  0.62431518  0.12464803  0.14261743  1
  V  V18  1  0.62372418  0.87489370  0.14292621  1
  V  V19  1  0.12614817  0.37471908  0.38717900  1
  V  V20  1  0.62357182  0.37596902  0.14027862  1
  V  V21  1  0.37140377  0.12467113  0.39381421  1
  V  V22  1  0.62363687  0.62284869  0.38976053  1
  V  V23  1  0.87501436  0.87147278  0.88795367  1
  V  V24  1  0.12517919  0.12194921  0.88730912  1
  V  V25  1  0.12248244  0.12905579  0.64219208  1
  V  V26  1  0.87814363  0.87229672  0.63467201  1
  V  V27  1  0.37402651  0.87421282  0.88610185  1
  V  V28  1  0.12351608  0.37502259  0.64170895  1
  V  V29  1  0.12566536  0.87531926  0.39012044  1
  V  V30  1  0.37827894  0.87303173  0.39718164  1
  V  V31  1  0.37606352  0.37160642  0.13551171  1
  Fe  Fe32  1  0.12612742  0.37355406  0.12770931  1
  Fe  Fe33  1  0.62754270  0.12861964  0.62931933  1
  Fe  Fe34  1  0.62693990  0.62638508  0.13476455  1
  Fe  Fe35  1  0.38010386  0.62602773  0.13799194  1
  Fe  Fe36  1  0.12675884  0.87607925  0.89257220  1
  Fe  Fe37  1  0.37352784  0.12874801  0.63849143  1
  Fe  Fe38  1  0.62797164  0.87378582  0.39770355  1
  Fe  Fe39  1  0.12698153  0.62387928  0.38477346  1
  Fe  Fe40  1  0.12556408  0.62095676  0.63527561  1
  Fe  Fe41  1  0.12512789  0.87691792  0.13159675  1
  Fe  Fe42  1  0.62281374  0.87702177  0.88066400  1
  Fe  Fe43  1  0.87730639  0.87391381  0.38437182  1
  Fe  Fe44  1  0.37416610  0.62520104  0.38394212  1
  Fe  Fe45  1  0.62752375  0.37648536  0.38600516  1
  Fe  Fe46  1  0.12482404  0.62567214  0.13292698  1
  Fe  Fe47  1  0.37583371  0.37407876  0.88391645  1
  Fe  Fe48  1  0.37550925  0.12130575  0.87714598  1
  Fe  Fe49  1  0.87585411  0.62595475  0.87937834  1
  Fe  Fe50  1  0.87279097  0.37467482  0.88923351  1
  Fe  Fe51  1  0.37868721  0.12372706  0.13699448  1
  Fe  Fe52  1  0.62453616  0.87575947  0.62948316  1
  Fe  Fe53  1  0.37204698  0.87450701  0.62687952  1
  Fe  Fe54  1  0.12702539  0.37428311  0.89480512  1
  Fe  Fe55  1  0.87357843  0.37420423  0.13407781  1
  Fe  Fe56  1  0.62372014  0.62969417  0.87737228  1
  Fe  Fe57  1  0.12267923  0.87512845  0.63549030  1
  Fe  Fe58  1  0.62409817  0.12712397  0.39445466  1
  Fe  Fe59  1  0.87666097  0.62216265  0.64317182  1
  Fe  Fe60  1  0.62320810  0.62212385  0.64551120  1
  Fe  Fe61  1  0.87627066  0.37626856  0.38368400  1
  Fe  Fe62  1  0.62234319  0.37461722  0.88125389  1
  Fe  Fe63  1  0.87305313  0.87601609  0.14183899  1
  Pb  Pb64  1  -0.00357503  -0.01008717  0.00590690  1
  Pb  Pb65  1  -0.00294013  -0.00428849  0.24926561  1
  Pb  Pb66  1  0.00626277  -0.00626942  0.50094395  1
  Pb  Pb67  1  0.00532809  -0.00474775  0.75399337  1
  Pb  Pb68  1  -0.00282316  0.25803791  0.00214437  1
  Pb  Pb69  1  -0.00348790  0.25692932  0.24655487  1
  Pb  Pb70  1  0.00115600  0.25160264  0.49761116  1
  Pb  Pb71  1  -0.00176450  0.26096967  0.76005255  1
  Pb  Pb72  1  -0.00432436  0.49322362  -0.00178810  1
  Pb  Pb73  1  0.00293150  0.49943617  0.23996893  1
  Pb  Pb74  1  -0.00322042  0.51314569  0.50710319  1
  Pb  Pb75  1  -0.00484058  0.49957193  0.75539590  1
  Pb  Pb76  1  0.00719358  0.75268994  0.00406526  1
  Pb  Pb77  1  0.00257777  0.74994518  0.24353604  1
  Pb  Pb78  1  0.00713282  0.74440375  0.50236421  1
  Pb  Pb79  1  0.00139358  0.74339642  0.74742458  1
  Pb  Pb80  1  0.25301769  0.00155501  -0.00117237  1
  Pb  Pb81  1  0.25282983  -0.00115475  0.24977844  1
  Pb  Pb82  1  0.25440962  -0.00390534  0.50667382  1
  Pb  Pb83  1  0.25438302  -0.00002643  0.74485084  1
  Pb  Pb84  1  0.25360694  0.25039109  -0.00542409  1
  Pb  Pb85  1  0.25276206  0.25172538  0.24567056  1
  Pb  Pb86  1  0.25535098  0.24709365  0.50463205  1
  Pb  Pb87  1  0.24981338  0.25876057  0.75739905  1
  Pb  Pb88  1  0.24611784  0.50308052  0.00174131  1
  Pb  Pb89  1  0.24657387  0.51046825  0.24592839  1
  Pb  Pb90  1  0.24597517  0.50631989  0.49732276  1
  Pb  Pb91  1  0.24760718  0.49101237  0.75561699  1
  Pb  Pb92  1  0.25107555  0.74219007  0.00656514  1
  Pb  Pb93  1  0.24534486  0.73950920  0.24886409  1
  Pb  Pb94  1  0.24836547  0.75543134  0.50104767  1
  Pb  Pb95  1  0.23851015  0.76087609  0.74770011  1
  Pb  Pb96  1  0.49392231  0.00361840  -0.00288912  1
  Pb  Pb97  1  0.51145315  0.00236844  0.26102379  1
  Pb  Pb98  1  0.50361382  0.00263989  0.50410932  1
  Pb  Pb99  1  0.49681014  0.00244190  0.73452889  1
  Pb  Pb100  1  0.49417145  0.24590376  -0.00806381  1
  Pb  Pb101  1  0.51070115  0.24786920  0.25614941  1
  Pb  Pb102  1  0.49879806  0.24370989  0.50303349  1
  Pb  Pb103  1  0.49723329  0.24819777  0.74944458  1
  Pb  Pb104  1  0.50354163  0.50752126  -0.00618827  1
  Pb  Pb105  1  0.49700280  0.50319622  0.24858341  1
  Pb  Pb106  1  0.50735510  0.50852664  0.50582537  1
  Pb  Pb107  1  0.50128721  0.49400535  0.75472549  1
  Pb  Pb108  1  0.50145460  0.74338430  -0.00049636  1
  Pb  Pb109  1  0.49792132  0.74838208  0.25266954  1
  Pb  Pb110  1  0.51149738  0.74712414  0.50844371  1
  Pb  Pb111  1  0.50693127  0.75558369  0.74368113  1
  Pb  Pb112  1  0.75458609  -0.00700093  0.00188243  1
  Pb  Pb113  1  0.74207597  -0.00429015  0.26154524  1
  Pb  Pb114  1  0.74470814  -0.00247991  0.49884624  1
  Pb  Pb115  1  0.74104999  -0.00320856  0.74390201  1
  Pb  Pb116  1  0.75070720  0.25410512  -0.00195116  1
  Pb  Pb117  1  0.74602563  0.25598139  0.25602188  1
  Pb  Pb118  1  0.74599447  0.25275658  0.49655834  1
  Pb  Pb119  1  0.75039435  0.26109791  0.75512774  1
  Pb  Pb120  1  0.74587529  0.50418191  -0.01215988  1
  Pb  Pb121  1  0.75277964  0.49146727  0.24929121  1
  Pb  Pb122  1  0.75534856  0.50747767  0.50294504  1
  Pb  Pb123  1  0.75122473  0.50860070  0.75447424  1
  Pb  Pb124  1  0.74374894  0.74507014  -0.00649091  1
  Pb  Pb125  1  0.74982985  0.76151136  0.25592367  1
  Pb  Pb126  1  0.75007196  0.74826785  0.50290169  1
  Pb  Pb127  1  0.74007172  0.74864701  0.74760029  1
  O  O128  1  0.12576927  0.00660517  0.16521383  1
  O  O129  1  0.12477365  0.00048539  0.41502228  1
  O  O130  1  0.11901671  0.01011182  0.66253053  1
  O  O131  1  0.12180362  0.00663064  0.91624744  1
  O  O132  1  0.12676933  0.24382493  0.16289007  1
  O  O133  1  0.12746529  0.25091179  0.41656005  1
  O  O134  1  0.12100817  0.24990783  0.66992711  1
  O  O135  1  0.12307107  0.23718876  0.91364509  1
  O  O136  1  0.12671059  0.49796966  0.15805777  1
  O  O137  1  0.12758595  0.49104263  0.40752258  1
  O  O138  1  0.12458670  0.49303160  0.66772561  1
  O  O139  1  0.12848408  0.50859617  0.91390300  1
  O  O140  1  0.12598047  0.75261954  0.16127552  1
  O  O141  1  0.12501249  0.75665078  0.40952432  1
  O  O142  1  0.12343514  0.74771754  0.66250088  1
  O  O143  1  0.12614945  0.74695496  0.91661026  1
  O  O144  1  0.37932627  -0.00441649  0.17102990  1
  O  O145  1  0.37072022  -0.00122281  0.41833255  1
  O  O146  1  0.37077461  0.00109310  0.65642006  1
  O  O147  1  0.37425296  -0.00467597  0.91130948  1
  O  O148  1  0.37955703  0.25377339  0.16474607  1
  O  O149  1  0.36898037  0.25411028  0.41646434  1
  O  O150  1  0.37302387  0.25870023  0.66403614  1
  O  O151  1  0.37558388  0.24444336  0.90883055  1
  O  O152  1  0.38093767  0.48917992  0.15944132  1
  O  O153  1  0.37069161  0.49276606  0.41132121  1
  O  O154  1  0.37405018  0.49426785  0.66734371  1
  O  O155  1  0.37350352  0.50987886  0.90897349  1
  O  O156  1  0.38079858  0.76273620  0.16462613  1
  O  O157  1  0.36994226  0.75528762  0.41196990  1
  O  O158  1  0.37123940  0.74243976  0.65336675  1
  O  O159  1  0.37266028  0.75282177  0.91293812  1
  O  O160  1  0.62536074  -0.00085407  0.17121502  1
  O  O161  1  0.62431109  0.00128955  0.41862500  1
  O  O162  1  0.63072263  0.00218157  0.65371906  1
  O  O163  1  0.62777361  0.00300421  0.91303927  1
  O  O164  1  0.62484070  0.25041931  0.16753210  1
  O  O165  1  0.62490398  0.25363203  0.41674945  1
  O  O166  1  0.62671576  0.25610283  0.66249051  1
  O  O167  1  0.62667846  0.23645737  0.90996751  1
  O  O168  1  0.62446279  0.49317973  0.16012150  1
  O  O169  1  0.62401929  0.50517018  0.41576027  1
  O  O170  1  0.62350076  0.49021342  0.66713758  1
  O  O171  1  0.62117571  0.50360261  0.90500452  1
  O  O172  1  0.62456932  0.75805648  0.16416098  1
  O  O173  1  0.62601337  0.74008180  0.41672041  1
  O  O174  1  0.62586840  0.75157718  0.66024157  1
  O  O175  1  0.62322563  0.75444784  0.91097353  1
  O  O176  1  0.87480903  0.00958218  0.16852171  1
  O  O177  1  0.88069411  0.00711587  0.41196104  1
  O  O178  1  0.87885254  0.00506392  0.66166407  1
  O  O179  1  0.87370374  0.00133165  0.91603249  1
  O  O180  1  0.87467478  0.24197706  0.16547447  1
  O  O181  1  0.87891593  0.24439438  0.41399212  1
  O  O182  1  0.87706235  0.25120043  0.66796750  1
  O  O183  1  0.87241015  0.23799769  0.91392723  1
  O  O184  1  0.87237415  0.50497162  0.15865364  1
  O  O185  1  0.87626669  0.50584621  0.41426829  1
  O  O186  1  0.87597058  0.48809053  0.66598488  1
  O  O187  1  0.87550812  0.50224869  0.91132048  1
  O  O188  1  0.87196287  0.74437400  0.16234684  1
  O  O189  1  0.87666970  0.74172075  0.41402748  1
  O  O190  1  0.87980606  0.75716825  0.65486356  1
  O  O191  1  0.87745776  0.75622716  0.90781508  1
  O  O192  1  0.00163514  0.12550043  0.16289458  1
  O  O193  1  0.00186567  0.12738861  0.41589712  1
  O  O194  1  -0.00246576  0.12993743  0.67198337  1
  O  O195  1  -0.00485707  0.12099538  0.91043891  1
  O  O196  1  0.00044383  0.37138555  0.15987006  1
  O  O197  1  0.00804197  0.37038509  0.40760174  1
  O  O198  1  -0.00269760  0.37147523  0.66791263  1
  O  O199  1  -0.00033789  0.37156274  0.91457668  1
  O  O200  1  -0.00850174  0.62508707  0.15911044  1
  O  O201  1  -0.00202447  0.62343044  0.41112008  1
  O  O202  1  0.00248964  0.61982892  0.66943115  1
  O  O203  1  0.00475927  0.62836637  0.91094701  1
  O  O204  1  0.00035358  0.87877456  0.16559837  1
  O  O205  1  0.00545273  0.87679239  0.41182545  1
  O  O206  1  -0.00584289  0.88024421  0.66590232  1
  O  O207  1  -0.00688140  0.87929656  0.91436699  1
  O  O208  1  0.24711141  0.12414967  0.16371172  1
  O  O209  1  0.24712005  0.12548306  0.42027471  1
  O  O210  1  0.23850154  0.12987200  0.66118408  1
  O  O211  1  0.24384805  0.12049135  0.90722485  1
  O  O212  1  0.25812644  0.36995466  0.15503082  1
  O  O213  1  0.24782234  0.37260729  0.41691902  1
  O  O214  1  0.24998470  0.37352583  0.66555705  1
  O  O215  1  0.25351103  0.37426578  0.91851667  1
  O  O216  1  0.25450034  0.62607014  0.16155796  1
  O  O217  1  0.25031900  0.62407371  0.41578862  1
  O  O218  1  0.25618572  0.61651170  0.66208912  1
  O  O219  1  0.25175541  0.62981083  0.91561258  1
  O  O220  1  0.25721028  0.88066125  0.15900644  1
  O  O221  1  0.24465224  0.87816204  0.41550082  1
  O  O222  1  0.24793603  0.87651664  0.66217851  1
  O  O223  1  0.25733565  0.87625357  0.91632506  1
  O  O224  1  0.50424312  0.12403691  0.17031481  1
  O  O225  1  0.49170296  0.12722420  0.41646112  1
  O  O226  1  0.50228964  0.12937423  0.65904701  1
  O  O227  1  0.50715281  0.11894785  0.90487949  1
  O  O228  1  0.50287803  0.37100897  0.16484021  1
  O  O229  1  0.49076717  0.37300284  0.40989310  1
  O  O230  1  0.49936893  0.37397925  0.66212810  1
  O  O231  1  0.49973554  0.37303712  0.91459749  1
  O  O232  1  0.50424501  0.62623347  0.17028632  1
  O  O233  1  0.50352044  0.62403996  0.41287385  1
  O  O234  1  0.48750610  0.61928428  0.66693299  1
  O  O235  1  0.49227771  0.63100384  0.90795499  1
  O  O236  1  0.50397353  0.87952566  0.16859787  1
  O  O237  1  0.49420111  0.87546730  0.41380721  1
  O  O238  1  0.49716024  0.87432645  0.65243140  1
  O  O239  1  0.49146485  0.87623611  0.90889622  1
  O  O240  1  0.75216652  0.12542849  0.16572026  1
  O  O241  1  0.75988894  0.12522604  0.41150673  1
  O  O242  1  0.75961479  0.12953330  0.66074134  1
  O  O243  1  0.75133289  0.11994372  0.91400851  1
  O  O244  1  0.74452815  0.37119513  0.16198154  1
  O  O245  1  0.75314114  0.37770206  0.41735112  1
  O  O246  1  0.75175189  0.37183631  0.66134093  1
  O  O247  1  0.74584622  0.37084044  0.91432507  1
  O  O248  1  0.75305306  0.62460130  0.16299433  1
  O  O249  1  0.74981861  0.62288843  0.41394064  1
  O  O250  1  0.75088036  0.61969591  0.66357045  1
  O  O251  1  0.75045478  0.63006344  0.90651962  1
  O  O252  1  0.74318311  0.87885994  0.16752466  1
  O  O253  1  0.75645460  0.87285689  0.41969749  1
  O  O254  1  0.76157640  0.87893825  0.65594310  1
  O  O255  1  0.75651260  0.87808404  0.91203485  1
  O  O256  1  0.12452829  0.12379163  0.04835916  1
  O  O257  1  0.12696287  0.12688004  0.29776915  1
  O  O258  1  0.11587838  0.13302833  0.55124692  1
  O  O259  1  0.12175849  0.12107626  0.79618500  1
  O  O260  1  0.12383336  0.37186885  0.02729899  1
  O  O261  1  0.13198665  0.36908148  0.29620411  1
  O  O262  1  0.12159893  0.37402815  0.55072443  1
  O  O263  1  0.13220848  0.37059741  0.79320407  1
  O  O264  1  0.12872963  0.63069159  0.03274009  1
  O  O265  1  0.13205605  0.62384010  0.28430296  1
  O  O266  1  0.11731167  0.61957092  0.53427572  1
  O  O267  1  0.12611775  0.62899534  0.80117760  1
  O  O268  1  0.11780094  0.87775408  0.03103671  1
  O  O269  1  0.12861221  0.88015320  0.29906801  1
  O  O270  1  0.12010061  0.87650695  0.53545973  1
  O  O271  1  0.12687403  0.87569803  0.79223714  1
  O  O272  1  0.38055002  0.11619279  0.03788615  1
  O  O273  1  0.36850647  0.12489440  0.30250914  1
  O  O274  1  0.36990551  0.13473372  0.53719341  1
  O  O275  1  0.37507764  0.12153396  0.77707297  1
  O  O276  1  0.38185943  0.36908445  0.04467285  1
  O  O277  1  0.37072631  0.37304697  0.29790435  1
  O  O278  1  0.37401735  0.37933923  0.55184625  1
  O  O279  1  0.37136654  0.37537017  0.78342781  1
  O  O280  1  0.38144257  0.63244378  0.03772715  1
  O  O281  1  0.37588943  0.62418474  0.28378618  1
  O  O282  1  0.37575934  0.61703671  0.54603783  1
  O  O283  1  0.36817748  0.63072336  0.79766186  1
  O  O284  1  0.38124651  0.88255726  0.04932918  1
  O  O285  1  0.37218537  0.87918776  0.30608209  1
  O  O286  1  0.36334275  0.87292591  0.52619601  1
  O  O287  1  0.36983770  0.87418563  0.79500761  1
  O  O288  1  0.62428287  0.12275603  0.05194221  1
  O  O289  1  0.62058505  0.12410507  0.29280732  1
  O  O290  1  0.62425856  0.13093518  0.52871092  1
  O  O291  1  0.63213215  0.11901080  0.79348042  1
  O  O292  1  0.62174871  0.37105268  0.04971326  1
  O  O293  1  0.63092511  0.37224564  0.28587200  1
  O  O294  1  0.62453931  0.37764608  0.55104446  1
  O  O295  1  0.62291399  0.36809954  0.78131868  1
  O  O296  1  0.62012233  0.63079179  0.03518189  1
  O  O297  1  0.62570300  0.62329429  0.29894912  1
  O  O298  1  0.61263432  0.61990918  0.54365336  1
  O  O299  1  0.62297972  0.63137925  0.77531486  1
  O  O300  1  0.62301278  0.87885826  0.05214721  1
  O  O301  1  0.63278469  0.87673937  0.29594900  1
  O  O302  1  0.62601008  0.86719162  0.52702497  1
  O  O303  1  0.62949004  0.87466427  0.78069195  1
  O  O304  1  0.87075588  0.12323104  0.05000859  1
  O  O305  1  0.87913909  0.12579819  0.29722916  1
  O  O306  1  0.88311362  0.12799448  0.55113086  1
  O  O307  1  0.87300485  0.12076385  0.79811425  1
  O  O308  1  0.87590954  0.36592303  0.03383378  1
  O  O309  1  0.87083749  0.37468836  0.28371056  1
  O  O310  1  0.87903200  0.37123796  0.55192560  1
  O  O311  1  0.87414291  0.36641822  0.78830085  1
  O  O312  1  0.86920176  0.62833241  0.04401166  1
  O  O313  1  0.87484636  0.62427101  0.29863838  1
  O  O314  1  0.88252106  0.61446173  0.54134986  1
  O  O315  1  0.87866813  0.62040209  0.77864024  1
  O  O316  1  0.87336989  0.88441340  0.04191276  1
  O  O317  1  0.87038960  0.87377574  0.28402686  1
  O  O318  1  0.88402555  0.87768167  0.54356626  1
  O  O319  1  0.87608688  0.87726488  0.79700421  1
