# generated using pymatgen
data_VFe(PbO3)2
_symmetry_space_group_name_H-M   'P 1'
_cell_length_a   15.39109350
_cell_length_b   15.38637829
_cell_length_c   18.49693663
_cell_angle_alpha   89.98688977
_cell_angle_beta   89.98465451
_cell_angle_gamma   89.99943697
_symmetry_Int_Tables_number   1
_chemical_formula_structural   VFe(PbO3)2
_chemical_formula_sum   'V32 Fe32 Pb64 O192'
_cell_volume   4380.31823872
_cell_formula_units_Z   32
loop_
 _symmetry_equiv_pos_site_id
 _symmetry_equiv_pos_as_xyz
  1  'x, y, z'
loop_
 _atom_site_type_symbol
 _atom_site_label
 _atom_site_symmetry_multiplicity
 _atom_site_fract_x
 _atom_site_fract_y
 _atom_site_fract_z
 _atom_site_occupancy
  V  V0  1  0.37877122  0.62536890  0.14133464  1
  V  V1  1  0.12695286  0.62334648  0.38770067  1
  V  V2  1  0.36909366  0.12914879  0.64378943  1
  V  V3  1  0.62441951  0.87452084  0.13858430  1
  V  V4  1  0.62611706  0.62746002  0.88419891  1
  V  V5  1  0.12272518  0.12579860  0.89261481  1
  V  V6  1  0.37405531  0.37443759  0.63913870  1
  V  V7  1  0.12310997  0.87276532  0.89226476  1
  V  V8  1  0.37376823  0.12276927  0.39015156  1
  V  V9  1  0.12482589  0.87338670  0.38721951  1
  V  V10  1  0.62588624  0.62749715  0.14482859  1
  V  V11  1  0.62613251  0.37701593  0.88784616  1
  V  V12  1  0.12612168  0.37282432  0.38342498  1
  V  V13  1  0.62617837  0.12216611  0.39186357  1
  V  V14  1  0.87276024  0.12535101  0.14219639  1
  V  V15  1  0.11799423  0.12707879  0.64006865  1
  V  V16  1  0.37374408  0.87487335  0.39344091  1
  V  V17  1  0.37997101  0.87389243  0.13617247  1
  V  V18  1  0.12725422  0.37444599  0.64516136  1
  V  V19  1  0.37339641  0.62309709  0.64107614  1
  V  V20  1  0.62530378  0.12491285  0.13910461  1
  V  V21  1  0.87278447  0.12395959  0.89072543  1
  V  V22  1  0.12369872  0.62474015  0.64261576  1
  V  V23  1  0.37549027  0.37588989  0.14105529  1
  V  V24  1  0.62441458  0.87642084  0.40218502  1
  V  V25  1  0.62699289  0.88003547  0.88226871  1
  V  V26  1  0.62346363  0.37503988  0.63666272  1
  V  V27  1  0.62216487  0.12715298  0.64181173  1
  V  V28  1  0.37164721  0.37547582  0.88977187  1
  V  V29  1  0.87195539  0.12852484  0.63610412  1
  V  V30  1  0.62518034  0.37616828  0.14790232  1
  V  V31  1  0.12022853  0.37607907  0.13674308  1
  Fe  Fe32  1  0.62379494  0.62353802  0.62684444  1
  Fe  Fe33  1  0.87455244  0.62467817  0.13803030  1
  Fe  Fe34  1  0.12475645  0.87303570  0.12947141  1
  Fe  Fe35  1  0.87605333  0.62251310  0.63396069  1
  Fe  Fe36  1  0.12398129  0.37148078  0.88462858  1
  Fe  Fe37  1  0.87032546  0.87451889  0.13206540  1
  Fe  Fe38  1  0.37500917  0.87524541  0.87941588  1
  Fe  Fe39  1  0.62207035  0.62603468  0.39285023  1
  Fe  Fe40  1  0.62896907  0.12849774  0.88078313  1
  Fe  Fe41  1  0.62312962  0.87664372  0.62864709  1
  Fe  Fe42  1  0.62126081  0.37245114  0.38242410  1
  Fe  Fe43  1  0.12620102  0.87533639  0.63907939  1
  Fe  Fe44  1  0.12745454  0.12099956  0.37632986  1
  Fe  Fe45  1  0.87855121  0.87711853  0.63145217  1
  Fe  Fe46  1  0.37652448  0.12522815  0.89108567  1
  Fe  Fe47  1  0.87670187  0.37221725  0.63846641  1
  Fe  Fe48  1  0.87953384  0.12264819  0.38251354  1
  Fe  Fe49  1  0.87522064  0.37355531  0.37948814  1
  Fe  Fe50  1  0.38148382  0.12450323  0.13122209  1
  Fe  Fe51  1  0.87782601  0.62626026  0.38683781  1
  Fe  Fe52  1  0.87149967  0.37586334  0.14363769  1
  Fe  Fe53  1  0.37032629  0.87557551  0.64593540  1
  Fe  Fe54  1  0.87617955  0.87593580  0.89280189  1
  Fe  Fe55  1  0.87353715  0.62449085  0.88173602  1
  Fe  Fe56  1  0.87377276  0.37365988  0.88361129  1
  Fe  Fe57  1  0.37194245  0.37491831  0.38376835  1
  Fe  Fe58  1  0.87478103  0.87635578  0.39116452  1
  Fe  Fe59  1  0.12605250  0.62213213  0.88717103  1
  Fe  Fe60  1  0.37098140  0.62761584  0.38488917  1
  Fe  Fe61  1  0.37865269  0.62344640  0.88335782  1
  Fe  Fe62  1  0.12819196  0.12538372  0.14457024  1
  Fe  Fe63  1  0.12802831  0.62436755  0.13087689  1
  Pb  Pb64  1  0.00939081  -0.00215499  0.00846828  1
  Pb  Pb65  1  -0.00121319  -0.00336966  0.24418167  1
  Pb  Pb66  1  0.00104187  -0.00234116  0.49500346  1
  Pb  Pb67  1  -0.00597310  -0.01220683  0.75588843  1
  Pb  Pb68  1  -0.00351368  0.25582397  0.00216668  1
  Pb  Pb69  1  -0.00968186  0.24742430  0.25264267  1
  Pb  Pb70  1  -0.00440701  0.25193154  0.49416385  1
  Pb  Pb71  1  -0.00065566  0.26196091  0.75599515  1
  Pb  Pb72  1  -0.00241467  0.50215462  -0.00713128  1
  Pb  Pb73  1  -0.01027367  0.50820390  0.24717215  1
  Pb  Pb74  1  -0.01439575  0.49738328  0.50112630  1
  Pb  Pb75  1  -0.00302687  0.50357873  0.75336986  1
  Pb  Pb76  1  -0.00547202  0.73792119  -0.00041360  1
  Pb  Pb77  1  -0.00215156  0.75142082  0.23920157  1
  Pb  Pb78  1  -0.00667251  0.75151130  0.50135367  1
  Pb  Pb79  1  -0.01241551  0.74945752  0.75088516  1
  Pb  Pb80  1  0.24522587  -0.00179779  0.00210364  1
  Pb  Pb81  1  0.24602408  0.00367356  0.24429594  1
  Pb  Pb82  1  0.24749961  -0.00902604  0.50680599  1
  Pb  Pb83  1  0.25419858  -0.00193023  0.75493576  1
  Pb  Pb84  1  0.24646514  0.23343440  0.00829918  1
  Pb  Pb85  1  0.25280380  0.24847857  0.24683606  1
  Pb  Pb86  1  0.24556953  0.24541165  0.49615642  1
  Pb  Pb87  1  0.24845069  0.25184068  0.75661521  1
  Pb  Pb88  1  0.24289436  0.50584090  -0.00213532  1
  Pb  Pb89  1  0.26055668  0.49907771  0.24982434  1
  Pb  Pb90  1  0.24995912  0.50191616  0.49701281  1
  Pb  Pb91  1  0.24352629  0.50491727  0.75804092  1
  Pb  Pb92  1  0.24731774  0.74682773  -0.00497400  1
  Pb  Pb93  1  0.25357552  0.74626537  0.24496739  1
  Pb  Pb94  1  0.24708557  0.76156684  0.50775890  1
  Pb  Pb95  1  0.24799847  0.74097356  0.75527466  1
  Pb  Pb96  1  0.49673219  0.00516119  -0.00706998  1
  Pb  Pb97  1  0.50468196  -0.00030345  0.24855289  1
  Pb  Pb98  1  0.49397595  -0.00684850  0.51056116  1
  Pb  Pb99  1  0.49382317  0.00159804  0.75080110  1
  Pb  Pb100  1  0.50062142  0.24612352  -0.00081555  1
  Pb  Pb101  1  0.49959625  0.25890948  0.25328929  1
  Pb  Pb102  1  0.49783493  0.25216495  0.49850514  1
  Pb  Pb103  1  0.49825936  0.24127778  0.75639860  1
  Pb  Pb104  1  0.50569209  0.49734653  0.00020671  1
  Pb  Pb105  1  0.50724542  0.50317882  0.26057731  1
  Pb  Pb106  1  0.49993332  0.50262619  0.49149116  1
  Pb  Pb107  1  0.49506333  0.50271400  0.74778088  1
  Pb  Pb108  1  0.49915886  0.75080548  -0.00752824  1
  Pb  Pb109  1  0.50477232  0.74048165  0.25884183  1
  Pb  Pb110  1  0.50218707  0.74790426  0.50505500  1
  Pb  Pb111  1  0.50074395  0.75591612  0.74184346  1
  Pb  Pb112  1  0.75419818  -0.00492464  0.00093396  1
  Pb  Pb113  1  0.75956114  -0.00323965  0.25607756  1
  Pb  Pb114  1  0.75450887  -0.00546010  0.50403155  1
  Pb  Pb115  1  0.75100053  -0.00730506  0.74485007  1
  Pb  Pb116  1  0.75480494  0.25751746  0.00328404  1
  Pb  Pb117  1  0.75167358  0.25239290  0.25585588  1
  Pb  Pb118  1  0.75845337  0.26006134  0.49595621  1
  Pb  Pb119  1  0.74632563  0.25068165  0.75059155  1
  Pb  Pb120  1  0.76467906  0.49921428  0.00269733  1
  Pb  Pb121  1  0.75065757  0.50860951  0.25861224  1
  Pb  Pb122  1  0.74983750  0.50151879  0.49067037  1
  Pb  Pb123  1  0.76163657  0.50381945  0.74432250  1
  Pb  Pb124  1  0.76130398  0.74678689  0.00119285  1
  Pb  Pb125  1  0.76451447  0.75193822  0.25771418  1
  Pb  Pb126  1  0.75871739  0.73639540  0.50286044  1
  Pb  Pb127  1  0.75255507  0.74805590  0.73576061  1
  O  O128  1  0.12836742  -0.00386788  0.16389307  1
  O  O129  1  0.13081205  -0.00800974  0.40835061  1
  O  O130  1  0.12884675  0.01373445  0.66466566  1
  O  O131  1  0.12330838  0.00557867  0.91731368  1
  O  O132  1  0.13124864  0.25951843  0.16392508  1
  O  O133  1  0.12822198  0.25487178  0.40423955  1
  O  O134  1  0.13021899  0.24439433  0.66979932  1
  O  O135  1  0.12418583  0.24317626  0.91694879  1
  O  O136  1  0.13203932  0.49123538  0.16122458  1
  O  O137  1  0.12893425  0.50257299  0.40808352  1
  O  O138  1  0.12800978  0.50011592  0.66711455  1
  O  O139  1  0.12679722  0.49502694  0.91310363  1
  O  O140  1  0.13027612  0.75017275  0.16054862  1
  O  O141  1  0.12889367  0.75361818  0.41270147  1
  O  O142  1  0.12907225  0.74167455  0.66277937  1
  O  O143  1  0.12655803  0.75624810  0.90796580  1
  O  O144  1  0.38507804  -0.00823184  0.15549713  1
  O  O145  1  0.37090158  0.00013047  0.41815950  1
  O  O146  1  0.37354670  0.01104564  0.66513948  1
  O  O147  1  0.37871832  -0.00254690  0.91323040  1
  O  O148  1  0.37977391  0.25692444  0.15974062  1
  O  O149  1  0.37077101  0.24200611  0.41307956  1
  O  O150  1  0.37380918  0.24996425  0.66866137  1
  O  O151  1  0.38104379  0.25947488  0.91581197  1
  O  O152  1  0.37932885  0.49806055  0.16546982  1
  O  O153  1  0.36852021  0.50095964  0.41314867  1
  O  O154  1  0.37349489  0.49869163  0.66507134  1
  O  O155  1  0.38118603  0.49193068  0.91664812  1
  O  O156  1  0.38220612  0.75181460  0.16520059  1
  O  O157  1  0.37239369  0.75903380  0.41549682  1
  O  O158  1  0.37047356  0.74046011  0.66132295  1
  O  O159  1  0.37955461  0.75106287  0.91093510  1
  O  O160  1  0.62145894  -0.00072496  0.16473297  1
  O  O161  1  0.61653699  0.00630517  0.42329380  1
  O  O162  1  0.62301717  0.00711532  0.66116212  1
  O  O163  1  0.62653452  -0.00405769  0.90385260  1
  O  O164  1  0.62280544  0.25301882  0.16521480  1
  O  O165  1  0.61702402  0.23887516  0.41383898  1
  O  O166  1  0.62220013  0.25380387  0.66801150  1
  O  O167  1  0.62686060  0.25824266  0.91128120  1
  O  O168  1  0.62113457  0.50057177  0.16887350  1
  O  O169  1  0.62177033  0.49680578  0.41195197  1
  O  O170  1  0.61915181  0.49108190  0.65584440  1
  O  O171  1  0.62513048  0.49737502  0.91403408  1
  O  O172  1  0.62187538  0.74595455  0.16517868  1
  O  O173  1  0.61746917  0.76036342  0.41429990  1
  O  O174  1  0.62249261  0.74947015  0.65622185  1
  O  O175  1  0.62323427  0.74516477  0.90299044  1
  O  O176  1  0.86780387  0.00479898  0.16229494  1
  O  O177  1  0.87437215  0.00182943  0.41772286  1
  O  O178  1  0.87876442  0.01290545  0.66161516  1
  O  O179  1  0.87508700  0.00739257  0.91841060  1
  O  O180  1  0.87041476  0.24432573  0.16572014  1
  O  O181  1  0.87801646  0.24838219  0.41217671  1
  O  O182  1  0.87547880  0.24306932  0.66568334  1
  O  O183  1  0.87315109  0.24258587  0.91695490  1
  O  O184  1  0.87114049  0.50033545  0.16654135  1
  O  O185  1  0.87972607  0.49823076  0.40907981  1
  O  O186  1  0.87844579  0.49667160  0.66156877  1
  O  O187  1  0.87184911  0.49922090  0.91166280  1
  O  O188  1  0.86920505  0.75025551  0.16382156  1
  O  O189  1  0.87815491  0.75145914  0.41536194  1
  O  O190  1  0.87859784  0.75033961  0.65846535  1
  O  O191  1  0.87183916  0.74970719  0.91256273  1
  O  O192  1  -0.00794515  0.12475916  0.15877815  1
  O  O193  1  0.00605320  0.12286116  0.40905945  1
  O  O194  1  0.00267404  0.13172460  0.65649331  1
  O  O195  1  -0.00128882  0.12539749  0.91746806  1
  O  O196  1  0.00546676  0.37366236  0.15683779  1
  O  O197  1  0.01080051  0.37619014  0.40974477  1
  O  O198  1  0.00592966  0.36996199  0.66623575  1
  O  O199  1  -0.00152012  0.36916500  0.91418656  1
  O  O200  1  0.00311564  0.62356313  0.16034396  1
  O  O201  1  0.01244731  0.62701555  0.41363488  1
  O  O202  1  0.00756774  0.62158040  0.66253858  1
  O  O203  1  -0.00029457  0.62583961  0.91088073  1
  O  O204  1  -0.00300149  0.87699862  0.15501519  1
  O  O205  1  0.00876389  0.87620864  0.40740143  1
  O  O206  1  0.00251260  0.87928569  0.66766291  1
  O  O207  1  0.00611251  0.87984979  0.91720503  1
  O  O208  1  0.25946011  0.12501706  0.16350378  1
  O  O209  1  0.25375782  0.12313744  0.41286920  1
  O  O210  1  0.25258218  0.12958890  0.66736466  1
  O  O211  1  0.24409213  0.12584474  0.91303511  1
  O  O212  1  0.25713269  0.37615170  0.16036794  1
  O  O213  1  0.24241820  0.37532979  0.41449956  1
  O  O214  1  0.25265179  0.37260274  0.67050433  1
  O  O215  1  0.25725700  0.37346352  0.90816847  1
  O  O216  1  0.25705512  0.62394440  0.16205686  1
  O  O217  1  0.24256330  0.62908244  0.41786041  1
  O  O218  1  0.25049268  0.61935214  0.66739186  1
  O  O219  1  0.25459352  0.62357736  0.91394335  1
  O  O220  1  0.26465720  0.87302522  0.15685706  1
  O  O221  1  0.25126995  0.87589350  0.41638724  1
  O  O222  1  0.24564353  0.87742531  0.67509942  1
  O  O223  1  0.24394790  0.87973901  0.90817009  1
  O  O224  1  0.50509424  0.12646763  0.16622778  1
  O  O225  1  0.49098623  0.12164758  0.41865625  1
  O  O226  1  0.49456908  0.13052210  0.66403003  1
  O  O227  1  0.50612152  0.12812677  0.91484873  1
  O  O228  1  0.50000291  0.37686928  0.16726530  1
  O  O229  1  0.49589401  0.36994322  0.41472254  1
  O  O230  1  0.49848720  0.37204842  0.66384048  1
  O  O231  1  0.50605385  0.37642887  0.91539614  1
  O  O232  1  0.50304728  0.62397640  0.17064067  1
  O  O233  1  0.49379102  0.62946006  0.41617299  1
  O  O234  1  0.49306799  0.62086513  0.65817985  1
  O  O235  1  0.50845474  0.62009225  0.91469489  1
  O  O236  1  0.50228445  0.87124019  0.16988788  1
  O  O237  1  0.49169326  0.88093124  0.41997409  1
  O  O238  1  0.49833469  0.87724699  0.66184740  1
  O  O239  1  0.51127603  0.87302340  0.90916772  1
  O  O240  1  0.74633623  0.12632954  0.16864479  1
  O  O241  1  0.74083823  0.12219886  0.41003113  1
  O  O242  1  0.75362618  0.12793240  0.65977690  1
  O  O243  1  0.75517183  0.12466223  0.91323123  1
  O  O244  1  0.74101706  0.37528886  0.16853661  1
  O  O245  1  0.74827025  0.37018542  0.40683403  1
  O  O246  1  0.74089942  0.37128822  0.65849681  1
  O  O247  1  0.74427501  0.37489694  0.91409464  1
  O  O248  1  0.74062555  0.62229096  0.16626460  1
  O  O249  1  0.75027195  0.62778184  0.41188871  1
  O  O250  1  0.74784952  0.62140311  0.65660168  1
  O  O251  1  0.74012975  0.62208038  0.90949057  1
  O  O252  1  0.74138045  0.87469356  0.16627065  1
  O  O253  1  0.74108897  0.88156208  0.41516023  1
  O  O254  1  0.75125985  0.88131290  0.65666029  1
  O  O255  1  0.74070360  0.87405224  0.91200728  1
  O  O256  1  0.13245790  0.12486025  0.04299431  1
  O  O257  1  0.13140308  0.12091735  0.27541105  1
  O  O258  1  0.12694576  0.13004481  0.54876606  1
  O  O259  1  0.12007237  0.12424472  0.80180360  1
  O  O260  1  0.12572926  0.37340108  0.04520520  1
  O  O261  1  0.12741644  0.37630339  0.29273197  1
  O  O262  1  0.12905893  0.37134723  0.55400600  1
  O  O263  1  0.12583538  0.36574856  0.78434720  1
  O  O264  1  0.13137690  0.62481112  0.03013435  1
  O  O265  1  0.12937580  0.62644474  0.29684170  1
  O  O266  1  0.12705774  0.62107221  0.55171624  1
  O  O267  1  0.13210840  0.62234223  0.78581645  1
  O  O268  1  0.13100598  0.88279192  0.02926628  1
  O  O269  1  0.13063927  0.87145586  0.29626288  1
  O  O270  1  0.13348204  0.87650839  0.53858650  1
  O  O271  1  0.11752543  0.88166650  0.80082197  1
  O  O272  1  0.38007907  0.13034867  0.03054148  1
  O  O273  1  0.37772323  0.12032787  0.29922924  1
  O  O274  1  0.36758143  0.13146928  0.55249845  1
  O  O275  1  0.38005583  0.12950585  0.79050814  1
  O  O276  1  0.37943301  0.37981071  0.05024674  1
  O  O277  1  0.37100985  0.37223366  0.28417480  1
  O  O278  1  0.36959641  0.37191113  0.54813793  1
  O  O279  1  0.37876781  0.37651856  0.79837851  1
  O  O280  1  0.38355038  0.62597702  0.05022988  1
  O  O281  1  0.37205618  0.62967289  0.28459205  1
  O  O282  1  0.36674186  0.62028261  0.55007297  1
  O  O283  1  0.37633883  0.61776228  0.78390467  1
  O  O284  1  0.38587680  0.86783562  0.04521071  1
  O  O285  1  0.37477205  0.87758936  0.30278492  1
  O  O286  1  0.36141168  0.88025686  0.54416514  1
  O  O287  1  0.37952549  0.88058683  0.77860696  1
  O  O288  1  0.62739554  0.12536048  0.04795086  1
  O  O289  1  0.61933151  0.11798229  0.30075557  1
  O  O290  1  0.62362337  0.13342005  0.55083994  1
  O  O291  1  0.62730950  0.13431473  0.78093984  1
  O  O292  1  0.62340189  0.37865872  0.05647132  1
  O  O293  1  0.61597096  0.37152365  0.28201474  1
  O  O294  1  0.62036919  0.36683814  0.54566004  1
  O  O295  1  0.62640157  0.37873188  0.79683761  1
  O  O296  1  0.62320469  0.62487430  0.05395764  1
  O  O297  1  0.61787126  0.62428356  0.29049157  1
  O  O298  1  0.62256534  0.62671579  0.52625137  1
  O  O299  1  0.62231944  0.62053789  0.79330123  1
  O  O300  1  0.62270351  0.87390259  0.04747253  1
  O  O301  1  0.61652478  0.88571478  0.31126573  1
  O  O302  1  0.61554021  0.88208426  0.52762370  1
  O  O303  1  0.62835984  0.87707503  0.79068888  1
  O  O304  1  0.86562345  0.12651891  0.05107134  1
  O  O305  1  0.87428348  0.12382710  0.28214353  1
  O  O306  1  0.87369869  0.13051125  0.54467445  1
  O  O307  1  0.87506629  0.12434859  0.79987035  1
  O  O308  1  0.86453969  0.37020838  0.04221717  1
  O  O309  1  0.87911839  0.36563711  0.27826679  1
  O  O310  1  0.88041550  0.36768630  0.53714684  1
  O  O311  1  0.87426008  0.36944786  0.78290916  1
  O  O312  1  0.86868677  0.62787072  0.03623510  1
  O  O313  1  0.87582927  0.62503742  0.28474280  1
  O  O314  1  0.88135200  0.62498806  0.53182932  1
  O  O315  1  0.87552373  0.62188336  0.78019369  1
  O  O316  1  0.86125063  0.87594724  0.03086472  1
  O  O317  1  0.86552657  0.87718412  0.28965946  1
  O  O318  1  0.88227247  0.88164316  0.53057570  1
  O  O319  1  0.88042907  0.88420580  0.79133973  1
