# generated using pymatgen
data_VFe(PbO3)2
_symmetry_space_group_name_H-M   'P 1'
_cell_length_a   15.37870382
_cell_length_b   15.37500577
_cell_length_c   18.53379945
_cell_angle_alpha   89.99620401
_cell_angle_beta   90.00547616
_cell_angle_gamma   89.99579861
_symmetry_Int_Tables_number   1
_chemical_formula_structural   VFe(PbO3)2
_chemical_formula_sum   'V32 Fe32 Pb64 O192'
_cell_volume   4382.27346727
_cell_formula_units_Z   32
loop_
 _symmetry_equiv_pos_site_id
 _symmetry_equiv_pos_as_xyz
  1  'x, y, z'
loop_
 _atom_site_type_symbol
 _atom_site_label
 _atom_site_symmetry_multiplicity
 _atom_site_fract_x
 _atom_site_fract_y
 _atom_site_fract_z
 _atom_site_occupancy
  V  V0  1  0.63250067  0.62613932  0.88807188  1
  V  V1  1  0.62622738  0.62635100  0.13716130  1
  V  V2  1  0.37301377  0.37589491  0.63643219  1
  V  V3  1  0.12540749  0.62528941  0.14492130  1
  V  V4  1  0.12405044  0.12589505  0.89156505  1
  V  V5  1  0.62413895  0.62507152  0.39645393  1
  V  V6  1  0.87686976  0.12944323  0.63671826  1
  V  V7  1  0.12399029  0.12253275  0.38903911  1
  V  V8  1  0.37643421  0.12461582  0.39333038  1
  V  V9  1  0.37812365  0.62433321  0.39390569  1
  V  V10  1  0.37505523  0.87556892  0.39535286  1
  V  V11  1  0.86665432  0.12397051  0.38424742  1
  V  V12  1  0.12377558  0.12417220  0.14052363  1
  V  V13  1  0.12646476  0.87512738  0.14537095  1
  V  V14  1  0.87556910  0.87692697  0.63659787  1
  V  V15  1  0.87674412  0.37691050  0.63413653  1
  V  V16  1  0.12143611  0.62045604  0.63745708  1
  V  V17  1  0.62615458  0.87472516  0.39554197  1
  V  V18  1  0.37324527  0.12400508  0.13971092  1
  V  V19  1  0.37525399  0.87611734  0.88778306  1
  V  V20  1  0.37557386  0.62327298  0.88632496  1
  V  V21  1  0.87435308  0.12411052  0.13976306  1
  V  V22  1  0.87585944  0.62598552  0.38805249  1
  V  V23  1  0.37172046  0.12573898  0.88624586  1
  V  V24  1  0.37685698  0.37235790  0.38983345  1
  V  V25  1  0.12501285  0.87543633  0.89224258  1
  V  V26  1  0.87602698  0.12519332  0.88919321  1
  V  V27  1  0.37522934  0.62544140  0.14145170  1
  V  V28  1  0.12358825  0.87526254  0.63456508  1
  V  V29  1  0.88124215  0.62533945  0.88782502  1
  V  V30  1  0.62337156  0.87426137  0.13883295  1
  V  V31  1  0.87689270  0.62546978  0.14222706  1
  Fe  Fe32  1  0.37256377  0.87315870  0.63122561  1
  Fe  Fe33  1  0.37291892  0.37360538  0.88388118  1
  Fe  Fe34  1  0.12477523  0.37913853  0.88732332  1
  Fe  Fe35  1  0.87697469  0.37392065  0.88770696  1
  Fe  Fe36  1  0.12761236  0.37615625  0.38997416  1
  Fe  Fe37  1  0.62293287  0.37534167  0.13354970  1
  Fe  Fe38  1  0.62930996  0.62281871  0.63160518  1
  Fe  Fe39  1  0.12775393  0.62786383  0.38127251  1
  Fe  Fe40  1  0.62582780  0.87601150  0.63700300  1
  Fe  Fe41  1  0.12257354  0.37384470  0.62853170  1
  Fe  Fe42  1  0.87470680  0.87308341  0.14303073  1
  Fe  Fe43  1  0.62464343  0.12315201  0.13596582  1
  Fe  Fe44  1  0.62592207  0.12703884  0.63817162  1
  Fe  Fe45  1  0.37432333  0.37386924  0.13585798  1
  Fe  Fe46  1  0.37589963  0.87447068  0.13733993  1
  Fe  Fe47  1  0.62046555  0.12288088  0.38520522  1
  Fe  Fe48  1  0.87574713  0.37552630  0.14345808  1
  Fe  Fe49  1  0.12782339  0.62905187  0.88460143  1
  Fe  Fe50  1  0.62444305  0.37430048  0.39266903  1
  Fe  Fe51  1  0.62653169  0.37429929  0.63064193  1
  Fe  Fe52  1  0.87567671  0.87599719  0.88712637  1
  Fe  Fe53  1  0.12151103  0.12532808  0.63248836  1
  Fe  Fe54  1  0.62497903  0.37610338  0.88738721  1
  Fe  Fe55  1  0.87660825  0.62487235  0.63104534  1
  Fe  Fe56  1  0.87335422  0.37263293  0.38101495  1
  Fe  Fe57  1  0.37470368  0.62378772  0.63127106  1
  Fe  Fe58  1  0.62477132  0.87387021  0.88040797  1
  Fe  Fe59  1  0.87191840  0.87735561  0.38379111  1
  Fe  Fe60  1  0.62367546  0.12453994  0.88302761  1
  Fe  Fe61  1  0.12717778  0.37457379  0.14139186  1
  Fe  Fe62  1  0.37185003  0.12558070  0.63136384  1
  Fe  Fe63  1  0.12538844  0.87352599  0.38552772  1
  Pb  Pb64  1  -0.00545991  -0.00139153  0.00407147  1
  Pb  Pb65  1  -0.00328469  -0.00749479  0.25433246  1
  Pb  Pb66  1  0.00144486  0.00121942  0.49531686  1
  Pb  Pb67  1  -0.00839148  -0.00504891  0.74997154  1
  Pb  Pb68  1  -0.00026002  0.26405113  0.00702150  1
  Pb  Pb69  1  0.00004054  0.25574569  0.25237441  1
  Pb  Pb70  1  0.00717812  0.25267461  0.49597971  1
  Pb  Pb71  1  0.00079887  0.25801172  0.74910934  1
  Pb  Pb72  1  0.00422682  0.49439344  0.00219851  1
  Pb  Pb73  1  0.00298326  0.48935450  0.25598886  1
  Pb  Pb74  1  0.00460927  0.49466245  0.49284402  1
  Pb  Pb75  1  0.00224197  0.48985189  0.75276800  1
  Pb  Pb76  1  -0.00515942  0.75515922  0.00420041  1
  Pb  Pb77  1  0.00788829  0.75039933  0.25681966  1
  Pb  Pb78  1  -0.00182084  0.75042045  0.49303119  1
  Pb  Pb79  1  0.00022002  0.74785391  0.74918831  1
  Pb  Pb80  1  0.25571617  -0.00189011  0.00249120  1
  Pb  Pb81  1  0.24878777  -0.00256802  0.25310344  1
  Pb  Pb82  1  0.25348422  0.00578316  0.50446068  1
  Pb  Pb83  1  0.25170264  0.00369546  0.74198811  1
  Pb  Pb84  1  0.24970006  0.26327385  0.00404087  1
  Pb  Pb85  1  0.24787805  0.25507746  0.25183900  1
  Pb  Pb86  1  0.24874557  0.24068152  0.50330596  1
  Pb  Pb87  1  0.24501661  0.25535770  0.74398364  1
  Pb  Pb88  1  0.24776958  0.49477056  -0.00040091  1
  Pb  Pb89  1  0.24407804  0.49732093  0.25370942  1
  Pb  Pb90  1  0.25287452  0.50296702  0.49736504  1
  Pb  Pb91  1  0.24872932  0.48926745  0.75154956  1
  Pb  Pb92  1  0.25628960  0.75349112  0.00204366  1
  Pb  Pb93  1  0.24509076  0.74925809  0.25659425  1
  Pb  Pb94  1  0.25744837  0.74909758  0.50095044  1
  Pb  Pb95  1  0.24505258  0.74287080  0.74585856  1
  Pb  Pb96  1  0.50549918  0.00411414  -0.00319351  1
  Pb  Pb97  1  0.50316004  0.00626350  0.25191396  1
  Pb  Pb98  1  0.50270745  -0.00416565  0.50857062  1
  Pb  Pb99  1  0.50270183  0.00052457  0.74050534  1
  Pb  Pb100  1  0.50886850  0.25322159  -0.00149174  1
  Pb  Pb101  1  0.51263926  0.25045872  0.25089882  1
  Pb  Pb102  1  0.50863903  0.24651269  0.50363260  1
  Pb  Pb103  1  0.50410808  0.25063619  0.74523835  1
  Pb  Pb104  1  0.49800657  0.49106195  -0.00212646  1
  Pb  Pb105  1  0.50543201  0.49071251  0.24998028  1
  Pb  Pb106  1  0.50311459  0.50382776  0.50523592  1
  Pb  Pb107  1  0.50228299  0.49464049  0.74356576  1
  Pb  Pb108  1  0.49558721  0.75306820  -0.00372984  1
  Pb  Pb109  1  0.49931190  0.74736140  0.25163599  1
  Pb  Pb110  1  0.49926620  0.75567312  0.50962216  1
  Pb  Pb111  1  0.50206184  0.75034999  0.73727954  1
  Pb  Pb112  1  0.74473074  0.00052087  -0.00343752  1
  Pb  Pb113  1  0.75153071  -0.00065933  0.25022287  1
  Pb  Pb114  1  0.73616144  0.00090666  0.50703913  1
  Pb  Pb115  1  0.74043638  -0.00029786  0.75205023  1
  Pb  Pb116  1  0.74212971  0.25270715  -0.00002948  1
  Pb  Pb117  1  0.74253135  0.25901467  0.24962943  1
  Pb  Pb118  1  0.73970450  0.25271719  0.49801896  1
  Pb  Pb119  1  0.73992057  0.25461651  0.75331036  1
  Pb  Pb120  1  0.75414822  0.48694651  0.00368578  1
  Pb  Pb121  1  0.74730743  0.49196283  0.25135163  1
  Pb  Pb122  1  0.75111372  0.50397466  0.50004659  1
  Pb  Pb123  1  0.74892609  0.49488486  0.74487105  1
  Pb  Pb124  1  0.75485894  0.75878290  -0.00045592  1
  Pb  Pb125  1  0.75413078  0.75090548  0.25298357  1
  Pb  Pb126  1  0.75017522  0.74275000  0.50582515  1
  Pb  Pb127  1  0.74915680  0.75273926  0.74390796  1
  O  O128  1  0.12627334  -0.00372109  0.16742088  1
  O  O129  1  0.12953487  0.00331496  0.41292679  1
  O  O130  1  0.12063570  -0.00762680  0.65963413  1
  O  O131  1  0.12527283  -0.00518644  0.92011756  1
  O  O132  1  0.12695420  0.24359767  0.16752328  1
  O  O133  1  0.12905231  0.24250594  0.40964124  1
  O  O134  1  0.12143564  0.25106838  0.66042272  1
  O  O135  1  0.12447756  0.24028246  0.91234320  1
  O  O136  1  0.12694325  0.50510794  0.16655241  1
  O  O137  1  0.12553448  0.50447600  0.41124081  1
  O  O138  1  0.11981244  0.50425318  0.65490735  1
  O  O139  1  0.12610814  0.50558067  0.91575971  1
  O  O140  1  0.12612594  0.75302229  0.16817005  1
  O  O141  1  0.12536948  0.74943708  0.41579721  1
  O  O142  1  0.12051302  0.75452959  0.66149558  1
  O  O143  1  0.12678227  0.75821073  0.91777672  1
  O  O144  1  0.37222840  0.00245904  0.16724685  1
  O  O145  1  0.37599967  -0.00498338  0.41441497  1
  O  O146  1  0.36994287  -0.00149737  0.66070709  1
  O  O147  1  0.37048217  0.00175475  0.91526293  1
  O  O148  1  0.37065303  0.24053947  0.16221510  1
  O  O149  1  0.37385949  0.25337971  0.41152886  1
  O  O150  1  0.37019355  0.25791261  0.65986307  1
  O  O151  1  0.36753734  0.23998463  0.90840899  1
  O  O152  1  0.37526202  0.51007694  0.16562275  1
  O  O153  1  0.37870693  0.49879827  0.41579250  1
  O  O154  1  0.37149214  0.49580398  0.66175963  1
  O  O155  1  0.37290019  0.50772663  0.90977399  1
  O  O156  1  0.37690374  0.74583831  0.16929518  1
  O  O157  1  0.38025322  0.75257813  0.41684736  1
  O  O158  1  0.37042888  0.74800042  0.66166336  1
  O  O159  1  0.37431677  0.75083181  0.91480944  1
  O  O160  1  0.62300595  -0.00726752  0.16221142  1
  O  O161  1  0.62215986  -0.00484854  0.41551446  1
  O  O162  1  0.62948632  0.00217676  0.66363119  1
  O  O163  1  0.62450493  -0.00016630  0.91338154  1
  O  O164  1  0.62325629  0.24789011  0.16220215  1
  O  O165  1  0.62141744  0.24672505  0.41470774  1
  O  O166  1  0.62822728  0.25253269  0.66490625  1
  O  O167  1  0.62509272  0.24754943  0.91487638  1
  O  O168  1  0.62413258  0.50606357  0.16410509  1
  O  O169  1  0.62324175  0.50672378  0.41276982  1
  O  O170  1  0.62919379  0.49646449  0.66212693  1
  O  O171  1  0.62261352  0.51125732  0.91531730  1
  O  O172  1  0.62470181  0.75210395  0.16718437  1
  O  O173  1  0.62399055  0.75204727  0.41815613  1
  O  O174  1  0.63050866  0.74968640  0.65922808  1
  O  O175  1  0.62150939  0.74305892  0.91319824  1
  O  O176  1  0.87728089  0.00332681  0.16641834  1
  O  O177  1  0.87754956  0.00896400  0.41313432  1
  O  O178  1  0.88016295  -0.00127038  0.66057941  1
  O  O179  1  0.87929315  0.00551788  0.91792508  1
  O  O180  1  0.87818079  0.24034048  0.16369381  1
  O  O181  1  0.87986430  0.23878434  0.40767336  1
  O  O182  1  0.88009137  0.24874780  0.65819879  1
  O  O183  1  0.88206901  0.24070100  0.91371594  1
  O  O184  1  0.87485188  0.51002339  0.16758340  1
  O  O185  1  0.87099994  0.50768063  0.40783513  1
  O  O186  1  0.87812758  0.49322175  0.65586739  1
  O  O187  1  0.87498527  0.51056911  0.91437154  1
  O  O188  1  0.87281770  0.74421879  0.16969900  1
  O  O189  1  0.86937218  0.74669079  0.41142804  1
  O  O190  1  0.87851251  0.75829235  0.65815840  1
  O  O191  1  0.87450183  0.74413301  0.91674996  1
  O  O192  1  0.00063198  0.12072949  0.16748974  1
  O  O193  1  0.00596730  0.12229100  0.40653948  1
  O  O194  1  -0.00659572  0.12290073  0.66414646  1
  O  O195  1  0.00507421  0.11809327  0.91681763  1
  O  O196  1  0.00189243  0.37508674  0.16885910  1
  O  O197  1  -0.00205331  0.37417751  0.41001170  1
  O  O198  1  -0.00500189  0.37426231  0.66228930  1
  O  O199  1  0.00058868  0.37598643  0.92021131  1
  O  O200  1  -0.00367414  0.62906856  0.16473536  1
  O  O201  1  -0.00677960  0.62854936  0.40390831  1
  O  O202  1  0.00373885  0.62933757  0.66301953  1
  O  O203  1  -0.00418804  0.62989536  0.91192454  1
  O  O204  1  0.00614342  0.87374733  0.16665893  1
  O  O205  1  -0.00265312  0.87697281  0.41151588  1
  O  O206  1  0.00080247  0.87515229  0.66299775  1
  O  O207  1  0.00546392  0.87456065  0.91740138  1
  O  O208  1  0.25006741  0.12009281  0.16837891  1
  O  O209  1  0.25026265  0.12300187  0.41529608  1
  O  O210  1  0.24605765  0.12518891  0.66458714  1
  O  O211  1  0.24557040  0.11739625  0.91460482  1
  O  O212  1  0.25252715  0.37595388  0.17052258  1
  O  O213  1  0.25950878  0.37794299  0.41329099  1
  O  O214  1  0.25033700  0.37817217  0.65856504  1
  O  O215  1  0.24894201  0.37448303  0.91674317  1
  O  O216  1  0.25499137  0.62906892  0.16540056  1
  O  O217  1  0.25634428  0.62694270  0.41168125  1
  O  O218  1  0.23906535  0.62738174  0.65980890  1
  O  O219  1  0.25819380  0.63119128  0.91382424  1
  O  O220  1  0.24651266  0.87339604  0.16721574  1
  O  O221  1  0.25742812  0.87247882  0.41138114  1
  O  O222  1  0.23955490  0.87315650  0.65783655  1
  O  O223  1  0.24768526  0.87577732  0.91762460  1
  O  O224  1  0.49118448  0.12048857  0.16164846  1
  O  O225  1  0.49444156  0.12227819  0.41631761  1
  O  O226  1  0.49693467  0.12833822  0.65925769  1
  O  O227  1  0.48912138  0.12227247  0.90772226  1
  O  O228  1  0.49765409  0.37694313  0.16446436  1
  O  O229  1  0.49192299  0.37578336  0.41780865  1
  O  O230  1  0.49371522  0.37575719  0.65730760  1
  O  O231  1  0.49753963  0.37578138  0.91308472  1
  O  O232  1  0.49920512  0.62827997  0.16521634  1
  O  O233  1  0.50406128  0.62773287  0.42089402  1
  O  O234  1  0.50106967  0.62247223  0.65797692  1
  O  O235  1  0.49385557  0.62787314  0.91227711  1
  O  O236  1  0.50573425  0.87264462  0.16542965  1
  O  O237  1  0.50174685  0.87419224  0.41959185  1
  O  O238  1  0.49851516  0.87475588  0.65955831  1
  O  O239  1  0.49646372  0.87490214  0.91100735  1
  O  O240  1  0.75682336  0.12099405  0.15934894  1
  O  O241  1  0.75227891  0.12316325  0.40387966  1
  O  O242  1  0.76340435  0.12495904  0.66426401  1
  O  O243  1  0.75927953  0.12386784  0.90981480  1
  O  O244  1  0.74871275  0.37611187  0.16465536  1
  O  O245  1  0.75178783  0.37350475  0.41206174  1
  O  O246  1  0.76027430  0.37153176  0.65689868  1
  O  O247  1  0.75248477  0.37625168  0.91620999  1
  O  O248  1  0.75025627  0.62713983  0.16614327  1
  O  O249  1  0.74658051  0.62797312  0.41349505  1
  O  O250  1  0.75550674  0.62443943  0.66590910  1
  O  O251  1  0.74891136  0.62798191  0.90911510  1
  O  O252  1  0.74192739  0.87388326  0.16446388  1
  O  O253  1  0.74418186  0.87672165  0.41426511  1
  O  O254  1  0.75974112  0.87853624  0.65791753  1
  O  O255  1  0.74951104  0.87351806  0.91500533  1
  O  O256  1  0.12458320  0.12420841  0.04937612  1
  O  O257  1  0.12946178  0.12068805  0.29794593  1
  O  O258  1  0.12636406  0.12481475  0.53241635  1
  O  O259  1  0.12256783  0.12150053  0.80109640  1
  O  O260  1  0.12666428  0.37232973  0.04004236  1
  O  O261  1  0.12902678  0.37650362  0.28819153  1
  O  O262  1  0.11560092  0.37372843  0.52785923  1
  O  O263  1  0.12090549  0.38024697  0.78627679  1
  O  O264  1  0.12599129  0.62981727  0.05386398  1
  O  O265  1  0.12824463  0.63395492  0.28036821  1
  O  O266  1  0.12034451  0.62690860  0.54640880  1
  O  O267  1  0.12619450  0.63299377  0.78544753  1
  O  O268  1  0.12643332  0.87406226  0.05430743  1
  O  O269  1  0.12689959  0.87148728  0.28543328  1
  O  O270  1  0.12045581  0.87433387  0.54350001  1
  O  O271  1  0.12568496  0.87653689  0.80174832  1
  O  O272  1  0.36944072  0.12132375  0.04870623  1
  O  O273  1  0.37459968  0.12273584  0.30199600  1
  O  O274  1  0.36256404  0.12558783  0.53068086  1
  O  O275  1  0.36702597  0.12164420  0.79566786  1
  O  O276  1  0.36796162  0.37627352  0.03580482  1
  O  O277  1  0.37867757  0.37563730  0.29845833  1
  O  O278  1  0.37264618  0.37783349  0.54558258  1
  O  O279  1  0.36679215  0.37928073  0.78435608  1
  O  O280  1  0.37574635  0.62741071  0.05051823  1
  O  O281  1  0.38367971  0.62571162  0.30287057  1
  O  O282  1  0.37145208  0.62375362  0.53087314  1
  O  O283  1  0.37383802  0.62522661  0.79551574  1
  O  O284  1  0.37245995  0.87157563  0.03822572  1
  O  O285  1  0.38142383  0.87326564  0.30414335  1
  O  O286  1  0.37561736  0.87082679  0.53074493  1
  O  O287  1  0.37038215  0.87536255  0.79730512  1
  O  O288  1  0.62099076  0.12192343  0.03569883  1
  O  O289  1  0.61502162  0.12144338  0.28425796  1
  O  O290  1  0.63128301  0.12500778  0.53620488  1
  O  O291  1  0.62995194  0.12807934  0.78268755  1
  O  O292  1  0.62432604  0.37462068  0.03243215  1
  O  O293  1  0.62028034  0.37262383  0.29060558  1
  O  O294  1  0.62478387  0.36865071  0.52961714  1
  O  O295  1  0.62946798  0.37438669  0.78696207  1
  O  O296  1  0.62615429  0.62745762  0.04671428  1
  O  O297  1  0.62130078  0.62987923  0.30548925  1
  O  O298  1  0.63541850  0.62131616  0.53053020  1
  O  O299  1  0.62887786  0.62442195  0.79731351  1
  O  O300  1  0.62314173  0.87194111  0.04777862  1
  O  O301  1  0.62216701  0.87358401  0.30457004  1
  O  O302  1  0.62461942  0.88517947  0.53530121  1
  O  O303  1  0.63065982  0.87589581  0.78077315  1
  O  O304  1  0.87990040  0.12195068  0.04878904  1
  O  O305  1  0.87178836  0.12018878  0.29298990  1
  O  O306  1  0.87556714  0.12669828  0.54571950  1
  O  O307  1  0.88069248  0.12198035  0.79847498  1
  O  O308  1  0.87932016  0.37937933  0.04196685  1
  O  O309  1  0.87477090  0.37528767  0.27964306  1
  O  O310  1  0.88011016  0.37290297  0.54298973  1
  O  O311  1  0.88488972  0.37636277  0.78817732  1
  O  O312  1  0.87558764  0.62643558  0.05126421  1
  O  O313  1  0.86813191  0.62841790  0.29720031  1
  O  O314  1  0.87056357  0.62660288  0.53137731  1
  O  O315  1  0.88002978  0.62698742  0.79685718  1
  O  O316  1  0.87776389  0.86685749  0.04282690  1
  O  O317  1  0.86860084  0.88065191  0.28304851  1
  O  O318  1  0.87851197  0.87958978  0.54545810  1
  O  O319  1  0.88250263  0.87805642  0.78836565  1
