# generated using pymatgen
data_VFe(PbO3)2
_symmetry_space_group_name_H-M   'P 1'
_cell_length_a   15.39456851
_cell_length_b   15.40843359
_cell_length_c   18.49555644
_cell_angle_alpha   90.00290199
_cell_angle_beta   89.99751079
_cell_angle_gamma   89.99534332
_symmetry_Int_Tables_number   1
_chemical_formula_structural   VFe(PbO3)2
_chemical_formula_sum   'V32 Fe32 Pb64 O192'
_cell_volume   4387.26038412
_cell_formula_units_Z   32
loop_
 _symmetry_equiv_pos_site_id
 _symmetry_equiv_pos_as_xyz
  1  'x, y, z'
loop_
 _atom_site_type_symbol
 _atom_site_label
 _atom_site_symmetry_multiplicity
 _atom_site_fract_x
 _atom_site_fract_y
 _atom_site_fract_z
 _atom_site_occupancy
  V  V0  1  0.37267807  0.37687916  0.13679137  1
  V  V1  1  0.87800170  0.62583238  0.13484103  1
  V  V2  1  0.62512835  0.36964533  0.64465470  1
  V  V3  1  0.37478550  0.12390903  0.38813231  1
  V  V4  1  0.37740116  0.37273214  0.63830574  1
  V  V5  1  0.12304637  0.12507542  0.88801846  1
  V  V6  1  0.12438171  0.62661968  0.40074818  1
  V  V7  1  0.37378325  0.37576775  0.89069826  1
  V  V8  1  0.87596715  0.12284834  0.38602281  1
  V  V9  1  0.37729745  0.12579726  0.64448612  1
  V  V10  1  0.87197603  0.12803702  0.89928131  1
  V  V11  1  0.86898997  0.63045975  0.65572269  1
  V  V12  1  0.61773594  0.12719677  0.90144829  1
  V  V13  1  0.62579566  0.12435337  0.64716867  1
  V  V14  1  0.12527934  0.86891071  0.13289537  1
  V  V15  1  0.37239263  0.37372860  0.39169239  1
  V  V16  1  0.12389328  0.37515939  0.39700784  1
  V  V17  1  0.87829964  0.87415678  0.39079393  1
  V  V18  1  0.62456712  0.12364423  0.38342555  1
  V  V19  1  0.12574829  0.38126258  0.13875028  1
  V  V20  1  0.87655774  0.37549149  0.38775212  1
  V  V21  1  0.12625985  0.37483886  0.88678220  1
  V  V22  1  0.87303062  0.37657328  0.89509957  1
  V  V23  1  0.62487441  0.63670753  0.63769807  1
  V  V24  1  0.12455642  0.87476679  0.39513183  1
  V  V25  1  0.87236179  0.37125694  0.64191341  1
  V  V26  1  0.37502243  0.87622990  0.39237400  1
  V  V27  1  0.86917882  0.12663564  0.64365185  1
  V  V28  1  0.86976369  0.87945772  0.64624024  1
  V  V29  1  0.37630408  0.62315685  0.88601904  1
  V  V30  1  0.62671285  0.62288707  0.88943372  1
  V  V31  1  0.62427588  0.37406798  0.38451840  1
  Fe  Fe32  1  0.12575059  0.62047199  0.87414138  1
  Fe  Fe33  1  0.62603754  0.37840020  0.12751543  1
  Fe  Fe34  1  0.87978591  0.37846767  0.12830907  1
  Fe  Fe35  1  0.62440181  0.62351180  0.13540114  1
  Fe  Fe36  1  0.36980597  0.87375758  0.12778498  1
  Fe  Fe37  1  0.62101565  0.37603691  0.89922126  1
  Fe  Fe38  1  0.12607357  0.12299965  0.38931816  1
  Fe  Fe39  1  0.37004715  0.62524264  0.13475580  1
  Fe  Fe40  1  0.62493499  0.87291201  0.12486165  1
  Fe  Fe41  1  0.62664024  0.87700821  0.38223047  1
  Fe  Fe42  1  0.38323114  0.62300621  0.63205634  1
  Fe  Fe43  1  0.62422482  0.87607413  0.89945536  1
  Fe  Fe44  1  0.37068666  0.12849091  0.89269846  1
  Fe  Fe45  1  0.87415856  0.62129537  0.87357032  1
  Fe  Fe46  1  0.12575240  0.62543869  0.13188332  1
  Fe  Fe47  1  0.12524073  0.87837886  0.64622236  1
  Fe  Fe48  1  0.12592797  0.62154479  0.64610844  1
  Fe  Fe49  1  0.87848361  0.12540419  0.12542501  1
  Fe  Fe50  1  0.12583931  0.12462320  0.13178209  1
  Fe  Fe51  1  0.62716845  0.62618743  0.38158138  1
  Fe  Fe52  1  0.37351591  0.62549828  0.39600662  1
  Fe  Fe53  1  0.37307788  0.87472073  0.88609772  1
  Fe  Fe54  1  0.87978698  0.87304613  0.12383107  1
  Fe  Fe55  1  0.87779326  0.87506476  0.89572312  1
  Fe  Fe56  1  0.12406085  0.36915129  0.63308889  1
  Fe  Fe57  1  0.37136529  0.12458221  0.12675306  1
  Fe  Fe58  1  0.87886450  0.62618120  0.38928640  1
  Fe  Fe59  1  0.38140083  0.87575113  0.63933089  1
  Fe  Fe60  1  0.62721828  0.88210205  0.63706550  1
  Fe  Fe61  1  0.12024735  0.12692540  0.63585702  1
  Fe  Fe62  1  0.62375854  0.12701989  0.12358074  1
  Fe  Fe63  1  0.12580907  0.87281048  0.87424283  1
  Pb  Pb64  1  0.00207334  0.00339667  -0.00199832  1
  Pb  Pb65  1  0.00177794  0.00267495  0.23965794  1
  Pb  Pb66  1  0.00857077  0.00050066  0.50462896  1
  Pb  Pb67  1  -0.00034074  -0.00475003  0.75367545  1
  Pb  Pb68  1  -0.00130803  0.25022057  0.00481885  1
  Pb  Pb69  1  0.00197804  0.24563252  0.24348170  1
  Pb  Pb70  1  0.00504980  0.24723984  0.50092953  1
  Pb  Pb71  1  0.00065487  0.24769851  0.75122288  1
  Pb  Pb72  1  -0.00119103  0.50230856  -0.00607856  1
  Pb  Pb73  1  -0.00546043  0.50594858  0.25089032  1
  Pb  Pb74  1  0.00614031  0.50254475  0.50987975  1
  Pb  Pb75  1  0.00142216  0.50376169  0.74933489  1
  Pb  Pb76  1  0.00347506  0.74509501  -0.01890800  1
  Pb  Pb77  1  -0.00589684  0.74621370  0.24747711  1
  Pb  Pb78  1  0.01142170  0.75236418  0.51502782  1
  Pb  Pb79  1  0.00905160  0.75038043  0.75162363  1
  Pb  Pb80  1  0.25608868  -0.00535502  -0.00603376  1
  Pb  Pb81  1  0.24571498  0.00412555  0.24227381  1
  Pb  Pb82  1  0.25092021  -0.00658786  0.50726107  1
  Pb  Pb83  1  0.25130668  -0.00625047  0.74956858  1
  Pb  Pb84  1  0.24458785  0.24330806  0.00383144  1
  Pb  Pb85  1  0.24228012  0.24421300  0.24879891  1
  Pb  Pb86  1  0.24210038  0.24693131  0.50303384  1
  Pb  Pb87  1  0.25581613  0.24288129  0.75278651  1
  Pb  Pb88  1  0.24862427  0.51012540  -0.00003765  1
  Pb  Pb89  1  0.25460732  0.50723342  0.25446917  1
  Pb  Pb90  1  0.24398893  0.51120140  0.51270398  1
  Pb  Pb91  1  0.24645823  0.50376098  0.74458772  1
  Pb  Pb92  1  0.24596421  0.74578556  -0.01032000  1
  Pb  Pb93  1  0.25790480  0.74418400  0.24941954  1
  Pb  Pb94  1  0.25186400  0.75906694  0.51303889  1
  Pb  Pb95  1  0.25463107  0.75244632  0.74075683  1
  Pb  Pb96  1  0.49102304  -0.01116652  0.00133983  1
  Pb  Pb97  1  0.50182670  -0.00460994  0.23192455  1
  Pb  Pb98  1  0.50132041  -0.00948709  0.50266613  1
  Pb  Pb99  1  0.49796850  -0.00749696  0.76250185  1
  Pb  Pb100  1  0.49839352  0.24797967  0.00504610  1
  Pb  Pb101  1  0.50045682  0.24881252  0.23671823  1
  Pb  Pb102  1  0.49982564  0.24759040  0.49632415  1
  Pb  Pb103  1  0.49749141  0.24432687  0.76226534  1
  Pb  Pb104  1  0.49834517  0.51189560  0.00740056  1
  Pb  Pb105  1  0.50267935  0.51392529  0.24916847  1
  Pb  Pb106  1  0.49979741  0.50627378  0.49702075  1
  Pb  Pb107  1  0.50954598  0.49066510  0.75456225  1
  Pb  Pb108  1  0.49740765  0.75325324  0.00074105  1
  Pb  Pb109  1  0.50255389  0.75165132  0.23972692  1
  Pb  Pb110  1  0.50004735  0.75061418  0.49617035  1
  Pb  Pb111  1  0.49746472  0.76373406  0.75301275  1
  Pb  Pb112  1  0.75200021  -0.00749064  0.00523676  1
  Pb  Pb113  1  0.74781201  -0.00324172  0.23066697  1
  Pb  Pb114  1  0.74613782  -0.00378017  0.49798316  1
  Pb  Pb115  1  0.74788152  -0.00642710  0.76667721  1
  Pb  Pb116  1  0.74487079  0.25270846  0.00722791  1
  Pb  Pb117  1  0.75313102  0.25124862  0.23156481  1
  Pb  Pb118  1  0.75180145  0.24934331  0.49314824  1
  Pb  Pb119  1  0.74203601  0.25246406  0.76385950  1
  Pb  Pb120  1  0.73955373  0.50268999  0.00450598  1
  Pb  Pb121  1  0.74799505  0.50506925  0.24401053  1
  Pb  Pb122  1  0.75116532  0.50386550  0.49647051  1
  Pb  Pb123  1  0.74684103  0.49640401  0.75599985  1
  Pb  Pb124  1  0.75271516  0.75379658  -0.00292239  1
  Pb  Pb125  1  0.73941292  0.75643459  0.24384775  1
  Pb  Pb126  1  0.74483183  0.75120317  0.49594665  1
  Pb  Pb127  1  0.75614633  0.77092738  0.77113493  1
  O  O128  1  0.12428985  -0.00759594  0.15770913  1
  O  O129  1  0.12450638  -0.00374981  0.41882199  1
  O  O130  1  0.12329577  0.00632840  0.66730442  1
  O  O131  1  0.12241442  0.00937422  0.90154381  1
  O  O132  1  0.12640475  0.25913376  0.16265187  1
  O  O133  1  0.12539897  0.25128785  0.41653568  1
  O  O134  1  0.12400786  0.24886980  0.66877444  1
  O  O135  1  0.12503151  0.25698919  0.91418960  1
  O  O136  1  0.12529290  0.49654351  0.16505509  1
  O  O137  1  0.12391292  0.50341081  0.42182015  1
  O  O138  1  0.12506842  0.49029751  0.66390499  1
  O  O139  1  0.12657646  0.49277873  0.90742446  1
  O  O140  1  0.12449625  0.75370027  0.16084647  1
  O  O141  1  0.12472759  0.74877599  0.42608249  1
  O  O142  1  0.12237640  0.74940078  0.66232820  1
  O  O143  1  0.12813970  0.74544826  0.89802786  1
  O  O144  1  0.37064822  -0.00057793  0.15679516  1
  O  O145  1  0.37316236  -0.00192077  0.41569829  1
  O  O146  1  0.38247041  0.01120826  0.66575777  1
  O  O147  1  0.37349629  0.00295183  0.91019350  1
  O  O148  1  0.36854368  0.25927275  0.16058745  1
  O  O149  1  0.37686693  0.25038846  0.41690813  1
  O  O150  1  0.38237500  0.24943215  0.67028505  1
  O  O151  1  0.36943924  0.26045513  0.91591301  1
  O  O152  1  0.36928376  0.49221761  0.16728486  1
  O  O153  1  0.37485961  0.48908851  0.41555277  1
  O  O154  1  0.38629794  0.48708422  0.65906534  1
  O  O155  1  0.37322332  0.49715181  0.91374216  1
  O  O156  1  0.36998558  0.75099604  0.16310299  1
  O  O157  1  0.37236483  0.75846907  0.41673253  1
  O  O158  1  0.38425049  0.74697385  0.66032167  1
  O  O159  1  0.37484536  0.73956772  0.90484692  1
  O  O160  1  0.62452603  0.00076854  0.15031615  1
  O  O161  1  0.62596133  0.00444695  0.41231827  1
  O  O162  1  0.62734954  0.01024981  0.67009520  1
  O  O163  1  0.62745678  0.01059739  0.91661918  1
  O  O164  1  0.62252789  0.25399906  0.15650588  1
  O  O165  1  0.62505639  0.24817928  0.41421676  1
  O  O166  1  0.62638533  0.24674789  0.67582013  1
  O  O167  1  0.62848337  0.24816849  0.91823059  1
  O  O168  1  0.62446780  0.49831558  0.16487922  1
  O  O169  1  0.62563368  0.49318298  0.41093473  1
  O  O170  1  0.62529736  0.48348765  0.66500572  1
  O  O171  1  0.62054641  0.50578675  0.91641034  1
  O  O172  1  0.62669547  0.74879301  0.15780678  1
  O  O173  1  0.62671022  0.75314233  0.41320346  1
  O  O174  1  0.62241148  0.74961519  0.64655724  1
  O  O175  1  0.62224062  0.73845909  0.91282152  1
  O  O176  1  0.88012346  -0.00154465  0.15455089  1
  O  O177  1  0.87781771  -0.00329660  0.41518247  1
  O  O178  1  0.86844161  -0.00014910  0.66907502  1
  O  O179  1  0.88023055  0.01061148  0.91365965  1
  O  O180  1  0.88088018  0.25222981  0.15757624  1
  O  O181  1  0.87416919  0.24886833  0.41343848  1
  O  O182  1  0.86888099  0.25139054  0.67221843  1
  O  O183  1  0.88094352  0.25419026  0.91807224  1
  O  O184  1  0.88157619  0.50620289  0.16240461  1
  O  O185  1  0.87710268  0.49515736  0.41831096  1
  O  O186  1  0.86494692  0.48533001  0.66645379  1
  O  O187  1  0.87808621  0.49490555  0.90998391  1
  O  O188  1  0.88039252  0.74409613  0.15715917  1
  O  O189  1  0.87800719  0.75840559  0.41877443  1
  O  O190  1  0.86835452  0.75502927  0.66902559  1
  O  O191  1  0.87139516  0.74355285  0.90430457  1
  O  O192  1  0.00293880  0.12626688  0.16277879  1
  O  O193  1  -0.00544983  0.12435363  0.41407757  1
  O  O194  1  -0.01064328  0.12664658  0.66749257  1
  O  O195  1  0.00526468  0.13324949  0.91306955  1
  O  O196  1  0.00839164  0.37747687  0.16373726  1
  O  O197  1  -0.00068255  0.37404852  0.41851056  1
  O  O198  1  -0.01046451  0.36992338  0.65972264  1
  O  O199  1  0.00595611  0.37561601  0.91147717  1
  O  O200  1  -0.00104337  0.62472841  0.16333299  1
  O  O201  1  0.00485157  0.62649575  0.42601091  1
  O  O202  1  -0.00817501  0.62073634  0.66450627  1
  O  O203  1  -0.00051181  0.61984860  0.89803329  1
  O  O204  1  0.00681132  0.87248409  0.15900810  1
  O  O205  1  -0.00159063  0.87508964  0.42185266  1
  O  O206  1  -0.01266166  0.87701931  0.66625637  1
  O  O207  1  0.00489068  0.87626054  0.90777950  1
  O  O208  1  0.24892533  0.12754200  0.16387260  1
  O  O209  1  0.25682517  0.12482605  0.41649518  1
  O  O210  1  0.25981254  0.12952151  0.66039801  1
  O  O211  1  0.23984294  0.13306709  0.91055374  1
  O  O212  1  0.24607075  0.37720816  0.16647315  1
  O  O213  1  0.25461798  0.37128119  0.41704856  1
  O  O214  1  0.26204466  0.36848754  0.65731519  1
  O  O215  1  0.24766631  0.37695036  0.91248528  1
  O  O216  1  0.24645387  0.62267186  0.16959419  1
  O  O217  1  0.24265758  0.62534732  0.42336152  1
  O  O218  1  0.25855589  0.61789515  0.65959508  1
  O  O219  1  0.25634722  0.61790679  0.90331578  1
  O  O220  1  0.24083789  0.87391613  0.16113524  1
  O  O221  1  0.25057859  0.87588964  0.42219553  1
  O  O222  1  0.25534449  0.87869448  0.66249786  1
  O  O223  1  0.24699865  0.87663370  0.90669461  1
  O  O224  1  0.49651702  0.12937410  0.15496914  1
  O  O225  1  0.49957153  0.12483333  0.41408533  1
  O  O226  1  0.50618014  0.12968961  0.67127604  1
  O  O227  1  0.50139797  0.13333229  0.91236994  1
  O  O228  1  0.49019090  0.37615475  0.15494656  1
  O  O229  1  0.49872008  0.37065614  0.41412663  1
  O  O230  1  0.50391267  0.36475464  0.66760554  1
  O  O231  1  0.48918643  0.37523459  0.91563484  1
  O  O232  1  0.49585535  0.62264238  0.16141101  1
  O  O233  1  0.50152545  0.62396046  0.41413981  1
  O  O234  1  0.51359227  0.61533170  0.66489751  1
  O  O235  1  0.49516227  0.62030220  0.91505096  1
  O  O236  1  0.49795697  0.87324294  0.15381840  1
  O  O237  1  0.49412577  0.87828492  0.40986490  1
  O  O238  1  0.50627151  0.88164525  0.67071969  1
  O  O239  1  0.49791553  0.87339882  0.91420241  1
  O  O240  1  0.75126247  0.12766155  0.15108021  1
  O  O241  1  0.75027429  0.12478286  0.41251493  1
  O  O242  1  0.74630505  0.12855044  0.67514880  1
  O  O243  1  0.75690737  0.13165445  0.91611895  1
  O  O244  1  0.75328436  0.37802282  0.15518095  1
  O  O245  1  0.74999621  0.37190008  0.41281843  1
  O  O246  1  0.74610973  0.36583704  0.67066212  1
  O  O247  1  0.75734195  0.37436632  0.91326532  1
  O  O248  1  0.76080765  0.62283637  0.15719940  1
  O  O249  1  0.75265322  0.62464712  0.41678190  1
  O  O250  1  0.73254877  0.61915713  0.67368479  1
  O  O251  1  0.74431723  0.61831785  0.90349038  1
  O  O252  1  0.75371752  0.87337955  0.15214298  1
  O  O253  1  0.75880697  0.87814833  0.41223654  1
  O  O254  1  0.75045526  0.87764353  0.67361684  1
  O  O255  1  0.75062698  0.87703491  0.91812515  1
  O  O256  1  0.12578184  0.12943110  0.03198330  1
  O  O257  1  0.12878126  0.12513315  0.28948950  1
  O  O258  1  0.11938409  0.12971462  0.53486606  1
  O  O259  1  0.12179054  0.13484179  0.79638705  1
  O  O260  1  0.12719723  0.38222956  0.04746876  1
  O  O261  1  0.12451382  0.37946721  0.30626603  1
  O  O262  1  0.12407656  0.36932331  0.53257289  1
  O  O263  1  0.12687560  0.37092253  0.79554372  1
  O  O264  1  0.13179657  0.62323904  0.03207648  1
  O  O265  1  0.12215528  0.62825357  0.30992588  1
  O  O266  1  0.12172577  0.61724541  0.54356198  1
  O  O267  1  0.12618338  0.61380223  0.77200065  1
  O  O268  1  0.12657663  0.86782183  0.04162359  1
  O  O269  1  0.12489097  0.86976483  0.30484726  1
  O  O270  1  0.12174273  0.87657736  0.54292020  1
  O  O271  1  0.12192810  0.87781080  0.77210620  1
  O  O272  1  0.36719384  0.13219627  0.02560713  1
  O  O273  1  0.37493036  0.12508345  0.29748439  1
  O  O274  1  0.38405330  0.12958326  0.55353751  1
  O  O275  1  0.37330969  0.13615494  0.79112986  1
  O  O276  1  0.36613054  0.38024936  0.04593752  1
  O  O277  1  0.37241207  0.37151254  0.30123098  1
  O  O278  1  0.38333608  0.36661423  0.54755463  1
  O  O279  1  0.37398567  0.37535079  0.79895451  1
  O  O280  1  0.36729458  0.61810042  0.03410989  1
  O  O281  1  0.36400114  0.62206790  0.29573865  1
  O  O282  1  0.38189679  0.61944269  0.53072827  1
  O  O283  1  0.38400009  0.61694984  0.79531149  1
  O  O284  1  0.37031156  0.87505620  0.02636335  1
  O  O285  1  0.36836716  0.87638109  0.30201324  1
  O  O286  1  0.37961470  0.88310777  0.53807551  1
  O  O287  1  0.38377980  0.87481137  0.78339707  1
  O  O288  1  0.62407255  0.13504583  0.02289972  1
  O  O289  1  0.62405108  0.12553730  0.29284513  1
  O  O290  1  0.62709210  0.12682896  0.55648787  1
  O  O291  1  0.62705914  0.12962785  0.80854997  1
  O  O292  1  0.62877060  0.37993272  0.02519587  1
  O  O293  1  0.62307877  0.37201341  0.29393799  1
  O  O294  1  0.62725644  0.36539933  0.55389787  1
  O  O295  1  0.62285586  0.37665249  0.79781793  1
  O  O296  1  0.62536815  0.61514469  0.03460372  1
  O  O297  1  0.62861516  0.62330915  0.28112965  1
  O  O298  1  0.62880664  0.61802242  0.54651471  1
  O  O299  1  0.61567505  0.62015382  0.79851845  1
  O  O300  1  0.62355345  0.87075582  0.02257010  1
  O  O301  1  0.63087716  0.87484024  0.28285755  1
  O  O302  1  0.62768326  0.88918109  0.53668199  1
  O  O303  1  0.63133303  0.87741530  0.79575360  1
  O  O304  1  0.88882810  0.12736441  0.02458202  1
  O  O305  1  0.87474297  0.12181057  0.29538686  1
  O  O306  1  0.86707619  0.12758267  0.55281344  1
  O  O307  1  0.87549348  0.13152773  0.80731992  1
  O  O308  1  0.88737456  0.38175114  0.02866598  1
  O  O309  1  0.87856287  0.37777100  0.29693326  1
  O  O310  1  0.86639226  0.36788625  0.55100914  1
  O  O311  1  0.87582362  0.37219173  0.80336833  1
  O  O312  1  0.88115713  0.62229607  0.04361807  1
  O  O313  1  0.88828018  0.62595848  0.29049250  1
  O  O314  1  0.85807010  0.62045511  0.56443223  1
  O  O315  1  0.86614812  0.61310684  0.77149334  1
  O  O316  1  0.87852838  0.87383215  0.02271325  1
  O  O317  1  0.88264799  0.87194593  0.30016658  1
  O  O318  1  0.86624500  0.87981585  0.55543758  1
  O  O319  1  0.86344341  0.88140103  0.79245133  1
