# generated using pymatgen
data_VFe(PbO3)2
_symmetry_space_group_name_H-M   'P 1'
_cell_length_a   15.37985341
_cell_length_b   15.38960894
_cell_length_c   18.52323808
_cell_angle_alpha   89.98806007
_cell_angle_beta   89.99529333
_cell_angle_gamma   90.00752393
_symmetry_Int_Tables_number   1
_chemical_formula_structural   VFe(PbO3)2
_chemical_formula_sum   'V32 Fe32 Pb64 O192'
_cell_volume   4384.26376941
_cell_formula_units_Z   32
loop_
 _symmetry_equiv_pos_site_id
 _symmetry_equiv_pos_as_xyz
  1  'x, y, z'
loop_
 _atom_site_type_symbol
 _atom_site_label
 _atom_site_symmetry_multiplicity
 _atom_site_fract_x
 _atom_site_fract_y
 _atom_site_fract_z
 _atom_site_occupancy
  V  V0  1  0.12277507  0.12618956  0.14285095  1
  V  V1  1  0.62588217  0.37227072  0.14426910  1
  V  V2  1  0.37751117  0.62725628  0.63830221  1
  V  V3  1  0.87419699  0.12421658  0.63982375  1
  V  V4  1  0.87818157  0.62861829  0.38890853  1
  V  V5  1  0.12748278  0.12610419  0.89068742  1
  V  V6  1  0.87645759  0.87474077  0.64277035  1
  V  V7  1  0.12475202  0.37746563  0.14235480  1
  V  V8  1  0.62167583  0.12983340  0.88781954  1
  V  V9  1  0.62017014  0.88274842  0.89288822  1
  V  V10  1  0.62603385  0.87187374  0.38943146  1
  V  V11  1  0.87425366  0.37253746  0.14414995  1
  V  V12  1  0.12256316  0.87571717  0.64191200  1
  V  V13  1  0.87218901  0.87275118  0.38637255  1
  V  V14  1  0.37577679  0.62553473  0.89159059  1
  V  V15  1  0.62455422  0.87314136  0.13453809  1
  V  V16  1  0.12505099  0.62797145  0.64198947  1
  V  V17  1  0.62758586  0.62023426  0.13693521  1
  V  V18  1  0.62545685  0.37482393  0.63841686  1
  V  V19  1  0.37614142  0.12367460  0.63321674  1
  V  V20  1  0.62643976  0.87446101  0.64145138  1
  V  V21  1  0.37266653  0.87181686  0.38657700  1
  V  V22  1  0.62835211  0.62422895  0.39271142  1
  V  V23  1  0.62488641  0.62632776  0.88751231  1
  V  V24  1  0.13300995  0.62914863  0.38376957  1
  V  V25  1  0.62572337  0.12301067  0.14126433  1
  V  V26  1  0.87259328  0.62521545  0.64939174  1
  V  V27  1  0.37429920  0.87733487  0.13710515  1
  V  V28  1  0.12931153  0.37216663  0.88753670  1
  V  V29  1  0.37439185  0.12358708  0.89158950  1
  V  V30  1  0.87699622  0.62103643  0.13312142  1
  V  V31  1  0.12908764  0.87568081  0.89554021  1
  Fe  Fe32  1  0.37599756  0.37960205  0.37873873  1
  Fe  Fe33  1  0.12485948  0.62170281  0.12659704  1
  Fe  Fe34  1  0.37511038  0.12585794  0.14965803  1
  Fe  Fe35  1  0.62461497  0.12248365  0.63365576  1
  Fe  Fe36  1  0.37568925  0.87611957  0.88859334  1
  Fe  Fe37  1  0.87423650  0.12461588  0.37653067  1
  Fe  Fe38  1  0.12265266  0.87631513  0.13515998  1
  Fe  Fe39  1  0.87374021  0.87669626  0.89446523  1
  Fe  Fe40  1  0.37607024  0.12293064  0.37752106  1
  Fe  Fe41  1  0.87712041  0.37642995  0.64416426  1
  Fe  Fe42  1  0.87362466  0.12734349  0.14417877  1
  Fe  Fe43  1  0.87094308  0.87531436  0.12956312  1
  Fe  Fe44  1  0.62780745  0.37669923  0.38151138  1
  Fe  Fe45  1  0.37961693  0.62868153  0.37853902  1
  Fe  Fe46  1  0.12690217  0.62381944  0.89332394  1
  Fe  Fe47  1  0.12379199  0.12139694  0.38509521  1
  Fe  Fe48  1  0.87311342  0.37242867  0.87713725  1
  Fe  Fe49  1  0.37257749  0.87325282  0.63668218  1
  Fe  Fe50  1  0.37569462  0.62579196  0.14013302  1
  Fe  Fe51  1  0.37430086  0.37650693  0.63394131  1
  Fe  Fe52  1  0.12114654  0.86843521  0.37805948  1
  Fe  Fe53  1  0.87568461  0.12439238  0.88636781  1
  Fe  Fe54  1  0.37508670  0.37373096  0.14703322  1
  Fe  Fe55  1  0.37558482  0.37314947  0.88664424  1
  Fe  Fe56  1  0.87368333  0.37836702  0.38449245  1
  Fe  Fe57  1  0.12557876  0.37385584  0.63163224  1
  Fe  Fe58  1  0.62677961  0.12357888  0.38757449  1
  Fe  Fe59  1  0.62480242  0.62602382  0.63756380  1
  Fe  Fe60  1  0.12503452  0.12034244  0.63197217  1
  Fe  Fe61  1  0.12248054  0.37930737  0.38702154  1
  Fe  Fe62  1  0.62028553  0.37395804  0.88495211  1
  Fe  Fe63  1  0.87612065  0.62446915  0.88240600  1
  Pb  Pb64  1  -0.00132543  -0.00402770  0.00563776  1
  Pb  Pb65  1  -0.00636068  0.00220803  0.24558840  1
  Pb  Pb66  1  0.00527818  0.00619925  0.49402976  1
  Pb  Pb67  1  -0.00961289  0.00006129  0.75709553  1
  Pb  Pb68  1  -0.00490169  0.24567045  -0.00236819  1
  Pb  Pb69  1  0.00672067  0.25272398  0.25967597  1
  Pb  Pb70  1  0.00129437  0.25213086  0.49105176  1
  Pb  Pb71  1  0.00166720  0.25192780  0.74345594  1
  Pb  Pb72  1  0.00015709  0.50135601  -0.00877995  1
  Pb  Pb73  1  -0.00062653  0.49159854  0.25544612  1
  Pb  Pb74  1  -0.00171499  0.48562289  0.50873928  1
  Pb  Pb75  1  0.00287652  0.50520549  0.75244607  1
  Pb  Pb76  1  0.00065132  0.75449375  -0.00163440  1
  Pb  Pb77  1  0.00527268  0.75518982  0.23973350  1
  Pb  Pb78  1  -0.00003700  0.74818803  0.49900730  1
  Pb  Pb79  1  -0.00080785  0.74417790  0.76130238  1
  Pb  Pb80  1  0.24586012  -0.00081318  0.00648780  1
  Pb  Pb81  1  0.24183143  0.01010331  0.25519984  1
  Pb  Pb82  1  0.24388917  0.00394299  0.49428586  1
  Pb  Pb83  1  0.25498851  -0.00515449  0.74901588  1
  Pb  Pb84  1  0.26059724  0.25113023  0.00770544  1
  Pb  Pb85  1  0.24344166  0.25091680  0.25657318  1
  Pb  Pb86  1  0.24816958  0.25236919  0.48672353  1
  Pb  Pb87  1  0.25091511  0.25293211  0.74071565  1
  Pb  Pb88  1  0.25476149  0.50539683  0.00529030  1
  Pb  Pb89  1  0.25716877  0.50298739  0.24776572  1
  Pb  Pb90  1  0.25502968  0.48753118  0.49855930  1
  Pb  Pb91  1  0.24766548  0.50066009  0.74764165  1
  Pb  Pb92  1  0.24992517  0.74185462  0.00690471  1
  Pb  Pb93  1  0.24263933  0.75004709  0.24173303  1
  Pb  Pb94  1  0.25958789  0.75501409  0.50009155  1
  Pb  Pb95  1  0.24488667  0.74559593  0.75585690  1
  Pb  Pb96  1  0.49159125  0.00891581  0.00666058  1
  Pb  Pb97  1  0.50319767  0.00614098  0.25378442  1
  Pb  Pb98  1  0.50111333  0.00399901  0.49874173  1
  Pb  Pb99  1  0.49505807  -0.00347638  0.74822381  1
  Pb  Pb100  1  0.48725730  0.25476913  0.01009145  1
  Pb  Pb101  1  0.49309263  0.25184934  0.25680580  1
  Pb  Pb102  1  0.49812746  0.25148246  0.48616962  1
  Pb  Pb103  1  0.49833136  0.25764078  0.74775705  1
  Pb  Pb104  1  0.49118340  0.49390230  0.00336149  1
  Pb  Pb105  1  0.49380928  0.50041243  0.25236568  1
  Pb  Pb106  1  0.49356432  0.49537573  0.49537953  1
  Pb  Pb107  1  0.49962018  0.48878177  0.75307149  1
  Pb  Pb108  1  0.49466191  0.74279118  0.00334863  1
  Pb  Pb109  1  0.49758391  0.74755270  0.24830108  1
  Pb  Pb110  1  0.50237219  0.75000847  0.50319738  1
  Pb  Pb111  1  0.49548363  0.75470309  0.75102267  1
  Pb  Pb112  1  0.76304672  0.00582413  0.00638508  1
  Pb  Pb113  1  0.75101952  0.00701735  0.25055586  1
  Pb  Pb114  1  0.74869857  0.00695495  0.50018697  1
  Pb  Pb115  1  0.75818587  -0.00027205  0.75685862  1
  Pb  Pb116  1  0.75608566  0.24668524  -0.00216670  1
  Pb  Pb117  1  0.74299539  0.24913727  0.25892829  1
  Pb  Pb118  1  0.75340071  0.25072316  0.49158752  1
  Pb  Pb119  1  0.75390835  0.25000732  0.74895287  1
  Pb  Pb120  1  0.75097078  0.49412166  -0.00936204  1
  Pb  Pb121  1  0.75114382  0.49311390  0.25497595  1
  Pb  Pb122  1  0.75467475  0.49386128  0.50477393  1
  Pb  Pb123  1  0.74726472  0.49168385  0.75361524  1
  Pb  Pb124  1  0.75403959  0.75190983  -0.00280965  1
  Pb  Pb125  1  0.74994028  0.74833752  0.24402620  1
  Pb  Pb126  1  0.74560409  0.74515549  0.50735784  1
  Pb  Pb127  1  0.75840125  0.75299462  0.75716286  1
  O  O128  1  0.12390446  0.00708041  0.16078032  1
  O  O129  1  0.12341547  -0.00979531  0.40907909  1
  O  O130  1  0.12348902  -0.00747758  0.66538489  1
  O  O131  1  0.12813465  0.00590871  0.91795775  1
  O  O132  1  0.12115703  0.25312824  0.16890241  1
  O  O133  1  0.12318511  0.25038615  0.40887898  1
  O  O134  1  0.12610783  0.24514365  0.66019631  1
  O  O135  1  0.12825452  0.24607363  0.91610944  1
  O  O136  1  0.11964326  0.49480229  0.16039280  1
  O  O137  1  0.12103027  0.51830389  0.41038704  1
  O  O138  1  0.12527296  0.50656058  0.66493332  1
  O  O139  1  0.12948273  0.48918380  0.90941420  1
  O  O140  1  0.12399835  0.74737972  0.15520194  1
  O  O141  1  0.12071597  0.74453611  0.41732165  1
  O  O142  1  0.12334279  0.75460654  0.67185878  1
  O  O143  1  0.12822196  0.75829272  0.91319964  1
  O  O144  1  0.38094043  -0.00835033  0.16449995  1
  O  O145  1  0.37866278  -0.01327512  0.40749384  1
  O  O146  1  0.37571585  0.00171340  0.66288139  1
  O  O147  1  0.37649440  0.00322123  0.92050264  1
  O  O148  1  0.37636221  0.25040884  0.17345015  1
  O  O149  1  0.37595198  0.25023335  0.40036251  1
  O  O150  1  0.37610730  0.24269921  0.65496626  1
  O  O151  1  0.37645010  0.24434764  0.91961551  1
  O  O152  1  0.37888168  0.50050389  0.16374609  1
  O  O153  1  0.37772772  0.50780568  0.40960903  1
  O  O154  1  0.37305132  0.51072660  0.66196042  1
  O  O155  1  0.37540116  0.50478351  0.91417048  1
  O  O156  1  0.38146998  0.75871191  0.16162661  1
  O  O157  1  0.38066282  0.75331875  0.41599474  1
  O  O158  1  0.37215736  0.74540542  0.66755398  1
  O  O159  1  0.37572594  0.74632170  0.91561477  1
  O  O160  1  0.62522709  0.00291340  0.15890295  1
  O  O161  1  0.62795409  -0.01262748  0.41327940  1
  O  O162  1  0.62555025  -0.00860267  0.66611093  1
  O  O163  1  0.62023294  -0.00193740  0.91256422  1
  O  O164  1  0.63004377  0.25350647  0.16395054  1
  O  O165  1  0.62733999  0.25071137  0.41107053  1
  O  O166  1  0.62420746  0.25417464  0.65875136  1
  O  O167  1  0.62135595  0.24304317  0.90929371  1
  O  O168  1  0.62801903  0.50162117  0.16260988  1
  O  O169  1  0.62832534  0.50939743  0.40988971  1
  O  O170  1  0.62439152  0.49669869  0.66358274  1
  O  O171  1  0.61954941  0.50886666  0.91280215  1
  O  O172  1  0.62807314  0.74533367  0.15910527  1
  O  O173  1  0.62951035  0.75364097  0.41976408  1
  O  O174  1  0.62693190  0.75697185  0.66972865  1
  O  O175  1  0.62068700  0.74371682  0.91518368  1
  O  O176  1  0.87201040  -0.00023094  0.16007780  1
  O  O177  1  0.87251310  -0.01292467  0.40474898  1
  O  O178  1  0.87450222  -0.00124286  0.66922766  1
  O  O179  1  0.87307895  0.00275061  0.91925152  1
  O  O180  1  0.87186602  0.25910962  0.16500669  1
  O  O181  1  0.87426536  0.25077589  0.40456358  1
  O  O182  1  0.87282114  0.24228819  0.65839634  1
  O  O183  1  0.87412803  0.24936878  0.91393437  1
  O  O184  1  0.87248486  0.50341475  0.16409615  1
  O  O185  1  0.87110448  0.51458485  0.41363757  1
  O  O186  1  0.87602098  0.50822981  0.66839937  1
  O  O187  1  0.87602336  0.49676893  0.90816326  1
  O  O188  1  0.86748991  0.73916066  0.15458740  1
  O  O189  1  0.86894614  0.74818667  0.42029757  1
  O  O190  1  0.87599635  0.75126613  0.67052402  1
  O  O191  1  0.87412659  0.74963381  0.91481780  1
  O  O192  1  0.00481168  0.12959272  0.16435006  1
  O  O193  1  -0.00387783  0.11962085  0.41021591  1
  O  O194  1  -0.00667602  0.11977342  0.66240219  1
  O  O195  1  0.00853759  0.12562830  0.91299795  1
  O  O196  1  -0.00411744  0.37675668  0.16581498  1
  O  O197  1  -0.00267115  0.38330518  0.41587874  1
  O  O198  1  0.00280379  0.37562893  0.66672010  1
  O  O199  1  0.00953147  0.36904809  0.90884148  1
  O  O200  1  -0.00742354  0.62307590  0.14992964  1
  O  O201  1  -0.00722294  0.63440156  0.40847587  1
  O  O202  1  -0.00045686  0.62958934  0.67083716  1
  O  O203  1  0.00120654  0.62435240  0.91415189  1
  O  O204  1  -0.00506085  0.87322302  0.15851966  1
  O  O205  1  -0.01023586  0.86455196  0.40759951  1
  O  O206  1  0.00208315  0.87430405  0.66935293  1
  O  O207  1  0.00790880  0.88045335  0.91575752  1
  O  O208  1  0.24269185  0.12769040  0.16674064  1
  O  O209  1  0.25261189  0.11819042  0.40934636  1
  O  O210  1  0.25791850  0.12006450  0.65974625  1
  O  O211  1  0.24852842  0.12507283  0.91812409  1
  O  O212  1  0.24093145  0.37483686  0.16303968  1
  O  O213  1  0.24901976  0.38193221  0.40761290  1
  O  O214  1  0.25056065  0.37677537  0.66350819  1
  O  O215  1  0.24663989  0.36897891  0.91592888  1
  O  O216  1  0.24796976  0.62339913  0.16014292  1
  O  O217  1  0.24758756  0.63529826  0.39855820  1
  O  O218  1  0.25131017  0.62939972  0.66744107  1
  O  O219  1  0.25735881  0.62519299  0.91515467  1
  O  O220  1  0.25796045  0.87579852  0.15608738  1
  O  O221  1  0.25524214  0.86609233  0.40348773  1
  O  O222  1  0.24225263  0.87362833  0.66548857  1
  O  O223  1  0.24766563  0.88028224  0.91858256  1
  O  O224  1  0.51044962  0.12759691  0.16824293  1
  O  O225  1  0.49930874  0.11771520  0.41122320  1
  O  O226  1  0.49454396  0.12115618  0.66015587  1
  O  O227  1  0.50310968  0.12099220  0.91562557  1
  O  O228  1  0.51096735  0.37497132  0.16424724  1
  O  O229  1  0.50270614  0.38018170  0.40917826  1
  O  O230  1  0.50266262  0.37617847  0.66126446  1
  O  O231  1  0.49835967  0.37524338  0.92085478  1
  O  O232  1  0.51108630  0.62521423  0.16154530  1
  O  O233  1  0.50974679  0.63295348  0.41144051  1
  O  O234  1  0.49386083  0.63042381  0.66026378  1
  O  O235  1  0.49739181  0.62556768  0.91571810  1
  O  O236  1  0.50444182  0.87488425  0.16499458  1
  O  O237  1  0.50688156  0.86965643  0.41111587  1
  O  O238  1  0.50481461  0.87281005  0.66353959  1
  O  O239  1  0.50438181  0.87169805  0.91961339  1
  O  O240  1  0.74189694  0.12799801  0.16531999  1
  O  O241  1  0.75346873  0.11889974  0.41471907  1
  O  O242  1  0.75403962  0.12032881  0.66289520  1
  O  O243  1  0.73869139  0.12207786  0.91284439  1
  O  O244  1  0.75189603  0.37981200  0.16533336  1
  O  O245  1  0.75052212  0.38167714  0.41783801  1
  O  O246  1  0.74410376  0.37631773  0.66338072  1
  O  O247  1  0.74629718  0.37443057  0.90992486  1
  O  O248  1  0.74729269  0.62154243  0.16347492  1
  O  O249  1  0.74905945  0.63139836  0.41845382  1
  O  O250  1  0.75423553  0.62880593  0.66707946  1
  O  O251  1  0.74281706  0.62470945  0.90760041  1
  O  O252  1  0.74393168  0.87335815  0.16187359  1
  O  O253  1  0.75063164  0.86956649  0.41552140  1
  O  O254  1  0.74948586  0.87417787  0.66686850  1
  O  O255  1  0.73686016  0.87236529  0.91611293  1
  O  O256  1  0.12455937  0.13077203  0.05167827  1
  O  O257  1  0.12758686  0.12442139  0.28376877  1
  O  O258  1  0.12423746  0.11011787  0.53232958  1
  O  O259  1  0.12944092  0.12437343  0.80015896  1
  O  O260  1  0.12161029  0.37158042  0.05180424  1
  O  O261  1  0.11255512  0.37769685  0.28557778  1
  O  O262  1  0.12418932  0.38226489  0.53086116  1
  O  O263  1  0.13254456  0.36792103  0.79646134  1
  O  O264  1  0.13465236  0.61949609  0.02508529  1
  O  O265  1  0.12273835  0.63190322  0.29242738  1
  O  O266  1  0.12366014  0.63334859  0.55153666  1
  O  O267  1  0.12860060  0.62937249  0.79223527  1
  O  O268  1  0.12386273  0.88420266  0.03487419  1
  O  O269  1  0.12190662  0.86326827  0.27795261  1
  O  O270  1  0.12091072  0.87069325  0.55112624  1
  O  O271  1  0.12992482  0.88109656  0.80445562  1
  O  O272  1  0.38136670  0.12756269  0.04794219  1
  O  O273  1  0.37814655  0.11331784  0.27576044  1
  O  O274  1  0.37653349  0.11809005  0.54227209  1
  O  O275  1  0.37442091  0.12422579  0.80062547  1
  O  O276  1  0.37830959  0.36645118  0.04435181  1
  O  O277  1  0.37900596  0.38514857  0.27689709  1
  O  O278  1  0.37324845  0.38711107  0.53421781  1
  O  O279  1  0.38386919  0.37234819  0.78644618  1
  O  O280  1  0.37411544  0.62800901  0.03856323  1
  O  O281  1  0.38466601  0.62862263  0.27791817  1
  O  O282  1  0.37212777  0.63106558  0.54696326  1
  O  O283  1  0.37703071  0.62632475  0.80060299  1
  O  O284  1  0.37970300  0.87790751  0.04556572  1
  O  O285  1  0.38006362  0.86746774  0.29583332  1
  O  O286  1  0.37084938  0.86742664  0.53759147  1
  O  O287  1  0.37768801  0.88006422  0.78886810  1
  O  O288  1  0.62377958  0.12766315  0.05014452  1
  O  O289  1  0.63134711  0.12033205  0.28679083  1
  O  O290  1  0.62610753  0.11059950  0.53463947  1
  O  O291  1  0.62098629  0.12521061  0.79672750  1
  O  O292  1  0.62892375  0.37398207  0.05319059  1
  O  O293  1  0.63704211  0.37647734  0.28115076  1
  O  O294  1  0.62635392  0.37892392  0.54752921  1
  O  O295  1  0.61519657  0.37739194  0.78463081  1
  O  O296  1  0.62810943  0.61975312  0.04616902  1
  O  O297  1  0.63245997  0.63162419  0.30169209  1
  O  O298  1  0.62745671  0.63328508  0.53869553  1
  O  O299  1  0.62031635  0.62757909  0.79656121  1
  O  O300  1  0.62328496  0.87500756  0.04368810  1
  O  O301  1  0.62903900  0.86921695  0.29848323  1
  O  O302  1  0.62749987  0.87240189  0.55019818  1
  O  O303  1  0.61884179  0.87722291  0.80169700  1
  O  O304  1  0.86747141  0.13139157  0.04218785  1
  O  O305  1  0.87077854  0.11809661  0.27507819  1
  O  O306  1  0.87397781  0.11646182  0.54893343  1
  O  O307  1  0.87202455  0.11866926  0.78635699  1
  O  O308  1  0.87457269  0.37577389  0.05295975  1
  O  O309  1  0.87479532  0.38894843  0.28382262  1
  O  O310  1  0.87682813  0.38748219  0.54315141  1
  O  O311  1  0.86776074  0.36900356  0.77598659  1
  O  O312  1  0.86918372  0.61576213  0.04215672  1
  O  O313  1  0.87326117  0.63197877  0.29779383  1
  O  O314  1  0.87805194  0.62804988  0.55822005  1
  O  O315  1  0.87871621  0.63171002  0.78224424  1
  O  O316  1  0.87134113  0.87583822  0.02830721  1
  O  O317  1  0.86799904  0.86486210  0.29536071  1
  O  O318  1  0.87751970  0.87596159  0.55222656  1
  O  O319  1  0.87112049  0.88309635  0.79301018  1
