# generated using pymatgen
data_VFe(PbO3)2
_symmetry_space_group_name_H-M   'P 1'
_cell_length_a   15.39305011
_cell_length_b   15.38367881
_cell_length_c   18.50524120
_cell_angle_alpha   89.96574205
_cell_angle_beta   89.97926075
_cell_angle_gamma   90.00325526
_symmetry_Int_Tables_number   1
_chemical_formula_structural   VFe(PbO3)2
_chemical_formula_sum   'V32 Fe32 Pb64 O192'
_cell_volume   4382.07221671
_cell_formula_units_Z   32
loop_
 _symmetry_equiv_pos_site_id
 _symmetry_equiv_pos_as_xyz
  1  'x, y, z'
loop_
 _atom_site_type_symbol
 _atom_site_label
 _atom_site_symmetry_multiplicity
 _atom_site_fract_x
 _atom_site_fract_y
 _atom_site_fract_z
 _atom_site_occupancy
  V  V0  1  0.62691295  0.87495020  0.39233107  1
  V  V1  1  0.12243715  0.62318528  0.63648528  1
  V  V2  1  0.62518363  0.62417426  0.14265866  1
  V  V3  1  0.87317623  0.87813398  0.14321230  1
  V  V4  1  0.62684100  0.62306087  0.39702488  1
  V  V5  1  0.12349816  0.37442219  0.38644538  1
  V  V6  1  0.87261494  0.62409188  0.14037770  1
  V  V7  1  0.37510119  0.12706263  0.63393080  1
  V  V8  1  0.37936656  0.62308461  0.14721906  1
  V  V9  1  0.12823770  0.12477212  0.89162072  1
  V  V10  1  0.62496927  0.87100459  0.13903744  1
  V  V11  1  0.37795165  0.87438633  0.14644724  1
  V  V12  1  0.12168950  0.87107236  0.63331457  1
  V  V13  1  0.87384936  0.62493109  0.38697678  1
  V  V14  1  0.12504696  0.37593258  0.13951858  1
  V  V15  1  0.37433257  0.62465106  0.39275843  1
  V  V16  1  0.87392508  0.12436686  0.38496711  1
  V  V17  1  0.62332492  0.62598857  0.88371509  1
  V  V18  1  0.37418361  0.62526160  0.88735736  1
  V  V19  1  0.37313078  0.87402880  0.88917509  1
  V  V20  1  0.37598653  0.37225989  0.14424586  1
  V  V21  1  0.37083627  0.37419470  0.88884156  1
  V  V22  1  0.87762698  0.87678000  0.64150706  1
  V  V23  1  0.12249142  0.36955973  0.63909385  1
  V  V24  1  0.37724504  0.12492249  0.38516392  1
  V  V25  1  0.87492089  0.62598761  0.64343623  1
  V  V26  1  0.87375180  0.37355741  0.13902718  1
  V  V27  1  0.12422262  0.11787438  0.63624307  1
  V  V28  1  0.12815657  0.87604467  0.89755593  1
  V  V29  1  0.12844716  0.62601284  0.89304738  1
  V  V30  1  0.12593400  0.12333407  0.14599636  1
  V  V31  1  0.37281888  0.12217940  0.89137973  1
  Fe  Fe32  1  0.87787069  0.37860590  0.88082218  1
  Fe  Fe33  1  0.12657451  0.62125243  0.15152493  1
  Fe  Fe34  1  0.62491426  0.37567003  0.63068778  1
  Fe  Fe35  1  0.87708846  0.12359335  0.88439902  1
  Fe  Fe36  1  0.62145180  0.87549219  0.88166181  1
  Fe  Fe37  1  0.62812509  0.12331367  0.63196951  1
  Fe  Fe38  1  0.62428590  0.87567220  0.63694032  1
  Fe  Fe39  1  0.36988294  0.87754658  0.62425646  1
  Fe  Fe40  1  0.62783812  0.37444206  0.39394204  1
  Fe  Fe41  1  0.12216926  0.87528521  0.37712316  1
  Fe  Fe42  1  0.12974192  0.37422536  0.88638825  1
  Fe  Fe43  1  0.37510318  0.12466710  0.13738562  1
  Fe  Fe44  1  0.87867159  0.37631015  0.64136886  1
  Fe  Fe45  1  0.87591533  0.62730572  0.88450428  1
  Fe  Fe46  1  0.62410727  0.12594120  0.13651488  1
  Fe  Fe47  1  0.62417065  0.37864734  0.13406098  1
  Fe  Fe48  1  0.12546417  0.87300160  0.14608180  1
  Fe  Fe49  1  0.37614460  0.37396965  0.39349426  1
  Fe  Fe50  1  0.62523910  0.62790389  0.63108438  1
  Fe  Fe51  1  0.87499173  0.37524337  0.38573059  1
  Fe  Fe52  1  0.62677735  0.12413121  0.39083985  1
  Fe  Fe53  1  0.37091831  0.62584005  0.62669908  1
  Fe  Fe54  1  0.87136291  0.87446039  0.37939871  1
  Fe  Fe55  1  0.37788783  0.87614401  0.39293114  1
  Fe  Fe56  1  0.88010880  0.12417550  0.64138302  1
  Fe  Fe57  1  0.12276809  0.62150785  0.37655634  1
  Fe  Fe58  1  0.62237677  0.37557117  0.88358991  1
  Fe  Fe59  1  0.62167147  0.12451124  0.88078734  1
  Fe  Fe60  1  0.87624204  0.87216810  0.88773416  1
  Fe  Fe61  1  0.37067504  0.37382701  0.62666091  1
  Fe  Fe62  1  0.12395534  0.12711077  0.38126679  1
  Fe  Fe63  1  0.87460462  0.12701401  0.13231591  1
  Pb  Pb64  1  -0.00604529  0.00293924  0.00335633  1
  Pb  Pb65  1  0.00580714  -0.00098981  0.25258302  1
  Pb  Pb66  1  -0.00508185  0.00356258  0.49137979  1
  Pb  Pb67  1  -0.01018119  -0.00284684  0.75968829  1
  Pb  Pb68  1  -0.00728756  0.24988276  -0.00363104  1
  Pb  Pb69  1  -0.00011220  0.24683663  0.25146790  1
  Pb  Pb70  1  -0.01496407  0.24685748  0.50341654  1
  Pb  Pb71  1  -0.01084847  0.25128208  0.75589296  1
  Pb  Pb72  1  0.00030901  0.49910971  -0.00269432  1
  Pb  Pb73  1  -0.00609622  0.49494351  0.25104728  1
  Pb  Pb74  1  -0.00453803  0.49278226  0.49950036  1
  Pb  Pb75  1  -0.00455308  0.50161645  0.75655969  1
  Pb  Pb76  1  0.00825279  0.75087099  0.00776810  1
  Pb  Pb77  1  0.00263845  0.75039314  0.25121559  1
  Pb  Pb78  1  0.00328951  0.75277480  0.48734020  1
  Pb  Pb79  1  -0.00493380  0.75108604  0.75688158  1
  Pb  Pb80  1  0.25217918  -0.00360376  0.00765747  1
  Pb  Pb81  1  0.25450322  -0.01260816  0.25909189  1
  Pb  Pb82  1  0.24842935  -0.00533986  0.48906403  1
  Pb  Pb83  1  0.25036990  0.00026512  0.74484952  1
  Pb  Pb84  1  0.25766009  0.24481009  0.00434813  1
  Pb  Pb85  1  0.24801634  0.24566363  0.25428034  1
  Pb  Pb86  1  0.25236600  0.25051901  0.49552363  1
  Pb  Pb87  1  0.24480500  0.25593591  0.74992569  1
  Pb  Pb88  1  0.24577488  0.50816391  0.00594408  1
  Pb  Pb89  1  0.25905983  0.49142039  0.25782282  1
  Pb  Pb90  1  0.25510079  0.50117475  0.49890524  1
  Pb  Pb91  1  0.24803268  0.49650476  0.74541732  1
  Pb  Pb92  1  0.23946232  0.74838927  0.01500025  1
  Pb  Pb93  1  0.24394557  0.74874046  0.25676534  1
  Pb  Pb94  1  0.25229026  0.75144174  0.49203788  1
  Pb  Pb95  1  0.25208228  0.75171625  0.74116304  1
  Pb  Pb96  1  0.50494475  0.00890886  0.00014540  1
  Pb  Pb97  1  0.50220433  0.00356866  0.25203667  1
  Pb  Pb98  1  0.51166014  -0.00225026  0.50470902  1
  Pb  Pb99  1  0.50831406  -0.00272540  0.74743881  1
  Pb  Pb100  1  0.51370264  0.24754080  0.00242048  1
  Pb  Pb101  1  0.50853328  0.24856316  0.25241203  1
  Pb  Pb102  1  0.50969574  0.25232068  0.49816741  1
  Pb  Pb103  1  0.51200494  0.25708187  0.74359470  1
  Pb  Pb104  1  0.50184543  0.49496489  -0.00122280  1
  Pb  Pb105  1  0.50217064  0.48648978  0.26108216  1
  Pb  Pb106  1  0.50225849  0.49328712  0.50419486  1
  Pb  Pb107  1  0.49783619  0.49946161  0.73388652  1
  Pb  Pb108  1  0.49564713  0.75063873  -0.00424771  1
  Pb  Pb109  1  0.49518708  0.75400036  0.25943801  1
  Pb  Pb110  1  0.50203319  0.74419004  0.50548217  1
  Pb  Pb111  1  0.49811082  0.75450023  0.73515706  1
  Pb  Pb112  1  0.74793180  0.00643690  -0.00953445  1
  Pb  Pb113  1  0.74508362  0.01077742  0.24867915  1
  Pb  Pb114  1  0.74632571  0.00187829  0.50513324  1
  Pb  Pb115  1  0.73921796  0.00770552  0.75191492  1
  Pb  Pb116  1  0.74866220  0.24590547  -0.01209030  1
  Pb  Pb117  1  0.73736467  0.25065904  0.25110631  1
  Pb  Pb118  1  0.74963246  0.25058418  0.50108138  1
  Pb  Pb119  1  0.74724125  0.24815485  0.74153162  1
  Pb  Pb120  1  0.74744589  0.49306770  -0.00697678  1
  Pb  Pb121  1  0.74798573  0.48804814  0.25558155  1
  Pb  Pb122  1  0.75074969  0.48875940  0.50650594  1
  Pb  Pb123  1  0.74267543  0.48676673  0.74768894  1
  Pb  Pb124  1  0.75150692  0.75266317  -0.00580969  1
  Pb  Pb125  1  0.75484303  0.75233528  0.25291190  1
  Pb  Pb126  1  0.74304908  0.75045133  0.50461261  1
  Pb  Pb127  1  0.75289967  0.75510396  0.75050352  1
  O  O128  1  0.12409568  0.00564832  0.16223718  1
  O  O129  1  0.12190065  0.00167708  0.40615881  1
  O  O130  1  0.12683626  0.00115604  0.65569752  1
  O  O131  1  0.13030919  0.00222411  0.92168355  1
  O  O132  1  0.12510821  0.25326916  0.16888212  1
  O  O133  1  0.12259884  0.25709613  0.41116770  1
  O  O134  1  0.12564428  0.25314489  0.65826911  1
  O  O135  1  0.13112753  0.24206234  0.91273126  1
  O  O136  1  0.12648446  0.49195379  0.16745970  1
  O  O137  1  0.12421835  0.49533951  0.41004829  1
  O  O138  1  0.12504954  0.50503572  0.65997094  1
  O  O139  1  0.13190241  0.50750009  0.91553496  1
  O  O140  1  0.12685743  0.74802636  0.16984450  1
  O  O141  1  0.12352555  0.74622797  0.40411931  1
  O  O142  1  0.12482780  0.74827735  0.66111591  1
  O  O143  1  0.13158849  0.74692080  0.92155741  1
  O  O144  1  0.37684228  -0.00686566  0.16505344  1
  O  O145  1  0.37438828  0.00829591  0.41150959  1
  O  O146  1  0.36272097  0.00927319  0.65807318  1
  O  O147  1  0.37040846  -0.00196636  0.91802460  1
  O  O148  1  0.37361876  0.25618918  0.16418203  1
  O  O149  1  0.37355449  0.24291656  0.41198883  1
  O  O150  1  0.36458325  0.24346971  0.66030464  1
  O  O151  1  0.36815824  0.25397956  0.91041125  1
  O  O152  1  0.37682341  0.50031214  0.16932053  1
  O  O153  1  0.37724868  0.50662244  0.41532596  1
  O  O154  1  0.36781056  0.49956799  0.65597445  1
  O  O155  1  0.37150779  0.50026024  0.91400485  1
  O  O156  1  0.37897669  0.74845715  0.17077036  1
  O  O157  1  0.37871275  0.74375871  0.41146535  1
  O  O158  1  0.36720287  0.75228873  0.65700216  1
  O  O159  1  0.37400035  0.74834186  0.91656806  1
  O  O160  1  0.62497087  -0.00879361  0.16372534  1
  O  O161  1  0.62724016  -0.00554455  0.41336854  1
  O  O162  1  0.62476310  0.00029337  0.66396345  1
  O  O163  1  0.61947458  -0.00038208  0.91352075  1
  O  O164  1  0.62423166  0.25458033  0.16424826  1
  O  O165  1  0.62801877  0.24765098  0.41607784  1
  O  O166  1  0.62365725  0.24847820  0.65699135  1
  O  O167  1  0.61945430  0.25055317  0.91026194  1
  O  O168  1  0.62290954  0.50477477  0.16725370  1
  O  O169  1  0.62659668  0.50737880  0.41625147  1
  O  O170  1  0.62597074  0.50292789  0.65804624  1
  O  O171  1  0.61827751  0.50757151  0.91121880  1
  O  O172  1  0.62331966  0.74807635  0.17122319  1
  O  O173  1  0.62729838  0.75128135  0.41601223  1
  O  O174  1  0.62862151  0.75117304  0.66422633  1
  O  O175  1  0.61867575  0.74281048  0.91021162  1
  O  O176  1  0.87419900  -0.00541722  0.15851962  1
  O  O177  1  0.87617546  0.00443273  0.40638969  1
  O  O178  1  0.88587249  -0.00763598  0.66353025  1
  O  O179  1  0.88094716  -0.00254235  0.91566523  1
  O  O180  1  0.87657420  0.25798869  0.15755706  1
  O  O181  1  0.87603321  0.24516083  0.41049390  1
  O  O182  1  0.88360877  0.25057385  0.66579386  1
  O  O183  1  0.88085372  0.25120238  0.90907590  1
  O  O184  1  0.87401528  0.50154865  0.16477224  1
  O  O185  1  0.87213619  0.50894964  0.41547354  1
  O  O186  1  0.88256528  0.50996679  0.66400364  1
  O  O187  1  0.87802734  0.50469633  0.91640152  1
  O  O188  1  0.87156861  0.74373982  0.16472762  1
  O  O189  1  0.87027886  0.74210864  0.41190711  1
  O  O190  1  0.88316709  0.75147961  0.66702232  1
  O  O191  1  0.87740199  0.74777112  0.92147012  1
  O  O192  1  0.00352957  0.12801413  0.16558684  1
  O  O193  1  -0.00629775  0.12640665  0.40997074  1
  O  O194  1  0.01414353  0.12573880  0.66782962  1
  O  O195  1  0.01209936  0.12207070  0.91440158  1
  O  O196  1  -0.00271420  0.37778392  0.16349552  1
  O  O197  1  0.00392272  0.37833316  0.41229744  1
  O  O198  1  0.00992373  0.38094534  0.66602174  1
  O  O199  1  0.00585169  0.37918510  0.91478472  1
  O  O200  1  -0.01042150  0.62316213  0.16336422  1
  O  O201  1  -0.00778900  0.62400181  0.40583337  1
  O  O202  1  0.00594658  0.62797480  0.66637063  1
  O  O203  1  0.01202500  0.62787949  0.91441959  1
  O  O204  1  -0.00852289  0.87102750  0.16239421  1
  O  O205  1  -0.00413422  0.87180405  0.40658082  1
  O  O206  1  0.00389860  0.87297682  0.66678305  1
  O  O207  1  0.00919150  0.87141444  0.92116399  1
  O  O208  1  0.24553547  0.12772229  0.16800476  1
  O  O209  1  0.25390928  0.12686363  0.40717014  1
  O  O210  1  0.24059171  0.12722266  0.66571976  1
  O  O211  1  0.24804917  0.12258097  0.92262001  1
  O  O212  1  0.25339501  0.37636364  0.16740218  1
  O  O213  1  0.24227806  0.37587656  0.41096366  1
  O  O214  1  0.24225166  0.37637714  0.66289709  1
  O  O215  1  0.25548598  0.37726085  0.92050241  1
  O  O216  1  0.26359727  0.62403341  0.17195059  1
  O  O217  1  0.25462246  0.62329494  0.40456368  1
  O  O218  1  0.23978303  0.62673573  0.66128565  1
  O  O219  1  0.25073636  0.62658823  0.92080760  1
  O  O220  1  0.25935926  0.87286278  0.16772940  1
  O  O221  1  0.24818162  0.87450823  0.40603627  1
  O  O222  1  0.24189698  0.87643129  0.66080826  1
  O  O223  1  0.25165814  0.87357331  0.92478599  1
  O  O224  1  0.49857044  0.12439807  0.16799283  1
  O  O225  1  0.49412267  0.12460578  0.41033564  1
  O  O226  1  0.48906375  0.12474604  0.65173100  1
  O  O227  1  0.49129996  0.12517825  0.91118805  1
  O  O228  1  0.49382308  0.37784858  0.16607917  1
  O  O229  1  0.50102521  0.37696936  0.41623490  1
  O  O230  1  0.49513923  0.37320067  0.65463405  1
  O  O231  1  0.48733070  0.37759620  0.91248272  1
  O  O232  1  0.49742933  0.62489405  0.17249741  1
  O  O233  1  0.50446412  0.62705722  0.41707927  1
  O  O234  1  0.49726883  0.62811913  0.65512511  1
  O  O235  1  0.49760358  0.62494447  0.91333737  1
  O  O236  1  0.49948740  0.87146942  0.17017471  1
  O  O237  1  0.50901784  0.87339919  0.41537268  1
  O  O238  1  0.49368548  0.87822018  0.65411363  1
  O  O239  1  0.49288547  0.87269249  0.91469955  1
  O  O240  1  0.75107073  0.12484995  0.16340402  1
  O  O241  1  0.75891292  0.12359148  0.41252475  1
  O  O242  1  0.75347409  0.12257398  0.66017721  1
  O  O243  1  0.74969153  0.12419641  0.90512666  1
  O  O244  1  0.75578924  0.38044628  0.15871878  1
  O  O245  1  0.75392949  0.37724189  0.41866046  1
  O  O246  1  0.75194646  0.37697703  0.66020117  1
  O  O247  1  0.74948960  0.37916897  0.90858062  1
  O  O248  1  0.75095112  0.62371873  0.16649826  1
  O  O249  1  0.74902392  0.62661667  0.41579262  1
  O  O250  1  0.75981956  0.63045569  0.66152158  1
  O  O251  1  0.74022998  0.62535087  0.90660679  1
  O  O252  1  0.75083678  0.86889557  0.16359728  1
  O  O253  1  0.74643154  0.87390905  0.41481987  1
  O  O254  1  0.76246955  0.87371413  0.66213215  1
  O  O255  1  0.74734177  0.87165172  0.91259777  1
  O  O256  1  0.12669251  0.13023291  0.05500065  1
  O  O257  1  0.11908289  0.13141054  0.28128525  1
  O  O258  1  0.12285716  0.12371802  0.54502033  1
  O  O259  1  0.13206064  0.11929870  0.80088106  1
  O  O260  1  0.12717658  0.37433592  0.04828747  1
  O  O261  1  0.12278071  0.37330475  0.29479086  1
  O  O262  1  0.12112866  0.37468144  0.54796386  1
  O  O263  1  0.13570554  0.37514390  0.78685861  1
  O  O264  1  0.13506333  0.62435482  0.04937288  1
  O  O265  1  0.12216012  0.62277877  0.27597802  1
  O  O266  1  0.12087582  0.62456779  0.54553891  1
  O  O267  1  0.13190118  0.62850917  0.80230507  1
  O  O268  1  0.13024007  0.86657034  0.04486095  1
  O  O269  1  0.12384981  0.88115899  0.27397607  1
  O  O270  1  0.11862299  0.87062421  0.54213980  1
  O  O271  1  0.12988744  0.87569022  0.80653468  1
  O  O272  1  0.36992083  0.12661713  0.03781085  1
  O  O273  1  0.37728510  0.12492465  0.29324014  1
  O  O274  1  0.36641033  0.12818407  0.54321187  1
  O  O275  1  0.36443756  0.11914319  0.80075036  1
  O  O276  1  0.37471360  0.37709607  0.05343420  1
  O  O277  1  0.37615779  0.38206533  0.29199337  1
  O  O278  1  0.36404314  0.37468166  0.52580658  1
  O  O279  1  0.36641265  0.37565571  0.79772030  1
  O  O280  1  0.37919571  0.62407618  0.05628613  1
  O  O281  1  0.38310247  0.62256087  0.30129934  1
  O  O282  1  0.36682779  0.62822292  0.52659792  1
  O  O283  1  0.37094806  0.62737238  0.79666678  1
  O  O284  1  0.38064221  0.87013668  0.05564610  1
  O  O285  1  0.38125167  0.87827334  0.29134944  1
  O  O286  1  0.36461139  0.87628489  0.52356742  1
  O  O287  1  0.36801371  0.87651911  0.79821495  1
  O  O288  1  0.61685691  0.12689819  0.03574078  1
  O  O289  1  0.63144562  0.12555669  0.28893021  1
  O  O290  1  0.62692534  0.11396464  0.52957964  1
  O  O291  1  0.61897105  0.11969321  0.77973925  1
  O  O292  1  0.61640974  0.38060304  0.03380232  1
  O  O293  1  0.62953893  0.37806484  0.29085561  1
  O  O294  1  0.62730882  0.37678696  0.52880619  1
  O  O295  1  0.61917569  0.37556778  0.78295569  1
  O  O296  1  0.62286619  0.62625457  0.05189571  1
  O  O297  1  0.62597849  0.62535020  0.30597899  1
  O  O298  1  0.62820595  0.63605968  0.53061592  1
  O  O299  1  0.62061566  0.62547186  0.79316665  1
  O  O300  1  0.62026184  0.86764299  0.04827599  1
  O  O301  1  0.62673564  0.87295191  0.30093337  1
  O  O302  1  0.63258410  0.88170873  0.53598615  1
  O  O303  1  0.62011779  0.88152482  0.78143885  1
  O  O304  1  0.88208964  0.12623920  0.03266061  1
  O  O305  1  0.87381617  0.12647655  0.29317392  1
  O  O306  1  0.88901009  0.12470684  0.54072233  1
  O  O307  1  0.89028518  0.11992546  0.78309385  1
  O  O308  1  0.87772842  0.37994573  0.04792174  1
  O  O309  1  0.87225188  0.38353334  0.28559357  1
  O  O310  1  0.88514457  0.37965470  0.53931163  1
  O  O311  1  0.88341808  0.38381450  0.77967168  1
  O  O312  1  0.87065852  0.62375992  0.04962283  1
  O  O313  1  0.86882323  0.62310605  0.29568507  1
  O  O314  1  0.88024733  0.62905058  0.55277094  1
  O  O315  1  0.88492393  0.63212102  0.78482520  1
  O  O316  1  0.87174438  0.86988020  0.05219775  1
  O  O317  1  0.86898152  0.86831039  0.27994013  1
  O  O318  1  0.88009102  0.87357483  0.55046056  1
  O  O319  1  0.88577446  0.87062731  0.78749110  1
