# generated using pymatgen
data_VFe(PbO3)2
_symmetry_space_group_name_H-M   'P 1'
_cell_length_a   15.38784731
_cell_length_b   15.38130454
_cell_length_c   18.57530095
_cell_angle_alpha   89.93198141
_cell_angle_beta   89.92584328
_cell_angle_gamma   90.00517536
_symmetry_Int_Tables_number   1
_chemical_formula_structural   VFe(PbO3)2
_chemical_formula_sum   'V32 Fe32 Pb64 O192'
_cell_volume   4396.49138530
_cell_formula_units_Z   32
loop_
 _symmetry_equiv_pos_site_id
 _symmetry_equiv_pos_as_xyz
  1  'x, y, z'
loop_
 _atom_site_type_symbol
 _atom_site_label
 _atom_site_symmetry_multiplicity
 _atom_site_fract_x
 _atom_site_fract_y
 _atom_site_fract_z
 _atom_site_occupancy
  V  V0  1  0.62409521  0.87542005  0.88432931  1
  V  V1  1  0.12279742  0.62412550  0.64134071  1
  V  V2  1  0.37629112  0.62474270  0.13576609  1
  V  V3  1  0.37331613  0.12613535  0.63738975  1
  V  V4  1  0.37241236  0.61928897  0.64292846  1
  V  V5  1  0.37456339  0.87513304  0.14039554  1
  V  V6  1  0.37502976  0.37594692  0.89477079  1
  V  V7  1  0.62731380  0.87531293  0.14667166  1
  V  V8  1  0.62488755  0.12264874  0.14312620  1
  V  V9  1  0.12430825  0.37888871  0.13187942  1
  V  V10  1  0.62418054  0.37332784  0.89306161  1
  V  V11  1  0.12268453  0.37665077  0.38652863  1
  V  V12  1  0.61774954  0.37520713  0.63915292  1
  V  V13  1  0.12047054  0.87575367  0.88835022  1
  V  V14  1  0.37232525  0.11642634  0.38627312  1
  V  V15  1  0.12457357  0.12701110  0.64224627  1
  V  V16  1  0.37689572  0.87350929  0.88937652  1
  V  V17  1  0.12502556  0.12264309  0.13687165  1
  V  V18  1  0.62488070  0.12440897  0.88791425  1
  V  V19  1  0.37292995  0.37115389  0.38423209  1
  V  V20  1  0.87546144  0.87803974  0.14370202  1
  V  V21  1  0.37170849  0.87052869  0.64035014  1
  V  V22  1  0.87226386  0.62441085  0.89018775  1
  V  V23  1  0.87292988  0.12172819  0.14337382  1
  V  V24  1  0.86679719  0.37544958  0.37738688  1
  V  V25  1  0.87675187  0.87478718  0.38983485  1
  V  V26  1  0.87034652  0.87304419  0.88363129  1
  V  V27  1  0.87080285  0.37820847  0.64311814  1
  V  V28  1  0.37264857  0.61813943  0.38489892  1
  V  V29  1  0.12526084  0.37558533  0.64574751  1
  V  V30  1  0.37701579  0.12368925  0.89589763  1
  V  V31  1  0.37522187  0.86414040  0.38753172  1
  Fe  Fe32  1  0.37618018  0.11960945  0.13360126  1
  Fe  Fe33  1  0.62496075  0.62519901  0.88684184  1
  Fe  Fe34  1  0.87513236  0.62143855  0.63181114  1
  Fe  Fe35  1  0.62546976  0.37402760  0.14245637  1
  Fe  Fe36  1  0.12160426  0.87782710  0.13482812  1
  Fe  Fe37  1  0.62326851  0.12906517  0.63270549  1
  Fe  Fe38  1  0.62412549  0.87596594  0.39539348  1
  Fe  Fe39  1  0.12698631  0.87548741  0.38736918  1
  Fe  Fe40  1  0.87846515  0.62341600  0.38578471  1
  Fe  Fe41  1  0.87257828  0.37304160  0.89034784  1
  Fe  Fe42  1  0.62363252  0.62237847  0.63728544  1
  Fe  Fe43  1  0.87860079  0.87365252  0.62965881  1
  Fe  Fe44  1  0.62390127  0.87475178  0.62795648  1
  Fe  Fe45  1  0.87481563  0.37186361  0.13276355  1
  Fe  Fe46  1  0.12535511  0.62985913  0.12906178  1
  Fe  Fe47  1  0.87341678  0.12203992  0.88177540  1
  Fe  Fe48  1  0.37844990  0.62681615  0.88817107  1
  Fe  Fe49  1  0.12602989  0.12520916  0.88443678  1
  Fe  Fe50  1  0.37053767  0.37470344  0.63697239  1
  Fe  Fe51  1  0.62124599  0.37545487  0.37297679  1
  Fe  Fe52  1  0.12837993  0.62348080  0.38427001  1
  Fe  Fe53  1  0.87515433  0.62724421  0.13704517  1
  Fe  Fe54  1  0.12585575  0.62567005  0.89422076  1
  Fe  Fe55  1  0.12905274  0.87426788  0.63693980  1
  Fe  Fe56  1  0.87958831  0.12753214  0.38846477  1
  Fe  Fe57  1  0.62457407  0.62818839  0.14177993  1
  Fe  Fe58  1  0.87511136  0.12895867  0.63560939  1
  Fe  Fe59  1  0.37186175  0.37019565  0.13170557  1
  Fe  Fe60  1  0.62485033  0.12906291  0.38910049  1
  Fe  Fe61  1  0.12355524  0.37410989  0.88684248  1
  Fe  Fe62  1  0.12790128  0.12781293  0.38671805  1
  Fe  Fe63  1  0.62445016  0.62313009  0.38127210  1
  Pb  Pb64  1  0.00246553  -0.00193725  -0.00427424  1
  Pb  Pb65  1  0.00005392  0.00765600  0.25689752  1
  Pb  Pb66  1  -0.00072271  -0.00356144  0.49968912  1
  Pb  Pb67  1  -0.00361180  0.00491386  0.74454390  1
  Pb  Pb68  1  -0.00432208  0.24868940  -0.00885766  1
  Pb  Pb69  1  -0.00020181  0.24174523  0.25018262  1
  Pb  Pb70  1  -0.00304079  0.24670162  0.50029716  1
  Pb  Pb71  1  -0.00809978  0.25304940  0.75920080  1
  Pb  Pb72  1  -0.00623092  0.49973128  -0.00216134  1
  Pb  Pb73  1  -0.00806086  0.50853848  0.24481856  1
  Pb  Pb74  1  -0.00288983  0.50483790  0.49686055  1
  Pb  Pb75  1  0.00080791  0.49011281  0.75936840  1
  Pb  Pb76  1  -0.00416145  0.74256801  0.00515355  1
  Pb  Pb77  1  0.00420269  0.74213106  0.24974735  1
  Pb  Pb78  1  -0.00055239  0.75318144  0.49745771  1
  Pb  Pb79  1  -0.00217965  0.75025579  0.74406038  1
  Pb  Pb80  1  0.24654732  -0.00651713  0.00182494  1
  Pb  Pb81  1  0.23891959  -0.00325758  0.25172791  1
  Pb  Pb82  1  0.24197397  -0.00373258  0.50151865  1
  Pb  Pb83  1  0.24655782  0.00594713  0.75236630  1
  Pb  Pb84  1  0.25562724  0.24791625  0.00060458  1
  Pb  Pb85  1  0.24788824  0.24429053  0.24360130  1
  Pb  Pb86  1  0.25596446  0.25686374  0.49999152  1
  Pb  Pb87  1  0.24105169  0.24961286  0.75525969  1
  Pb  Pb88  1  0.24695917  0.50481720  -0.00327597  1
  Pb  Pb89  1  0.24406914  0.50771153  0.24341005  1
  Pb  Pb90  1  0.25593508  0.49387204  0.50154226  1
  Pb  Pb91  1  0.23865703  0.50170411  0.76104023  1
  Pb  Pb92  1  0.24311490  0.75152889  0.00194467  1
  Pb  Pb93  1  0.23775134  0.75228698  0.24891588  1
  Pb  Pb94  1  0.24098937  0.75151238  0.50136252  1
  Pb  Pb95  1  0.24893480  0.73703315  0.75903370  1
  Pb  Pb96  1  0.49638028  0.00115326  0.00226187  1
  Pb  Pb97  1  0.50840635  -0.00199786  0.25846542  1
  Pb  Pb98  1  0.51025143  0.00152783  0.50221814  1
  Pb  Pb99  1  0.50252895  0.00028318  0.74215355  1
  Pb  Pb100  1  0.49595851  0.25233086  0.00818964  1
  Pb  Pb101  1  0.50075057  0.25084598  0.24627177  1
  Pb  Pb102  1  0.50507535  0.25170899  0.49620779  1
  Pb  Pb103  1  0.49427274  0.24994971  0.74887089  1
  Pb  Pb104  1  0.50968449  0.49766891  0.00547755  1
  Pb  Pb105  1  0.50666224  0.49431445  0.24419090  1
  Pb  Pb106  1  0.50634058  0.50006460  0.49606790  1
  Pb  Pb107  1  0.49799082  0.51069099  0.75757073  1
  Pb  Pb108  1  0.50886054  0.74239265  0.00110329  1
  Pb  Pb109  1  0.50690358  0.75145823  0.25550252  1
  Pb  Pb110  1  0.51390972  0.74511985  0.50277938  1
  Pb  Pb111  1  0.50175222  0.74345942  0.74909218  1
  Pb  Pb112  1  0.74919957  -0.00399893  -0.00519585  1
  Pb  Pb113  1  0.74190369  0.00249360  0.26326182  1
  Pb  Pb114  1  0.75589388  0.00113917  0.49797309  1
  Pb  Pb115  1  0.75243102  0.00236297  0.73485767  1
  Pb  Pb116  1  0.75106688  0.25448362  0.00238548  1
  Pb  Pb117  1  0.74695636  0.24855503  0.25075856  1
  Pb  Pb118  1  0.74819924  0.23663891  0.50229088  1
  Pb  Pb119  1  0.75774813  0.24849877  0.75178510  1
  Pb  Pb120  1  0.74556563  0.48920559  0.01105371  1
  Pb  Pb121  1  0.75043534  0.50339427  0.24244000  1
  Pb  Pb122  1  0.74482158  0.51545967  0.49927956  1
  Pb  Pb123  1  0.74669152  0.50485591  0.75088640  1
  Pb  Pb124  1  0.74968730  0.73789597  0.00533982  1
  Pb  Pb125  1  0.74962254  0.74103191  0.25642983  1
  Pb  Pb126  1  0.75407278  0.74813871  0.49623719  1
  Pb  Pb127  1  0.74719885  0.75037298  0.73607205  1
  O  O128  1  0.12344245  0.00381256  0.16514754  1
  O  O129  1  0.12994039  0.00144498  0.41713288  1
  O  O130  1  0.12950253  0.00694897  0.66245140  1
  O  O131  1  0.12896952  -0.00611901  0.91492519  1
  O  O132  1  0.12497292  0.24172411  0.15733232  1
  O  O133  1  0.13352192  0.25955850  0.41365659  1
  O  O134  1  0.12809103  0.24814297  0.66703708  1
  O  O135  1  0.12716053  0.24920932  0.91345161  1
  O  O136  1  0.12890863  0.49672744  0.14888381  1
  O  O137  1  0.13305816  0.49397369  0.41399240  1
  O  O138  1  0.12867471  0.50536702  0.66860990  1
  O  O139  1  0.12620036  0.49912335  0.91782210  1
  O  O140  1  0.12700973  0.75392127  0.16115548  1
  O  O141  1  0.13022827  0.74929809  0.41509569  1
  O  O142  1  0.13095088  0.74177486  0.66467360  1
  O  O143  1  0.12876013  0.76050604  0.91208645  1
  O  O144  1  0.38009977  -0.00790075  0.16540758  1
  O  O145  1  0.37330075  0.00344673  0.40585480  1
  O  O146  1  0.37305053  0.00098457  0.66369467  1
  O  O147  1  0.37870700  -0.00461809  0.91802242  1
  O  O148  1  0.37047394  0.24377750  0.16339846  1
  O  O149  1  0.37023225  0.25602772  0.40679144  1
  O  O150  1  0.37207497  0.24757350  0.66841949  1
  O  O151  1  0.38022904  0.25082052  0.91794343  1
  O  O152  1  0.37128527  0.50752798  0.15369578  1
  O  O153  1  0.37141040  0.49957711  0.40985059  1
  O  O154  1  0.37317101  0.50410891  0.66408678  1
  O  O155  1  0.38091373  0.49257643  0.91353389  1
  O  O156  1  0.37822828  0.75702842  0.16583696  1
  O  O157  1  0.37351324  0.74844188  0.40440593  1
  O  O158  1  0.37301239  0.75036324  0.66382778  1
  O  O159  1  0.37711426  0.75916530  0.91354346  1
  O  O160  1  0.62681989  -0.00090330  0.17199562  1
  O  O161  1  0.62133179  0.00364735  0.41793330  1
  O  O162  1  0.61959605  0.00135719  0.65678611  1
  O  O163  1  0.62249576  -0.00195295  0.91518236  1
  O  O164  1  0.62601201  0.23972034  0.16110411  1
  O  O165  1  0.62154086  0.25708376  0.41332849  1
  O  O166  1  0.62511800  0.26029739  0.66642270  1
  O  O167  1  0.62430028  0.25062555  0.91554774  1
  O  O168  1  0.62203913  0.50264925  0.16131947  1
  O  O169  1  0.62078279  0.49645163  0.40981898  1
  O  O170  1  0.62364039  0.49047876  0.66818023  1
  O  O171  1  0.62395687  0.49339113  0.91553617  1
  O  O172  1  0.62473501  0.75831126  0.16828993  1
  O  O173  1  0.62086423  0.74748663  0.41412793  1
  O  O174  1  0.61913572  0.74952001  0.65808444  1
  O  O175  1  0.62305013  0.75651592  0.91066139  1
  O  O176  1  0.87027596  -0.00242198  0.17396834  1
  O  O177  1  0.87805042  -0.00354681  0.41215708  1
  O  O178  1  0.87851745  0.00211543  0.65854950  1
  O  O179  1  0.87287100  -0.00738918  0.91218516  1
  O  O180  1  0.87686928  0.24226666  0.16279145  1
  O  O181  1  0.87886505  0.26608584  0.41375169  1
  O  O182  1  0.87876893  0.25903162  0.66697729  1
  O  O183  1  0.87068350  0.24562483  0.91451890  1
  O  O184  1  0.87857365  0.49806449  0.15980583  1
  O  O185  1  0.87790547  0.48578146  0.41165568  1
  O  O186  1  0.87845054  0.49468820  0.66771603  1
  O  O187  1  0.87292916  0.50848457  0.91051644  1
  O  O188  1  0.87183256  0.76268781  0.16705033  1
  O  O189  1  0.87679559  0.75418000  0.41099511  1
  O  O190  1  0.87804672  0.74600174  0.66179379  1
  O  O191  1  0.87493831  0.75452184  0.91497538  1
  O  O192  1  0.00195773  0.11981017  0.16368386  1
  O  O193  1  0.00404608  0.13146926  0.41870302  1
  O  O194  1  0.00780708  0.12850653  0.66022204  1
  O  O195  1  -0.00046861  0.11918540  0.91286120  1
  O  O196  1  0.01080037  0.36945375  0.15626677  1
  O  O197  1  0.01074487  0.37654925  0.41037458  1
  O  O198  1  0.00120845  0.37751729  0.66952113  1
  O  O199  1  -0.00218262  0.37620302  0.91574961  1
  O  O200  1  0.00180962  0.63068954  0.16042376  1
  O  O201  1  0.00336153  0.62016074  0.41408821  1
  O  O202  1  0.00727463  0.62252309  0.65920690  1
  O  O203  1  -0.00749911  0.63111458  0.91424860  1
  O  O204  1  -0.00836608  0.88059555  0.16076974  1
  O  O205  1  -0.00213192  0.87518928  0.41215822  1
  O  O206  1  0.00545902  0.87332226  0.66538143  1
  O  O207  1  0.00273697  0.87762123  0.90581141  1
  O  O208  1  0.24364275  0.11918352  0.15731620  1
  O  O209  1  0.25828662  0.12965989  0.41667318  1
  O  O210  1  0.24967580  0.12685399  0.66880286  1
  O  O211  1  0.25614678  0.12202053  0.91561944  1
  O  O212  1  0.24062919  0.37025318  0.16209153  1
  O  O213  1  0.25314933  0.37804815  0.41460441  1
  O  O214  1  0.24570928  0.37642582  0.66997087  1
  O  O215  1  0.25816773  0.37250675  0.91140887  1
  O  O216  1  0.25709364  0.63113639  0.15932099  1
  O  O217  1  0.25887147  0.62403710  0.41597705  1
  O  O218  1  0.25258659  0.62473782  0.66829366  1
  O  O219  1  0.25515738  0.62757116  0.91767406  1
  O  O220  1  0.25747587  0.87816382  0.15830741  1
  O  O221  1  0.26160626  0.87653187  0.41793358  1
  O  O222  1  0.25630937  0.87583187  0.66920731  1
  O  O223  1  0.25525263  0.87795579  0.91238267  1
  O  O224  1  0.50720838  0.11943229  0.16172095  1
  O  O225  1  0.48658819  0.13136225  0.41352521  1
  O  O226  1  0.49552895  0.12943500  0.66513154  1
  O  O227  1  0.50356298  0.12391961  0.92149056  1
  O  O228  1  0.49488910  0.37139278  0.16013296  1
  O  O229  1  0.48902149  0.37752151  0.40412853  1
  O  O230  1  0.50157962  0.37428500  0.66089899  1
  O  O231  1  0.50334467  0.37181823  0.91865817  1
  O  O232  1  0.49037926  0.63148902  0.16333499  1
  O  O233  1  0.48811692  0.62294004  0.41104920  1
  O  O234  1  0.49250278  0.62348550  0.66522140  1
  O  O235  1  0.50166765  0.62535803  0.92026268  1
  O  O236  1  0.50528364  0.87727604  0.16717817  1
  O  O237  1  0.48604023  0.87719435  0.41836742  1
  O  O238  1  0.48882660  0.87564658  0.66344700  1
  O  O239  1  0.49792452  0.87737366  0.91273461  1
  O  O240  1  0.74708580  0.12095560  0.17030432  1
  O  O241  1  0.75334395  0.12967655  0.41324591  1
  O  O242  1  0.74814673  0.13120037  0.66088766  1
  O  O243  1  0.74338367  0.12082999  0.91257073  1
  O  O244  1  0.75249350  0.37095548  0.16776188  1
  O  O245  1  0.75355175  0.37481845  0.37209641  1
  O  O246  1  0.75181898  0.37647029  0.66327522  1
  O  O247  1  0.74302731  0.37432847  0.91540422  1
  O  O248  1  0.75101974  0.63020402  0.16570180  1
  O  O249  1  0.75147555  0.62234435  0.40984552  1
  O  O250  1  0.74961997  0.61886425  0.66293859  1
  O  O251  1  0.75418287  0.63142897  0.91246954  1
  O  O252  1  0.74603520  0.87861445  0.17228099  1
  O  O253  1  0.75652096  0.87621367  0.41224031  1
  O  O254  1  0.74964474  0.87457840  0.65551300  1
  O  O255  1  0.74726811  0.87640959  0.91110055  1
  O  O256  1  0.12108118  0.11785477  0.04613411  1
  O  O257  1  0.12504376  0.12318231  0.28705699  1
  O  O258  1  0.13057200  0.12969419  0.55156939  1
  O  O259  1  0.13106967  0.12245481  0.78495181  1
  O  O260  1  0.12852666  0.37159301  0.04141424  1
  O  O261  1  0.12531745  0.37704451  0.29553437  1
  O  O262  1  0.12419474  0.37693790  0.55485916  1
  O  O263  1  0.12424051  0.38198274  0.78579704  1
  O  O264  1  0.12519020  0.63607019  0.02812825  1
  O  O265  1  0.13425716  0.62607663  0.28414453  1
  O  O266  1  0.13013396  0.62296989  0.55060844  1
  O  O267  1  0.13304290  0.62502132  0.79308950  1
  O  O268  1  0.12624316  0.88099865  0.03503163  1
  O  O269  1  0.13527588  0.87673814  0.28708019  1
  O  O270  1  0.13448178  0.87415031  0.53707303  1
  O  O271  1  0.12731162  0.87806952  0.79768157  1
  O  O272  1  0.38206683  0.12254762  0.03405120  1
  O  O273  1  0.37056555  0.12294463  0.29513994  1
  O  O274  1  0.37228242  0.12758534  0.54666474  1
  O  O275  1  0.38167999  0.12454934  0.80503343  1
  O  O276  1  0.37375583  0.36544988  0.03228463  1
  O  O277  1  0.36695953  0.37458462  0.29355551  1
  O  O278  1  0.36671395  0.37605053  0.53785230  1
  O  O279  1  0.38070767  0.37059475  0.80391541  1
  O  O280  1  0.37895375  0.63235106  0.04509857  1
  O  O281  1  0.36970210  0.61691344  0.29420801  1
  O  O282  1  0.37173334  0.62303905  0.55242353  1
  O  O283  1  0.38060126  0.62829470  0.78769174  1
  O  O284  1  0.38070475  0.87429074  0.04943857  1
  O  O285  1  0.37545445  0.87277731  0.29679533  1
  O  O286  1  0.36990280  0.87081274  0.55007126  1
  O  O287  1  0.37631216  0.87560382  0.79895838  1
  O  O288  1  0.63084709  0.11621512  0.05278690  1
  O  O289  1  0.62280326  0.12161984  0.28864449  1
  O  O290  1  0.61958046  0.13842115  0.53262193  1
  O  O291  1  0.62021663  0.12555746  0.79733086  1
  O  O292  1  0.63263088  0.37717122  0.04038671  1
  O  O293  1  0.60980854  0.37009636  0.27248865  1
  O  O294  1  0.62176113  0.37729142  0.54820088  1
  O  O295  1  0.62216556  0.37337169  0.80259745  1
  O  O296  1  0.62480319  0.63473485  0.04024201  1
  O  O297  1  0.62036118  0.63006606  0.28072272  1
  O  O298  1  0.61965087  0.61407789  0.53664130  1
  O  O299  1  0.61774004  0.61831622  0.78678080  1
  O  O300  1  0.62942519  0.87813857  0.05612610  1
  O  O301  1  0.61682153  0.88133020  0.29443026  1
  O  O302  1  0.61434764  0.87434385  0.52726982  1
  O  O303  1  0.62272092  0.87885377  0.79371315  1
  O  O304  1  0.87009132  0.11487594  0.05295756  1
  O  O305  1  0.88760705  0.12830570  0.28812886  1
  O  O306  1  0.87478975  0.13854509  0.53508999  1
  O  O307  1  0.87552200  0.12955869  0.78161768  1
  O  O308  1  0.86500130  0.37481010  0.03220218  1
  O  O309  1  0.89677895  0.37389110  0.28905676  1
  O  O310  1  0.87351043  0.37792427  0.55305265  1
  O  O311  1  0.87875835  0.37181557  0.78961885  1
  O  O312  1  0.87422758  0.63750680  0.03641725  1
  O  O313  1  0.88365997  0.62327615  0.28497796  1
  O  O314  1  0.87239932  0.61444491  0.53178729  1
  O  O315  1  0.87374006  0.62716137  0.79941141  1
  O  O316  1  0.86792773  0.88059219  0.05309730  1
  O  O317  1  0.87752132  0.87490361  0.29927690  1
  O  O318  1  0.88212799  0.87352022  0.53001617  1
  O  O319  1  0.87251776  0.87156245  0.79293861  1
