# generated using pymatgen
data_VFe(PbO3)2
_symmetry_space_group_name_H-M   'P 1'
_cell_length_a   15.39546439
_cell_length_b   15.39050558
_cell_length_c   18.52048931
_cell_angle_alpha   89.99902373
_cell_angle_beta   89.94877525
_cell_angle_gamma   89.98915663
_symmetry_Int_Tables_number   1
_chemical_formula_structural   VFe(PbO3)2
_chemical_formula_sum   'V32 Fe32 Pb64 O192'
_cell_volume   4388.31662576
_cell_formula_units_Z   32
loop_
 _symmetry_equiv_pos_site_id
 _symmetry_equiv_pos_as_xyz
  1  'x, y, z'
loop_
 _atom_site_type_symbol
 _atom_site_label
 _atom_site_symmetry_multiplicity
 _atom_site_fract_x
 _atom_site_fract_y
 _atom_site_fract_z
 _atom_site_occupancy
  V  V0  1  0.37519321  0.12315092  0.13622264  1
  V  V1  1  0.87348964  0.12708241  0.64106873  1
  V  V2  1  0.37411201  0.37548795  0.38899834  1
  V  V3  1  0.37421460  0.37912204  0.88827550  1
  V  V4  1  0.87359829  0.87040476  0.63798926  1
  V  V5  1  0.37145099  0.62087642  0.64050895  1
  V  V6  1  0.62876047  0.37353846  0.64474824  1
  V  V7  1  0.37786301  0.38503526  0.13624319  1
  V  V8  1  0.62431463  0.12276614  0.13725101  1
  V  V9  1  0.37487484  0.63557248  0.13634791  1
  V  V10  1  0.62122247  0.87361654  0.13832293  1
  V  V11  1  0.12883139  0.87616514  0.13722548  1
  V  V12  1  0.37413276  0.87484242  0.39399123  1
  V  V13  1  0.37343025  0.12067356  0.39330795  1
  V  V14  1  0.12779140  0.87734557  0.39390451  1
  V  V15  1  0.62655097  0.62272934  0.64242252  1
  V  V16  1  0.12803157  0.12533394  0.38839302  1
  V  V17  1  0.12200632  0.62734108  0.89011067  1
  V  V18  1  0.87619327  0.62394457  0.89304214  1
  V  V19  1  0.12116769  0.12375729  0.89614500  1
  V  V20  1  0.12147266  0.12860743  0.63930024  1
  V  V21  1  0.62623316  0.12257188  0.88878873  1
  V  V22  1  0.12171206  0.37496891  0.64188225  1
  V  V23  1  0.87647239  0.87353831  0.88974801  1
  V  V24  1  0.37067609  0.13154270  0.64478823  1
  V  V25  1  0.62359754  0.12615929  0.64282705  1
  V  V26  1  0.87355113  0.61382192  0.63693819  1
  V  V27  1  0.62327967  0.37323322  0.38433014  1
  V  V28  1  0.37636320  0.62893325  0.39329045  1
  V  V29  1  0.37511914  0.12856041  0.88638201  1
  V  V30  1  0.37118229  0.62675629  0.88384136  1
  V  V31  1  0.12616505  0.62628317  0.14148431  1
  Fe  Fe32  1  0.87447356  0.37199868  0.63674812  1
  Fe  Fe33  1  0.87350050  0.62508716  0.37640718  1
  Fe  Fe34  1  0.62400298  0.37499628  0.89653241  1
  Fe  Fe35  1  0.12052647  0.87772715  0.63941262  1
  Fe  Fe36  1  0.37562674  0.87440240  0.64734600  1
  Fe  Fe37  1  0.12823206  0.12223118  0.12536206  1
  Fe  Fe38  1  0.87737449  0.37473515  0.89781777  1
  Fe  Fe39  1  0.87293255  0.37497946  0.13066051  1
  Fe  Fe40  1  0.37540598  0.87775372  0.13354766  1
  Fe  Fe41  1  0.87362481  0.12329780  0.89799409  1
  Fe  Fe42  1  0.61993261  0.62441854  0.38462697  1
  Fe  Fe43  1  0.61992569  0.62578579  0.13246206  1
  Fe  Fe44  1  0.62651008  0.62607131  0.88841752  1
  Fe  Fe45  1  0.61997993  0.37267843  0.12842688  1
  Fe  Fe46  1  0.37652317  0.37560728  0.64081027  1
  Fe  Fe47  1  0.87638618  0.12175255  0.12671354  1
  Fe  Fe48  1  0.87709980  0.37184654  0.37638266  1
  Fe  Fe49  1  0.87433330  0.87716411  0.37699638  1
  Fe  Fe50  1  0.37381371  0.87560414  0.87723457  1
  Fe  Fe51  1  0.12299494  0.87380784  0.88258235  1
  Fe  Fe52  1  0.87441103  0.87465409  0.14519517  1
  Fe  Fe53  1  0.87235435  0.62716082  0.13773898  1
  Fe  Fe54  1  0.12940648  0.37597520  0.13620254  1
  Fe  Fe55  1  0.12838122  0.37260381  0.37674929  1
  Fe  Fe56  1  0.62853103  0.87656801  0.64516081  1
  Fe  Fe57  1  0.62762183  0.87512895  0.87859432  1
  Fe  Fe58  1  0.62149432  0.87591710  0.38563716  1
  Fe  Fe59  1  0.62010011  0.12550625  0.38385817  1
  Fe  Fe60  1  0.12721442  0.37767401  0.89783730  1
  Fe  Fe61  1  0.12859596  0.62539610  0.38996426  1
  Fe  Fe62  1  0.87218582  0.12282594  0.38047532  1
  Fe  Fe63  1  0.11946234  0.62317982  0.63043827  1
  Pb  Pb64  1  -0.00849598  -0.00541333  0.00722603  1
  Pb  Pb65  1  -0.01097021  0.00796310  0.24672040  1
  Pb  Pb66  1  0.00006882  -0.00224671  0.49669494  1
  Pb  Pb67  1  -0.00532919  0.00848510  0.75300831  1
  Pb  Pb68  1  -0.00097477  0.25584411  0.00393437  1
  Pb  Pb69  1  -0.00218233  0.24984990  0.23342341  1
  Pb  Pb70  1  -0.00935099  0.26044960  0.49495989  1
  Pb  Pb71  1  -0.01148810  0.25139618  0.76216842  1
  Pb  Pb72  1  -0.00317716  0.49465178  0.00902945  1
  Pb  Pb73  1  -0.01307713  0.49040217  0.24627486  1
  Pb  Pb74  1  0.00065669  0.49896981  0.48577763  1
  Pb  Pb75  1  -0.00107236  0.48160282  0.76118202  1
  Pb  Pb76  1  -0.01224448  0.75026005  0.00893456  1
  Pb  Pb77  1  -0.00807506  0.74490741  0.25250237  1
  Pb  Pb78  1  0.00020091  0.74439077  0.49231931  1
  Pb  Pb79  1  0.00383360  0.75235748  0.74573026  1
  Pb  Pb80  1  0.25119247  -0.00017158  -0.00506529  1
  Pb  Pb81  1  0.25097352  -0.00044823  0.24677058  1
  Pb  Pb82  1  0.25231739  -0.00975552  0.51282593  1
  Pb  Pb83  1  0.24603328  -0.00692960  0.75184808  1
  Pb  Pb84  1  0.24283746  0.24854569  0.00526021  1
  Pb  Pb85  1  0.24525138  0.25152201  0.24428204  1
  Pb  Pb86  1  0.25332393  0.25431794  0.50018442  1
  Pb  Pb87  1  0.23884335  0.25449021  0.75656580  1
  Pb  Pb88  1  0.24761156  0.49993695  0.00314598  1
  Pb  Pb89  1  0.23823736  0.50310809  0.25889538  1
  Pb  Pb90  1  0.24429741  0.50130147  0.49919033  1
  Pb  Pb91  1  0.24160546  0.49639554  0.75025749  1
  Pb  Pb92  1  0.25526110  0.76074730  -0.00485638  1
  Pb  Pb93  1  0.24579105  0.74566656  0.25515537  1
  Pb  Pb94  1  0.24437834  0.75436071  0.51101505  1
  Pb  Pb95  1  0.24302789  0.75827503  0.74738211  1
  Pb  Pb96  1  0.49433825  -0.01077116  -0.00715833  1
  Pb  Pb97  1  0.50880343  -0.00114317  0.25425095  1
  Pb  Pb98  1  0.50426822  -0.01060142  0.50971826  1
  Pb  Pb99  1  0.50015842  -0.00823689  0.75326331  1
  Pb  Pb100  1  0.50110564  0.25040353  0.00004460  1
  Pb  Pb101  1  0.50240183  0.24133553  0.24887495  1
  Pb  Pb102  1  0.49338763  0.25412002  0.50254857  1
  Pb  Pb103  1  0.50705858  0.25606186  0.75625713  1
  Pb  Pb104  1  0.51009415  0.50645808  0.00062648  1
  Pb  Pb105  1  0.50734006  0.50517431  0.24785273  1
  Pb  Pb106  1  0.49369912  0.49582276  0.50224291  1
  Pb  Pb107  1  0.51028945  0.50196104  0.75654701  1
  Pb  Pb108  1  0.50673909  0.75123495  -0.00795668  1
  Pb  Pb109  1  0.51065179  0.75442291  0.25542407  1
  Pb  Pb110  1  0.50623044  0.75954929  0.50853344  1
  Pb  Pb111  1  0.50352056  0.75297667  0.75004379  1
  Pb  Pb112  1  0.75879200  -0.00668200  0.00480636  1
  Pb  Pb113  1  0.75453264  0.00060304  0.25011445  1
  Pb  Pb114  1  0.74473664  -0.00233348  0.49015525  1
  Pb  Pb115  1  0.75842012  0.00906441  0.75404643  1
  Pb  Pb116  1  0.75468550  0.25722582  0.00095403  1
  Pb  Pb117  1  0.75948384  0.25120095  0.24068174  1
  Pb  Pb118  1  0.75433184  0.24959817  0.49214857  1
  Pb  Pb119  1  0.75675738  0.25663355  0.76025751  1
  Pb  Pb120  1  0.74934182  0.49604341  0.00381101  1
  Pb  Pb121  1  0.74940450  0.50009137  0.23730051  1
  Pb  Pb122  1  0.75609425  0.49967526  0.48854551  1
  Pb  Pb123  1  0.74105665  0.49507342  0.76342646  1
  Pb  Pb124  1  0.75101933  0.74421397  0.00297349  1
  Pb  Pb125  1  0.74973494  0.74281513  0.24761591  1
  Pb  Pb126  1  0.74820998  0.75231947  0.48737858  1
  Pb  Pb127  1  0.74339568  0.74716557  0.75265609  1
  O  O128  1  0.13096164  -0.00707576  0.15645850  1
  O  O129  1  0.13330825  -0.00018441  0.41931680  1
  O  O130  1  0.12419751  0.00928278  0.66479518  1
  O  O131  1  0.13164973  0.00460932  0.90936729  1
  O  O132  1  0.13371434  0.24771281  0.15603917  1
  O  O133  1  0.13450801  0.24095585  0.40619291  1
  O  O134  1  0.12415210  0.25332807  0.67090507  1
  O  O135  1  0.12998161  0.24501559  0.91739254  1
  O  O136  1  0.13621807  0.50854951  0.16217417  1
  O  O137  1  0.13066493  0.49764565  0.41026318  1
  O  O138  1  0.12122685  0.49467021  0.66225302  1
  O  O139  1  0.12839795  0.51146375  0.92007225  1
  O  O140  1  0.13514544  0.74684669  0.16646188  1
  O  O141  1  0.13158401  0.75857142  0.41498437  1
  O  O142  1  0.12163385  0.74693036  0.66218736  1
  O  O143  1  0.12769595  0.74282839  0.91281353  1
  O  O144  1  0.37584569  0.00439527  0.16482902  1
  O  O145  1  0.37221775  0.00284718  0.41795315  1
  O  O146  1  0.37709716  0.01571244  0.66811421  1
  O  O147  1  0.37478822  0.00770899  0.90606445  1
  O  O148  1  0.37579289  0.23967902  0.16013630  1
  O  O149  1  0.37204082  0.24737977  0.41655368  1
  O  O150  1  0.37657798  0.24851676  0.67310510  1
  O  O151  1  0.37736374  0.24956185  0.91146122  1
  O  O152  1  0.37904963  0.49915295  0.15312257  1
  O  O153  1  0.37469091  0.50100485  0.41595035  1
  O  O154  1  0.37771743  0.50313744  0.66871750  1
  O  O155  1  0.37112261  0.49895340  0.90968830  1
  O  O156  1  0.37359128  0.74887929  0.15878248  1
  O  O157  1  0.37505829  0.74777874  0.41702585  1
  O  O158  1  0.37729113  0.73805976  0.66390217  1
  O  O159  1  0.37215455  0.74387800  0.90351781  1
  O  O160  1  0.61912123  0.00093549  0.16227915  1
  O  O161  1  0.61726309  0.00178527  0.41623623  1
  O  O162  1  0.62536920  0.01120312  0.66459268  1
  O  O163  1  0.62223745  0.00432869  0.90936017  1
  O  O164  1  0.61708973  0.24144166  0.15760019  1
  O  O165  1  0.61706725  0.25689542  0.41293253  1
  O  O166  1  0.62810566  0.25256546  0.67043390  1
  O  O167  1  0.61939176  0.24115347  0.91561238  1
  O  O168  1  0.61472064  0.49838260  0.15734854  1
  O  O169  1  0.61842061  0.48994775  0.41166514  1
  O  O170  1  0.63006848  0.49570706  0.67036469  1
  O  O171  1  0.62322301  0.50320139  0.91679378  1
  O  O172  1  0.61838023  0.75590978  0.16028889  1
  O  O173  1  0.61834854  0.74924676  0.41640978  1
  O  O174  1  0.63046011  0.74507497  0.66498878  1
  O  O175  1  0.62506403  0.75134613  0.91119445  1
  O  O176  1  0.87360150  0.00051043  0.16287678  1
  O  O177  1  0.87933924  0.00019201  0.41382643  1
  O  O178  1  0.87486895  0.00367767  0.66763374  1
  O  O179  1  0.87542302  -0.00912580  0.91462653  1
  O  O180  1  0.87238303  0.24649065  0.15127174  1
  O  O181  1  0.87530306  0.24745328  0.41087693  1
  O  O182  1  0.87430378  0.24761365  0.67229723  1
  O  O183  1  0.87731041  0.24759647  0.91849830  1
  O  O184  1  0.87514779  0.50104245  0.15734252  1
  O  O185  1  0.87425646  0.49690935  0.40577325  1
  O  O186  1  0.87505731  0.50080576  0.65831850  1
  O  O187  1  0.87874470  0.50929441  0.91562756  1
  O  O188  1  0.87712959  0.75124310  0.16661070  1
  O  O189  1  0.87670135  0.75249726  0.40669778  1
  O  O190  1  0.87284402  0.75507210  0.65846265  1
  O  O191  1  0.87923146  0.75069182  0.91564776  1
  O  O192  1  0.00329056  0.12223058  0.15090314  1
  O  O193  1  0.01355349  0.11999975  0.40754938  1
  O  O194  1  -0.00130747  0.12826253  0.66818742  1
  O  O195  1  0.00676283  0.12256208  0.91275106  1
  O  O196  1  0.00277015  0.37596299  0.15317320  1
  O  O197  1  0.00428880  0.37039091  0.40554551  1
  O  O198  1  0.00403267  0.37233881  0.66836290  1
  O  O199  1  0.00400868  0.37838155  0.92197142  1
  O  O200  1  0.01147811  0.62715836  0.15900852  1
  O  O201  1  0.00089996  0.62692695  0.40820940  1
  O  O202  1  -0.01140468  0.62804098  0.65875229  1
  O  O203  1  0.00339031  0.62783917  0.91559494  1
  O  O204  1  0.01538005  0.86920726  0.16281403  1
  O  O205  1  0.01003737  0.87893278  0.40932516  1
  O  O206  1  -0.00946106  0.87963885  0.66580158  1
  O  O207  1  -0.00352068  0.87356351  0.91409686  1
  O  O208  1  0.25672041  0.12027313  0.15967287  1
  O  O209  1  0.25337473  0.12285135  0.42249652  1
  O  O210  1  0.25091050  0.13188190  0.66481320  1
  O  O211  1  0.25848756  0.12802936  0.91223913  1
  O  O212  1  0.26443688  0.37252710  0.16354776  1
  O  O213  1  0.25371829  0.37284442  0.41433593  1
  O  O214  1  0.24308693  0.37510391  0.66601628  1
  O  O215  1  0.25867250  0.37399101  0.91663205  1
  O  O216  1  0.25981945  0.62427842  0.16735581  1
  O  O217  1  0.25992536  0.62608820  0.42061319  1
  O  O218  1  0.25368967  0.61952755  0.65751112  1
  O  O219  1  0.25220694  0.62449564  0.91233479  1
  O  O220  1  0.24681387  0.87321084  0.16618658  1
  O  O221  1  0.25174133  0.87665909  0.42472626  1
  O  O222  1  0.24817521  0.87737258  0.66497399  1
  O  O223  1  0.24943656  0.87426737  0.90842225  1
  O  O224  1  0.49661179  0.12147084  0.16355876  1
  O  O225  1  0.48832203  0.12726521  0.41683492  1
  O  O226  1  0.50544507  0.13346112  0.66569018  1
  O  O227  1  0.49719899  0.12463561  0.91233826  1
  O  O228  1  0.49099123  0.36800190  0.16442306  1
  O  O229  1  0.49743871  0.37357182  0.41743155  1
  O  O230  1  0.50845407  0.37526933  0.66838951  1
  O  O231  1  0.48926937  0.37523498  0.91323453  1
  O  O232  1  0.48897524  0.62616346  0.16324197  1
  O  O233  1  0.49180594  0.62233552  0.42036782  1
  O  O234  1  0.50339582  0.62070740  0.66555350  1
  O  O235  1  0.48827944  0.62316761  0.90706693  1
  O  O236  1  0.50271930  0.87754027  0.16335962  1
  O  O237  1  0.49280091  0.87595010  0.42120151  1
  O  O238  1  0.50176193  0.87604003  0.66886207  1
  O  O239  1  0.49907273  0.87638734  0.90352979  1
  O  O240  1  0.74053517  0.12126112  0.15419823  1
  O  O241  1  0.74627700  0.12581097  0.41099078  1
  O  O242  1  0.74696795  0.12941372  0.66890124  1
  O  O243  1  0.74040015  0.12289572  0.91311031  1
  O  O244  1  0.74398931  0.37269382  0.15476037  1
  O  O245  1  0.74046360  0.37137442  0.40257761  1
  O  O246  1  0.74656550  0.37345186  0.66901467  1
  O  O247  1  0.75013438  0.37595714  0.91670798  1
  O  O248  1  0.74421415  0.62778088  0.15819140  1
  O  O249  1  0.74641798  0.62243646  0.40982284  1
  O  O250  1  0.75740899  0.62415527  0.66823876  1
  O  O251  1  0.75892137  0.62909502  0.91276599  1
  O  O252  1  0.73801488  0.87715694  0.16007128  1
  O  O253  1  0.74874374  0.87729931  0.40793032  1
  O  O254  1  0.75905466  0.88124588  0.66472579  1
  O  O255  1  0.75727165  0.87173430  0.91207294  1
  O  O256  1  0.13677109  0.12153211  0.02534556  1
  O  O257  1  0.13569446  0.11720233  0.29765519  1
  O  O258  1  0.12017666  0.13235319  0.54871228  1
  O  O259  1  0.12802776  0.12971596  0.80428098  1
  O  O260  1  0.13784852  0.38106305  0.03409966  1
  O  O261  1  0.13637836  0.37554045  0.27633353  1
  O  O262  1  0.12099869  0.36994536  0.55117500  1
  O  O263  1  0.12493572  0.38367005  0.79631995  1
  O  O264  1  0.13327562  0.62932853  0.05072046  1
  O  O265  1  0.14173690  0.62904011  0.28911661  1
  O  O266  1  0.12504237  0.62577935  0.53058482  1
  O  O267  1  0.12086198  0.62314053  0.79889919  1
  O  O268  1  0.13095103  0.87019148  0.04566062  1
  O  O269  1  0.13747128  0.87953658  0.30360305  1
  O  O270  1  0.12688908  0.87857790  0.53916730  1
  O  O271  1  0.12386311  0.86988700  0.78221626  1
  O  O272  1  0.37766612  0.12072531  0.04493113  1
  O  O273  1  0.36994259  0.12124845  0.30242107  1
  O  O274  1  0.37340815  0.13386324  0.55370505  1
  O  O275  1  0.37583130  0.13100391  0.79571948  1
  O  O276  1  0.37827388  0.37608949  0.04511847  1
  O  O277  1  0.37685565  0.37571915  0.29823649  1
  O  O278  1  0.37865793  0.37068147  0.54143288  1
  O  O279  1  0.37203148  0.37720282  0.79691612  1
  O  O280  1  0.37293679  0.63186244  0.04508373  1
  O  O281  1  0.37625879  0.62799729  0.30228836  1
  O  O282  1  0.37802477  0.61823602  0.54967997  1
  O  O283  1  0.36831347  0.62239913  0.79333340  1
  O  O284  1  0.37333405  0.87858833  0.03413930  1
  O  O285  1  0.37274561  0.87619897  0.30300523  1
  O  O286  1  0.37666115  0.87990423  0.54599927  1
  O  O287  1  0.37224601  0.87737769  0.77555880  1
  O  O288  1  0.61802378  0.11917923  0.04665728  1
  O  O289  1  0.61368920  0.12450196  0.28391740  1
  O  O290  1  0.62520022  0.13016524  0.55230804  1
  O  O291  1  0.62494479  0.12711821  0.79742479  1
  O  O292  1  0.61593494  0.37299495  0.02719841  1
  O  O293  1  0.61502190  0.37252966  0.29350425  1
  O  O294  1  0.62849229  0.37408633  0.55428686  1
  O  O295  1  0.62564698  0.37884404  0.79441640  1
  O  O296  1  0.61499415  0.63104055  0.03130220  1
  O  O297  1  0.61093122  0.62669176  0.28448608  1
  O  O298  1  0.62874602  0.61808321  0.55178453  1
  O  O299  1  0.63327483  0.61834278  0.78664460  1
  O  O300  1  0.61843439  0.87474084  0.04671917  1
  O  O301  1  0.61343117  0.87441219  0.28535623  1
  O  O302  1  0.61813999  0.87753726  0.54426409  1
  O  O303  1  0.62859859  0.87228875  0.77794174  1
  O  O304  1  0.87266215  0.10814589  0.02464586  1
  O  O305  1  0.87472463  0.12018555  0.28000539  1
  O  O306  1  0.87385730  0.12869739  0.55018443  1
  O  O307  1  0.87484792  0.11946813  0.79564257  1
  O  O308  1  0.87413353  0.37972651  0.02785297  1
  O  O309  1  0.87545461  0.37124706  0.27567287  1
  O  O310  1  0.87755814  0.36393346  0.53742971  1
  O  O311  1  0.88429078  0.37335511  0.79439040  1
  O  O312  1  0.87763496  0.63656966  0.03602805  1
  O  O313  1  0.87527685  0.62650625  0.27529490  1
  O  O314  1  0.86821739  0.61825674  0.54578822  1
  O  O315  1  0.87916353  0.62483688  0.80227179  1
  O  O316  1  0.88017282  0.87870808  0.04231102  1
  O  O317  1  0.87826286  0.88242909  0.27561525  1
  O  O318  1  0.87682033  0.87647070  0.54713686  1
  O  O319  1  0.87715012  0.87360671  0.79869663  1
