# generated using pymatgen
data_VFe(PbO3)2
_symmetry_space_group_name_H-M   'P 1'
_cell_length_a   15.37528851
_cell_length_b   15.38171991
_cell_length_c   18.49487823
_cell_angle_alpha   90.03311506
_cell_angle_beta   89.98786771
_cell_angle_gamma   89.98928548
_symmetry_Int_Tables_number   1
_chemical_formula_structural   VFe(PbO3)2
_chemical_formula_sum   'V32 Fe32 Pb64 O192'
_cell_volume   4374.00785995
_cell_formula_units_Z   32
loop_
 _symmetry_equiv_pos_site_id
 _symmetry_equiv_pos_as_xyz
  1  'x, y, z'
loop_
 _atom_site_type_symbol
 _atom_site_label
 _atom_site_symmetry_multiplicity
 _atom_site_fract_x
 _atom_site_fract_y
 _atom_site_fract_z
 _atom_site_occupancy
  V  V0  1  0.12545427  0.62846510  0.38480576  1
  V  V1  1  0.87493914  0.62490422  0.64361942  1
  V  V2  1  0.87612210  0.37657630  0.14029707  1
  V  V3  1  0.62606869  0.37222809  0.13701650  1
  V  V4  1  0.12545546  0.62244191  0.89704949  1
  V  V5  1  0.62307577  0.12685046  0.88893073  1
  V  V6  1  0.37418048  0.62583566  0.64304565  1
  V  V7  1  0.12514460  0.37490333  0.63569666  1
  V  V8  1  0.87417499  0.12186806  0.63808443  1
  V  V9  1  0.87425260  0.62249208  0.88814790  1
  V  V10  1  0.37879490  0.37680994  0.38606816  1
  V  V11  1  0.62589509  0.12248351  0.38964801  1
  V  V12  1  0.62783897  0.62360785  0.13655514  1
  V  V13  1  0.62354642  0.87538999  0.64189951  1
  V  V14  1  0.37335912  0.87953572  0.88806311  1
  V  V15  1  0.87501593  0.62826609  0.38640707  1
  V  V16  1  0.62513710  0.62960266  0.39118043  1
  V  V17  1  0.87710250  0.12534824  0.88938294  1
  V  V18  1  0.87515645  0.37523430  0.63957476  1
  V  V19  1  0.12417387  0.62204211  0.63938183  1
  V  V20  1  0.87570131  0.87393141  0.13323855  1
  V  V21  1  0.87261894  0.87550988  0.39128642  1
  V  V22  1  0.62483364  0.87531796  0.13733937  1
  V  V23  1  0.12761232  0.12760109  0.89263465  1
  V  V24  1  0.37233014  0.62578830  0.89024115  1
  V  V25  1  0.37301841  0.37826662  0.63616126  1
  V  V26  1  0.37587136  0.87474402  0.13358570  1
  V  V27  1  0.12405020  0.37390373  0.89539347  1
  V  V28  1  0.62187489  0.37415064  0.64182091  1
  V  V29  1  0.37765793  0.87375864  0.39032761  1
  V  V30  1  0.13256075  0.37520171  0.14415249  1
  V  V31  1  0.37390208  0.37392434  0.89718721  1
  Fe  Fe32  1  0.37705209  0.12463188  0.39000598  1
  Fe  Fe33  1  0.12519190  0.87608170  0.12778247  1
  Fe  Fe34  1  0.87951791  0.37225093  0.88866945  1
  Fe  Fe35  1  0.37489472  0.87288913  0.63500061  1
  Fe  Fe36  1  0.87169322  0.12496437  0.14522685  1
  Fe  Fe37  1  0.12414795  0.87454013  0.89708025  1
  Fe  Fe38  1  0.62572737  0.12384230  0.13205987  1
  Fe  Fe39  1  0.62447020  0.87398303  0.38705574  1
  Fe  Fe40  1  0.87071460  0.37744447  0.38310964  1
  Fe  Fe41  1  0.87312157  0.62649487  0.13513253  1
  Fe  Fe42  1  0.62868668  0.12611575  0.63611941  1
  Fe  Fe43  1  0.37313693  0.12606360  0.88944718  1
  Fe  Fe44  1  0.37873252  0.12455170  0.13349775  1
  Fe  Fe45  1  0.37634303  0.12700793  0.63077697  1
  Fe  Fe46  1  0.37940344  0.37576221  0.13333236  1
  Fe  Fe47  1  0.87311089  0.12362870  0.37763054  1
  Fe  Fe48  1  0.12131496  0.62485816  0.13335830  1
  Fe  Fe49  1  0.37530986  0.62636956  0.37990063  1
  Fe  Fe50  1  0.12485250  0.12332294  0.38175256  1
  Fe  Fe51  1  0.12506138  0.87146625  0.38641836  1
  Fe  Fe52  1  0.62246064  0.62238896  0.87964232  1
  Fe  Fe53  1  0.12537766  0.87457882  0.63369537  1
  Fe  Fe54  1  0.62736383  0.37406411  0.88674614  1
  Fe  Fe55  1  0.62449691  0.87471389  0.88519420  1
  Fe  Fe56  1  0.87549766  0.87330278  0.64224737  1
  Fe  Fe57  1  0.87556268  0.87648378  0.88341775  1
  Fe  Fe58  1  0.62600395  0.62319157  0.64730417  1
  Fe  Fe59  1  0.12491876  0.37764997  0.37665248  1
  Fe  Fe60  1  0.12490182  0.12496628  0.14056157  1
  Fe  Fe61  1  0.12228159  0.12788979  0.63011882  1
  Fe  Fe62  1  0.37670886  0.62636169  0.13996672  1
  Fe  Fe63  1  0.62390567  0.37602071  0.38382177  1
  Pb  Pb64  1  0.00337743  -0.00058251  0.00225341  1
  Pb  Pb65  1  0.00633643  0.00922969  0.24871278  1
  Pb  Pb66  1  0.00862527  0.00292596  0.49583154  1
  Pb  Pb67  1  0.00964025  -0.00926618  0.74966923  1
  Pb  Pb68  1  -0.00058826  0.23644148  0.01028960  1
  Pb  Pb69  1  0.00445526  0.25128838  0.25277761  1
  Pb  Pb70  1  0.00086609  0.24765506  0.48513822  1
  Pb  Pb71  1  -0.00463471  0.25403047  0.74827772  1
  Pb  Pb72  1  -0.00010285  0.50733334  0.00706844  1
  Pb  Pb73  1  -0.00209831  0.49510430  0.24973751  1
  Pb  Pb74  1  -0.00125525  0.50017103  0.49102880  1
  Pb  Pb75  1  -0.00443178  0.49634758  0.75267134  1
  Pb  Pb76  1  -0.00150839  0.74441167  0.00208760  1
  Pb  Pb77  1  0.00637734  0.75431776  0.24383837  1
  Pb  Pb78  1  -0.00189254  0.76134821  0.50615571  1
  Pb  Pb79  1  0.00537868  0.75960053  0.75569449  1
  Pb  Pb80  1  0.24048173  0.00336373  0.00610890  1
  Pb  Pb81  1  0.24097688  0.00231111  0.24931789  1
  Pb  Pb82  1  0.24535426  0.00121880  0.49638608  1
  Pb  Pb83  1  0.24993764  0.00308803  0.74019382  1
  Pb  Pb84  1  0.25181136  0.24708856  0.00852637  1
  Pb  Pb85  1  0.25815805  0.23630469  0.25069935  1
  Pb  Pb86  1  0.24404223  0.24176786  0.49204272  1
  Pb  Pb87  1  0.25312985  0.24215070  0.74608325  1
  Pb  Pb88  1  0.25651697  0.50252921  0.01003110  1
  Pb  Pb89  1  0.25691997  0.50792773  0.24579632  1
  Pb  Pb90  1  0.25223711  0.49979115  0.49073915  1
  Pb  Pb91  1  0.24958523  0.49813956  0.75080974  1
  Pb  Pb92  1  0.24773204  0.74540214  0.00484080  1
  Pb  Pb93  1  0.24383900  0.75449755  0.24488528  1
  Pb  Pb94  1  0.25142649  0.75961948  0.50220015  1
  Pb  Pb95  1  0.24301478  0.76135304  0.75383196  1
  Pb  Pb96  1  0.50068616  0.00951925  -0.00025084  1
  Pb  Pb97  1  0.49676831  0.00337621  0.24905707  1
  Pb  Pb98  1  0.49732589  0.00628002  0.50440536  1
  Pb  Pb99  1  0.49374624  0.00582745  0.74593826  1
  Pb  Pb100  1  0.49491840  0.24769924  0.00355891  1
  Pb  Pb101  1  0.49474986  0.24333648  0.24937862  1
  Pb  Pb102  1  0.50028473  0.24304414  0.50128220  1
  Pb  Pb103  1  0.49376905  0.24388652  0.75091914  1
  Pb  Pb104  1  0.49311070  0.50130115  0.00138875  1
  Pb  Pb105  1  0.50052810  0.50222176  0.24860140  1
  Pb  Pb106  1  0.50694268  0.50901967  0.50130882  1
  Pb  Pb107  1  0.50714269  0.49679128  0.75617666  1
  Pb  Pb108  1  0.49630823  0.74610608  -0.00438364  1
  Pb  Pb109  1  0.50126889  0.75389818  0.25034903  1
  Pb  Pb110  1  0.49585323  0.75273150  0.50328679  1
  Pb  Pb111  1  0.50952340  0.75055103  0.75435262  1
  Pb  Pb112  1  0.75042558  0.00669456  0.00036194  1
  Pb  Pb113  1  0.75021948  0.00516675  0.24950944  1
  Pb  Pb114  1  0.74863227  0.00224608  0.50170273  1
  Pb  Pb115  1  0.75052383  -0.00739311  0.75308898  1
  Pb  Pb116  1  0.75298537  0.24075349  0.00303158  1
  Pb  Pb117  1  0.75203518  0.25395677  0.25172880  1
  Pb  Pb118  1  0.74999747  0.25112837  0.49326446  1
  Pb  Pb119  1  0.75062855  0.25864226  0.75300951  1
  Pb  Pb120  1  0.74811441  0.49598883  -0.00572813  1
  Pb  Pb121  1  0.74824927  0.49217931  0.25368632  1
  Pb  Pb122  1  0.74431409  0.50619207  0.50113839  1
  Pb  Pb123  1  0.74679600  0.49320330  0.75600979  1
  Pb  Pb124  1  0.75002607  0.75098050  -0.00834567  1
  Pb  Pb125  1  0.74369273  0.75738991  0.25012691  1
  Pb  Pb126  1  0.75323734  0.75297619  0.50700478  1
  Pb  Pb127  1  0.74918127  0.75849915  0.75677324  1
  O  O128  1  0.12614996  -0.00396938  0.16280145  1
  O  O129  1  0.12473290  -0.00406375  0.41134931  1
  O  O130  1  0.12279689  0.00259011  0.66140248  1
  O  O131  1  0.12572368  0.00877901  0.91415298  1
  O  O132  1  0.12156123  0.25758272  0.16525406  1
  O  O133  1  0.12546985  0.25271847  0.40550418  1
  O  O134  1  0.12267274  0.25596847  0.66163291  1
  O  O135  1  0.12493082  0.24681141  0.92088046  1
  O  O136  1  0.11880933  0.49365532  0.16200009  1
  O  O137  1  0.12418887  0.50818338  0.40921191  1
  O  O138  1  0.12496555  0.49818900  0.66961842  1
  O  O139  1  0.12617663  0.50098159  0.91949490  1
  O  O140  1  0.12520612  0.75334514  0.15994941  1
  O  O141  1  0.12328585  0.74249115  0.41372838  1
  O  O142  1  0.12488457  0.74143013  0.66689834  1
  O  O143  1  0.12781630  0.74163484  0.91591719  1
  O  O144  1  0.38198444  -0.00888576  0.16015415  1
  O  O145  1  0.37800469  -0.00779169  0.41179570  1
  O  O146  1  0.37704112  0.00006095  0.65957557  1
  O  O147  1  0.37639005  -0.00424971  0.90811087  1
  O  O148  1  0.37997905  0.25230935  0.16337237  1
  O  O149  1  0.37760240  0.26007217  0.41144304  1
  O  O150  1  0.37635855  0.25808024  0.66270402  1
  O  O151  1  0.37213422  0.25518091  0.91731527  1
  O  O152  1  0.37959870  0.49906140  0.16578623  1
  O  O153  1  0.37655878  0.49863512  0.41203750  1
  O  O154  1  0.37376971  0.49870415  0.67084267  1
  O  O155  1  0.37000080  0.49791660  0.91781772  1
  O  O156  1  0.37989853  0.75775049  0.16092581  1
  O  O157  1  0.37716791  0.75123892  0.41364343  1
  O  O158  1  0.37286250  0.74049367  0.66562784  1
  O  O159  1  0.37237017  0.74922174  0.91424904  1
  O  O160  1  0.62292433  -0.00884143  0.15889797  1
  O  O161  1  0.62488438  0.00243598  0.41526899  1
  O  O162  1  0.62631054  -0.00535586  0.66339342  1
  O  O163  1  0.62578387  0.00702051  0.91098669  1
  O  O164  1  0.62847293  0.25700610  0.15498072  1
  O  O165  1  0.62571329  0.24355071  0.41001765  1
  O  O166  1  0.62790136  0.25758447  0.66344447  1
  O  O167  1  0.62647511  0.24417717  0.91358652  1
  O  O168  1  0.62786342  0.50541978  0.15936844  1
  O  O169  1  0.62526572  0.50896391  0.41550176  1
  O  O170  1  0.62533247  0.49197981  0.66908247  1
  O  O171  1  0.62470585  0.50019431  0.91421562  1
  O  O172  1  0.62471121  0.75029750  0.16226047  1
  O  O173  1  0.62562159  0.74535890  0.41828787  1
  O  O174  1  0.62487900  0.75343380  0.66604463  1
  O  O175  1  0.62400122  0.74623658  0.91089895  1
  O  O176  1  0.86869147  -0.01225742  0.16243950  1
  O  O177  1  0.87147958  -0.00777980  0.41019042  1
  O  O178  1  0.87381911  0.00625557  0.66124101  1
  O  O179  1  0.87584119  0.00882895  0.91212664  1
  O  O180  1  0.86744817  0.25947378  0.16459062  1
  O  O181  1  0.86988783  0.24929248  0.40786014  1
  O  O182  1  0.87435174  0.25169267  0.66427174  1
  O  O183  1  0.87790596  0.24205855  0.91716928  1
  O  O184  1  0.87050173  0.49587198  0.16195506  1
  O  O185  1  0.87228355  0.50922934  0.41399320  1
  O  O186  1  0.87728311  0.49906332  0.66949839  1
  O  O187  1  0.88133444  0.50484113  0.91367276  1
  O  O188  1  0.86913149  0.75892384  0.16230348  1
  O  O189  1  0.87235036  0.74899939  0.41899078  1
  O  O190  1  0.87688198  0.73987411  0.66694246  1
  O  O191  1  0.87838473  0.74153397  0.90945327  1
  O  O192  1  -0.00211031  0.12582173  0.16511314  1
  O  O193  1  -0.00296935  0.12252766  0.40617154  1
  O  O194  1  -0.00907610  0.12953962  0.66207280  1
  O  O195  1  0.00106887  0.12609928  0.91521079  1
  O  O196  1  -0.00749211  0.37522422  0.16116470  1
  O  O197  1  -0.00151503  0.38019017  0.40966063  1
  O  O198  1  0.00037863  0.37672858  0.66523079  1
  O  O199  1  0.00604293  0.37327833  0.92117444  1
  O  O200  1  -0.00323661  0.62672207  0.16588139  1
  O  O201  1  0.00120816  0.62571199  0.41033629  1
  O  O202  1  -0.00143885  0.61877571  0.66799973  1
  O  O203  1  0.00307488  0.62330891  0.91481146  1
  O  O204  1  -0.00753311  0.87336365  0.14880828  1
  O  O205  1  -0.00828376  0.86963489  0.41261248  1
  O  O206  1  0.00150133  0.87180159  0.66731124  1
  O  O207  1  -0.00258547  0.87635989  0.91631667  1
  O  O208  1  0.25379508  0.12491225  0.16154010  1
  O  O209  1  0.25173966  0.12437597  0.41021065  1
  O  O210  1  0.24983724  0.12973474  0.65907563  1
  O  O211  1  0.24496403  0.12774904  0.91434354  1
  O  O212  1  0.24835251  0.37704197  0.15934941  1
  O  O213  1  0.25656145  0.38000008  0.40732281  1
  O  O214  1  0.24952146  0.37718463  0.66442579  1
  O  O215  1  0.24783628  0.37428893  0.92349291  1
  O  O216  1  0.24771881  0.62354451  0.16091520  1
  O  O217  1  0.24437151  0.62524678  0.40666406  1
  O  O218  1  0.25156206  0.61847864  0.66716574  1
  O  O219  1  0.24849324  0.62228966  0.92002897  1
  O  O220  1  0.25903922  0.87448076  0.15324596  1
  O  O221  1  0.25689181  0.87073220  0.41183702  1
  O  O222  1  0.24955098  0.87159421  0.66561010  1
  O  O223  1  0.25854354  0.87375579  0.91624524  1
  O  O224  1  0.50371596  0.12341308  0.16620037  1
  O  O225  1  0.50618146  0.12411463  0.41511829  1
  O  O226  1  0.50278846  0.12888537  0.66567585  1
  O  O227  1  0.50425852  0.12696379  0.91037716  1
  O  O228  1  0.51051112  0.38080197  0.15921526  1
  O  O229  1  0.49684856  0.37896082  0.41388684  1
  O  O230  1  0.50208383  0.37700024  0.66150859  1
  O  O231  1  0.49268024  0.37540445  0.91301409  1
  O  O232  1  0.51087631  0.62741940  0.16351217  1
  O  O233  1  0.50507998  0.62640818  0.41298541  1
  O  O234  1  0.49069580  0.62013387  0.66688190  1
  O  O235  1  0.49347255  0.62179615  0.91041984  1
  O  O236  1  0.50296788  0.87160546  0.16187672  1
  O  O237  1  0.49707527  0.87125821  0.41666073  1
  O  O238  1  0.50450398  0.87221181  0.66360954  1
  O  O239  1  0.49246043  0.87203359  0.91236102  1
  O  O240  1  0.74471948  0.12272351  0.16823571  1
  O  O241  1  0.74535235  0.12074957  0.41247787  1
  O  O242  1  0.75678947  0.12861548  0.66713362  1
  O  O243  1  0.75237204  0.12603653  0.90999995  1
  O  O244  1  0.74585542  0.38031614  0.16346928  1
  O  O245  1  0.74610025  0.37893862  0.41816790  1
  O  O246  1  0.74941546  0.37674978  0.66540640  1
  O  O247  1  0.75439298  0.37382946  0.91609611  1
  O  O248  1  0.74346328  0.62913867  0.16327965  1
  O  O249  1  0.74744424  0.62771485  0.41552409  1
  O  O250  1  0.75856393  0.61921654  0.66649002  1
  O  O251  1  0.75638928  0.62216788  0.90368261  1
  O  O252  1  0.74408718  0.87213927  0.16011112  1
  O  O253  1  0.75308520  0.87078631  0.41853787  1
  O  O254  1  0.74565169  0.87293909  0.66636117  1
  O  O255  1  0.75111470  0.87549567  0.91415528  1
  O  O256  1  0.12381457  0.12369754  0.03856444  1
  O  O257  1  0.12730542  0.11868163  0.27899832  1
  O  O258  1  0.12266972  0.12537953  0.53000227  1
  O  O259  1  0.12532968  0.13110072  0.80157936  1
  O  O260  1  0.12523615  0.37240234  0.05264651  1
  O  O261  1  0.11687216  0.37930059  0.27701880  1
  O  O262  1  0.12551655  0.37919970  0.54458042  1
  O  O263  1  0.12681099  0.37175554  0.80465016  1
  O  O264  1  0.11843257  0.62499914  0.03268686  1
  O  O265  1  0.12282042  0.63162251  0.29323489  1
  O  O266  1  0.12469922  0.62252102  0.54954601  1
  O  O267  1  0.12740755  0.62036018  0.80604458  1
  O  O268  1  0.13008250  0.88243486  0.02573279  1
  O  O269  1  0.12837623  0.86736244  0.28595438  1
  O  O270  1  0.12381281  0.86861959  0.53263935  1
  O  O271  1  0.12313364  0.87106284  0.79463581  1
  O  O272  1  0.38438796  0.12736188  0.03133158  1
  O  O273  1  0.38250170  0.13039748  0.28875706  1
  O  O274  1  0.38464759  0.12923513  0.52939050  1
  O  O275  1  0.37591019  0.13438221  0.78937942  1
  O  O276  1  0.37732194  0.37759549  0.03298729  1
  O  O277  1  0.38192708  0.37699480  0.29475496  1
  O  O278  1  0.37234635  0.38228471  0.54533125  1
  O  O279  1  0.36830650  0.37590516  0.80624250  1
  O  O280  1  0.37756980  0.62186918  0.03834494  1
  O  O281  1  0.37841071  0.62311411  0.28019195  1
  O  O282  1  0.37286300  0.62276640  0.55150215  1
  O  O283  1  0.36718558  0.62325288  0.79979031  1
  O  O284  1  0.38102488  0.87473005  0.04255302  1
  O  O285  1  0.37990648  0.87219533  0.29892437  1
  O  O286  1  0.37390943  0.86306297  0.53577469  1
  O  O287  1  0.37133881  0.87357814  0.79644713  1
  O  O288  1  0.62789403  0.12031615  0.03162766  1
  O  O289  1  0.62445540  0.11966321  0.29827119  1
  O  O290  1  0.62620251  0.12375871  0.53681628  1
  O  O291  1  0.62484985  0.12767864  0.79749091  1
  O  O292  1  0.62887819  0.37790294  0.04557477  1
  O  O293  1  0.62924746  0.38048096  0.28446436  1
  O  O294  1  0.62411294  0.37774755  0.55052345  1
  O  O295  1  0.62833686  0.37631673  0.78658668  1
  O  O296  1  0.62706484  0.62545549  0.04530793  1
  O  O297  1  0.62693287  0.63068545  0.29986772  1
  O  O298  1  0.62345275  0.61719418  0.54700475  1
  O  O299  1  0.61788904  0.62027517  0.77773429  1
  O  O300  1  0.62381593  0.87262738  0.04612732  1
  O  O301  1  0.62469997  0.86689455  0.28781496  1
  O  O302  1  0.62591483  0.87364965  0.55027767  1
  O  O303  1  0.62779767  0.87224565  0.78518524  1
  O  O304  1  0.86925809  0.12814172  0.04295540  1
  O  O305  1  0.86790381  0.11888090  0.27701754  1
  O  O306  1  0.87115176  0.12344566  0.54682322  1
  O  O307  1  0.87974816  0.12752132  0.79872561  1
  O  O308  1  0.87344205  0.37455653  0.04882425  1
  O  O309  1  0.86554580  0.38121346  0.28288424  1
  O  O310  1  0.87524290  0.37759285  0.54887651  1
  O  O311  1  0.87963125  0.37044022  0.78824506  1
  O  O312  1  0.88039844  0.62681573  0.03528170  1
  O  O313  1  0.87232878  0.63074291  0.29516563  1
  O  O314  1  0.87693035  0.62347864  0.55256102  1
  O  O315  1  0.88227177  0.62012434  0.79720381  1
  O  O316  1  0.86687599  0.87396719  0.04192967  1
  O  O317  1  0.86948477  0.86974525  0.30039120  1
  O  O318  1  0.87452931  0.86453907  0.54221894  1
  O  O319  1  0.87093001  0.87474819  0.78168114  1
