# generated using pymatgen
data_VFe(PbO3)2
_symmetry_space_group_name_H-M   'P 1'
_cell_length_a   15.38529629
_cell_length_b   15.37669172
_cell_length_c   18.47748184
_cell_angle_alpha   89.95852679
_cell_angle_beta   90.00445963
_cell_angle_gamma   89.99117030
_symmetry_Int_Tables_number   1
_chemical_formula_structural   VFe(PbO3)2
_chemical_formula_sum   'V32 Fe32 Pb64 O192'
_cell_volume   4371.30828195
_cell_formula_units_Z   32
loop_
 _symmetry_equiv_pos_site_id
 _symmetry_equiv_pos_as_xyz
  1  'x, y, z'
loop_
 _atom_site_type_symbol
 _atom_site_label
 _atom_site_symmetry_multiplicity
 _atom_site_fract_x
 _atom_site_fract_y
 _atom_site_fract_z
 _atom_site_occupancy
  V  V0  1  0.87684939  0.87473320  0.63717947  1
  V  V1  1  0.37694078  0.12051859  0.14548909  1
  V  V2  1  0.37372278  0.87141880  0.63610868  1
  V  V3  1  0.62574452  0.12433917  0.88912092  1
  V  V4  1  0.62288064  0.87384166  0.14502557  1
  V  V5  1  0.62465984  0.62390385  0.38894329  1
  V  V6  1  0.87831789  0.12079571  0.39400972  1
  V  V7  1  0.62443699  0.12426016  0.14605313  1
  V  V8  1  0.87728100  0.62266394  0.39000992  1
  V  V9  1  0.62518787  0.37547854  0.89310120  1
  V  V10  1  0.37543065  0.87654685  0.14173356  1
  V  V11  1  0.87967275  0.86984852  0.39223095  1
  V  V12  1  0.12462653  0.87420851  0.88502401  1
  V  V13  1  0.87793450  0.37253342  0.38969057  1
  V  V14  1  0.87142941  0.37545053  0.89081790  1
  V  V15  1  0.62374718  0.37427710  0.63244150  1
  V  V16  1  0.12643582  0.12369965  0.13649397  1
  V  V17  1  0.37776599  0.87619877  0.39072199  1
  V  V18  1  0.87359892  0.62315100  0.89314114  1
  V  V19  1  0.12670721  0.37465063  0.63952089  1
  V  V20  1  0.62569518  0.87339558  0.88565181  1
  V  V21  1  0.62464797  0.62308158  0.14243033  1
  V  V22  1  0.12623204  0.87541593  0.39634953  1
  V  V23  1  0.12442491  0.12745562  0.39132634  1
  V  V24  1  0.87683462  0.37581281  0.63942456  1
  V  V25  1  0.87256973  0.12757452  0.89126329  1
  V  V26  1  0.12076910  0.37635785  0.38729134  1
  V  V27  1  0.37591076  0.12702094  0.63701508  1
  V  V28  1  0.87508194  0.37366025  0.13736879  1
  V  V29  1  0.62473890  0.62422211  0.89020055  1
  V  V30  1  0.37668939  0.62393753  0.89075602  1
  V  V31  1  0.12804586  0.87653093  0.13661237  1
  Fe  Fe32  1  0.87177656  0.62852729  0.13361881  1
  Fe  Fe33  1  0.62876670  0.37642306  0.37820831  1
  Fe  Fe34  1  0.62494119  0.12622723  0.62940160  1
  Fe  Fe35  1  0.37772436  0.87389553  0.88086212  1
  Fe  Fe36  1  0.12576091  0.12369981  0.87841215  1
  Fe  Fe37  1  0.12219326  0.62471010  0.38733937  1
  Fe  Fe38  1  0.12604958  0.62635300  0.89460202  1
  Fe  Fe39  1  0.37446315  0.62128700  0.62901692  1
  Fe  Fe40  1  0.87204846  0.87437588  0.88513132  1
  Fe  Fe41  1  0.12527541  0.62712023  0.12703111  1
  Fe  Fe42  1  0.63115163  0.87475339  0.39698795  1
  Fe  Fe43  1  0.37836717  0.12514914  0.88329328  1
  Fe  Fe44  1  0.37449296  0.37367191  0.13748273  1
  Fe  Fe45  1  0.12384300  0.37501995  0.89010527  1
  Fe  Fe46  1  0.12468917  0.37199703  0.12898364  1
  Fe  Fe47  1  0.62543352  0.12619273  0.38901137  1
  Fe  Fe48  1  0.87537542  0.62230080  0.63455305  1
  Fe  Fe49  1  0.62470376  0.62471500  0.63249373  1
  Fe  Fe50  1  0.62416103  0.87605076  0.62627417  1
  Fe  Fe51  1  0.37860268  0.37389566  0.88878340  1
  Fe  Fe52  1  0.37453802  0.37440816  0.62916134  1
  Fe  Fe53  1  0.87478822  0.12797572  0.63418574  1
  Fe  Fe54  1  0.62426506  0.37333222  0.14720208  1
  Fe  Fe55  1  0.12610127  0.87621725  0.63495839  1
  Fe  Fe56  1  0.12444138  0.12458620  0.64610341  1
  Fe  Fe57  1  0.37210968  0.37426749  0.38567616  1
  Fe  Fe58  1  0.37697907  0.62953603  0.14001182  1
  Fe  Fe59  1  0.37201420  0.62876241  0.38795233  1
  Fe  Fe60  1  0.37038951  0.12219242  0.38373115  1
  Fe  Fe61  1  0.87483325  0.87725360  0.13453188  1
  Fe  Fe62  1  0.87370918  0.12189773  0.13456223  1
  Fe  Fe63  1  0.12390161  0.62470471  0.63483446  1
  Pb  Pb64  1  -0.01042656  -0.00230017  -0.00242430  1
  Pb  Pb65  1  -0.00305982  -0.00173087  0.24725355  1
  Pb  Pb66  1  0.00633329  0.00493172  0.51088466  1
  Pb  Pb67  1  0.00135425  0.00285465  0.74704334  1
  Pb  Pb68  1  0.00454971  0.24997469  -0.00291196  1
  Pb  Pb69  1  -0.00140044  0.24908609  0.24568532  1
  Pb  Pb70  1  0.00121606  0.24238717  0.50798901  1
  Pb  Pb71  1  0.00851171  0.25202673  0.75413443  1
  Pb  Pb72  1  0.00814270  0.50046457  0.00252870  1
  Pb  Pb73  1  0.00903224  0.50763104  0.24117034  1
  Pb  Pb74  1  0.00124395  0.50743667  0.50318369  1
  Pb  Pb75  1  0.01263501  0.50160207  0.75672381  1
  Pb  Pb76  1  -0.00200839  0.74780281  -0.00018818  1
  Pb  Pb77  1  0.00401098  0.74391752  0.24485823  1
  Pb  Pb78  1  0.00573511  0.74621363  0.50714390  1
  Pb  Pb79  1  0.00258761  0.74487747  0.74783025  1
  Pb  Pb80  1  0.25130573  0.00083655  -0.01071110  1
  Pb  Pb81  1  0.25345070  0.00224043  0.25325759  1
  Pb  Pb82  1  0.23817272  0.00110853  0.50717070  1
  Pb  Pb83  1  0.25561701  0.00210240  0.74983455  1
  Pb  Pb84  1  0.25216455  0.25189139  -0.00833830  1
  Pb  Pb85  1  0.25717682  0.25358616  0.25082065  1
  Pb  Pb86  1  0.25347796  0.25212150  0.49901452  1
  Pb  Pb87  1  0.25423065  0.24956847  0.75351324  1
  Pb  Pb88  1  0.24872976  0.49016438  0.00046224  1
  Pb  Pb89  1  0.24940181  0.50019105  0.23973986  1
  Pb  Pb90  1  0.25890337  0.50348130  0.49768132  1
  Pb  Pb91  1  0.24809010  0.49623152  0.74929398  1
  Pb  Pb92  1  0.25444045  0.74210996  0.00150879  1
  Pb  Pb93  1  0.24844379  0.73525922  0.25329232  1
  Pb  Pb94  1  0.24735511  0.73960467  0.50267477  1
  Pb  Pb95  1  0.24241105  0.73906336  0.74765051  1
  Pb  Pb96  1  0.49890859  -0.00135098  -0.00397156  1
  Pb  Pb97  1  0.51151600  0.00163157  0.26290814  1
  Pb  Pb98  1  0.50710766  0.00424631  0.49687977  1
  Pb  Pb99  1  0.49592764  0.00055412  0.74470125  1
  Pb  Pb100  1  0.49700915  0.25883313  0.00670924  1
  Pb  Pb101  1  0.49145022  0.25203064  0.25654544  1
  Pb  Pb102  1  0.49992477  0.25241397  0.48674061  1
  Pb  Pb103  1  0.48911196  0.25139861  0.75109805  1
  Pb  Pb104  1  0.49423990  0.49392976  0.00997481  1
  Pb  Pb105  1  0.48475132  0.49104280  0.25325679  1
  Pb  Pb106  1  0.49219295  0.49691963  0.49292849  1
  Pb  Pb107  1  0.49121712  0.49646690  0.74336017  1
  Pb  Pb108  1  0.49701684  0.74368838  0.00193201  1
  Pb  Pb109  1  0.49605090  0.74899208  0.25794730  1
  Pb  Pb110  1  0.50851490  0.74591119  0.50235165  1
  Pb  Pb111  1  0.50022619  0.75165356  0.74040781  1
  Pb  Pb112  1  0.75588404  -0.00061022  0.00384510  1
  Pb  Pb113  1  0.74338134  -0.00142444  0.25807521  1
  Pb  Pb114  1  0.74566946  0.00495988  0.50376948  1
  Pb  Pb115  1  0.75016974  -0.00367181  0.74225956  1
  Pb  Pb116  1  0.74236028  0.25340096  0.00714048  1
  Pb  Pb117  1  0.74340641  0.24601482  0.25468176  1
  Pb  Pb118  1  0.74829285  0.24638680  0.49935731  1
  Pb  Pb119  1  0.74762390  0.24742269  0.74499345  1
  Pb  Pb120  1  0.74773173  0.50065083  0.00599607  1
  Pb  Pb121  1  0.74924287  0.49467791  0.25051754  1
  Pb  Pb122  1  0.75170097  0.50741358  0.50146244  1
  Pb  Pb123  1  0.74875505  0.50241485  0.74569078  1
  Pb  Pb124  1  0.75633651  0.75062307  0.00309887  1
  Pb  Pb125  1  0.74924422  0.75660766  0.25190594  1
  Pb  Pb126  1  0.74753192  0.74238684  0.50596520  1
  Pb  Pb127  1  0.75231703  0.75525918  0.74445077  1
  O  O128  1  0.12692119  0.00010342  0.16600947  1
  O  O129  1  0.11943060  -0.00026072  0.41826908  1
  O  O130  1  0.12541176  -0.00252368  0.66897845  1
  O  O131  1  0.12268234  -0.00599065  0.90817951  1
  O  O132  1  0.12412119  0.24035469  0.15811597  1
  O  O133  1  0.12067425  0.25122335  0.41581520  1
  O  O134  1  0.12246105  0.25786921  0.66443273  1
  O  O135  1  0.12008190  0.24643305  0.91180769  1
  O  O136  1  0.12217788  0.49950509  0.15380040  1
  O  O137  1  0.11787469  0.49255762  0.40710311  1
  O  O138  1  0.12302531  0.49338896  0.66498903  1
  O  O139  1  0.12206060  0.50132659  0.91701253  1
  O  O140  1  0.12656875  0.75999673  0.15802501  1
  O  O141  1  0.11733043  0.75833409  0.41535802  1
  O  O142  1  0.12527140  0.75195590  0.66506557  1
  O  O143  1  0.12383499  0.75832257  0.91444264  1
  O  O144  1  0.37539562  -0.00311975  0.17425119  1
  O  O145  1  0.36834957  -0.00811683  0.41642547  1
  O  O146  1  0.37692432  0.00450470  0.65936461  1
  O  O147  1  0.38050854  -0.00158821  0.91394278  1
  O  O148  1  0.37498285  0.24187722  0.16505984  1
  O  O149  1  0.36905502  0.24813092  0.41229920  1
  O  O150  1  0.37526679  0.24801082  0.66065175  1
  O  O151  1  0.38082798  0.24770913  0.91677567  1
  O  O152  1  0.37701057  0.50270801  0.16235863  1
  O  O153  1  0.37200763  0.50127760  0.40861113  1
  O  O154  1  0.37449453  0.49630918  0.66158929  1
  O  O155  1  0.38103496  0.50764393  0.91637721  1
  O  O156  1  0.37766690  0.75889646  0.16924428  1
  O  O157  1  0.37133796  0.76039308  0.41680839  1
  O  O158  1  0.37551352  0.75441581  0.65500756  1
  O  O159  1  0.38127042  0.74557012  0.91274294  1
  O  O160  1  0.62284165  -0.00238203  0.16980368  1
  O  O161  1  0.63060974  0.00102576  0.41757967  1
  O  O162  1  0.62430645  0.00026789  0.65607898  1
  O  O163  1  0.62667015  0.00315888  0.90981058  1
  O  O164  1  0.62559297  0.24077356  0.16719999  1
  O  O165  1  0.63117366  0.25295594  0.40811067  1
  O  O166  1  0.62785059  0.25812714  0.65916745  1
  O  O167  1  0.62742877  0.24822892  0.91657418  1
  O  O168  1  0.62763992  0.50719043  0.16290142  1
  O  O169  1  0.63162902  0.50578712  0.40851222  1
  O  O170  1  0.62726734  0.49068586  0.66108375  1
  O  O171  1  0.62593792  0.50405355  0.91806471  1
  O  O172  1  0.62487517  0.75396866  0.16777612  1
  O  O173  1  0.63123586  0.74363270  0.41461234  1
  O  O174  1  0.62372102  0.75266692  0.65958966  1
  O  O175  1  0.62562779  0.74443672  0.91136729  1
  O  O176  1  0.87521332  -0.00065445  0.17004704  1
  O  O177  1  0.88026528  0.00489981  0.41290236  1
  O  O178  1  0.87352372  -0.00440801  0.65971684  1
  O  O179  1  0.86784098  0.00607658  0.91175226  1
  O  O180  1  0.87515535  0.25090549  0.16300719  1
  O  O181  1  0.88029092  0.25314933  0.41437286  1
  O  O182  1  0.87489453  0.25978430  0.66661999  1
  O  O183  1  0.86825562  0.24769042  0.91585016  1
  O  O184  1  0.87447613  0.49386647  0.16029989  1
  O  O185  1  0.87994556  0.49568211  0.41248543  1
  O  O186  1  0.87475276  0.49124705  0.66688113  1
  O  O187  1  0.86793059  0.50249777  0.91733959  1
  O  O188  1  0.87181113  0.75408616  0.16488406  1
  O  O189  1  0.87895172  0.75289114  0.41158725  1
  O  O190  1  0.87375497  0.75410700  0.65959803  1
  O  O191  1  0.86804320  0.74357560  0.91276113  1
  O  O192  1  0.00713176  0.12061407  0.16200525  1
  O  O193  1  -0.00011359  0.12746018  0.42024293  1
  O  O194  1  -0.00414121  0.12729023  0.66864248  1
  O  O195  1  -0.00987243  0.12385163  0.90679106  1
  O  O196  1  -0.00571585  0.37075303  0.16112202  1
  O  O197  1  0.00015460  0.37244749  0.41948123  1
  O  O198  1  -0.00159821  0.37570438  0.66283547  1
  O  O199  1  -0.01089674  0.37491832  0.91584556  1
  O  O200  1  -0.00077743  0.62938034  0.15866304  1
  O  O201  1  -0.00360280  0.62563804  0.41709359  1
  O  O202  1  -0.00129507  0.62308904  0.66572108  1
  O  O203  1  -0.00983702  0.62612509  0.91177058  1
  O  O204  1  0.00908888  0.87917929  0.16019640  1
  O  O205  1  -0.00401509  0.87913162  0.42040877  1
  O  O206  1  -0.00615519  0.87490088  0.66167027  1
  O  O207  1  0.00218377  0.87459791  0.90964443  1
  O  O208  1  0.24552384  0.11976787  0.16285716  1
  O  O209  1  0.24279428  0.12197771  0.41624567  1
  O  O210  1  0.25792444  0.12719992  0.66394919  1
  O  O211  1  0.25049243  0.12248509  0.90891795  1
  O  O212  1  0.24785678  0.37207227  0.16035408  1
  O  O213  1  0.23675667  0.37264660  0.40833664  1
  O  O214  1  0.24394532  0.37367731  0.66004652  1
  O  O215  1  0.25268831  0.37638189  0.91274899  1
  O  O216  1  0.24870829  0.63037245  0.16009609  1
  O  O217  1  0.24553509  0.63058466  0.41184134  1
  O  O218  1  0.25015043  0.62280045  0.66315687  1
  O  O219  1  0.25963144  0.62757029  0.91168288  1
  O  O220  1  0.24771658  0.87964445  0.16418398  1
  O  O221  1  0.24285097  0.87667849  0.41419700  1
  O  O222  1  0.25802538  0.87980088  0.66041902  1
  O  O223  1  0.24559020  0.87502816  0.90841225  1
  O  O224  1  0.50320860  0.12025782  0.17059266  1
  O  O225  1  0.49660517  0.12181556  0.40832257  1
  O  O226  1  0.49554571  0.12843771  0.65778132  1
  O  O227  1  0.51097396  0.12484591  0.91507406  1
  O  O228  1  0.49912165  0.37173707  0.16905288  1
  O  O229  1  0.50264315  0.37718607  0.40371499  1
  O  O230  1  0.50673441  0.37410819  0.65267689  1
  O  O231  1  0.50646046  0.37685121  0.92045491  1
  O  O232  1  0.50979670  0.63069481  0.16925604  1
  O  O233  1  0.50708786  0.62763384  0.40729260  1
  O  O234  1  0.49930206  0.62313178  0.66076467  1
  O  O235  1  0.50477766  0.62514689  0.91665134  1
  O  O236  1  0.50293741  0.87713586  0.17004531  1
  O  O237  1  0.49436092  0.87564932  0.40952330  1
  O  O238  1  0.49359469  0.87780701  0.65789623  1
  O  O239  1  0.50778993  0.87390456  0.91511470  1
  O  O240  1  0.74365266  0.12035009  0.16467318  1
  O  O241  1  0.76158246  0.12783487  0.41210284  1
  O  O242  1  0.75002411  0.12916512  0.66360496  1
  O  O243  1  0.74453247  0.12614110  0.91799790  1
  O  O244  1  0.75858435  0.37212357  0.16627232  1
  O  O245  1  0.76154527  0.37616493  0.41005823  1
  O  O246  1  0.75129375  0.37540106  0.66001197  1
  O  O247  1  0.74871590  0.37575535  0.92334609  1
  O  O248  1  0.74288579  0.62912164  0.16795725  1
  O  O249  1  0.75377547  0.62477217  0.41459869  1
  O  O250  1  0.75036834  0.62138650  0.66505709  1
  O  O251  1  0.74432075  0.62363063  0.91655288  1
  O  O252  1  0.74163951  0.87761165  0.16546190  1
  O  O253  1  0.76514641  0.87779206  0.41685517  1
  O  O254  1  0.75431010  0.87477048  0.65808954  1
  O  O255  1  0.74294792  0.87403082  0.91596124  1
  O  O256  1  0.12609970  0.11913857  0.04556017  1
  O  O257  1  0.12202421  0.12649268  0.30013845  1
  O  O258  1  0.12140195  0.12044800  0.54379176  1
  O  O259  1  0.12581128  0.12956977  0.77767948  1
  O  O260  1  0.11914584  0.37212739  0.02845903  1
  O  O261  1  0.11444896  0.37024973  0.29610114  1
  O  O262  1  0.12425858  0.37634843  0.54833742  1
  O  O263  1  0.11966438  0.37976169  0.78862967  1
  O  O264  1  0.12382801  0.63429832  0.02515517  1
  O  O265  1  0.11879813  0.63078548  0.28629153  1
  O  O266  1  0.11874871  0.62778242  0.53326874  1
  O  O267  1  0.12519421  0.62719740  0.79294039  1
  O  O268  1  0.12957584  0.87980044  0.04581471  1
  O  O269  1  0.12178683  0.87715057  0.30537322  1
  O  O270  1  0.12219647  0.88154746  0.53443995  1
  O  O271  1  0.12437630  0.87112280  0.79379243  1
  O  O272  1  0.38034076  0.11489767  0.05434883  1
  O  O273  1  0.36481850  0.12426074  0.28338835  1
  O  O274  1  0.37225135  0.12722836  0.54573012  1
  O  O275  1  0.38253981  0.12966901  0.78291220  1
  O  O276  1  0.38282236  0.37517105  0.03552481  1
  O  O277  1  0.37104362  0.36960868  0.28312882  1
  O  O278  1  0.36986445  0.37752799  0.52834974  1
  O  O279  1  0.38365782  0.37147431  0.78775372  1
  O  O280  1  0.38240569  0.63697502  0.03936424  1
  O  O281  1  0.37498829  0.63674318  0.28635965  1
  O  O282  1  0.37113483  0.62140835  0.52732242  1
  O  O283  1  0.38093028  0.62178758  0.79967804  1
  O  O284  1  0.37816987  0.87816033  0.05042194  1
  O  O285  1  0.37163029  0.87542712  0.29931763  1
  O  O286  1  0.37437230  0.87605123  0.54513851  1
  O  O287  1  0.38186122  0.87916258  0.78190086  1
  O  O288  1  0.62116741  0.12204035  0.05486176  1
  O  O289  1  0.63144586  0.11587260  0.28728164  1
  O  O290  1  0.63116281  0.12815490  0.52855689  1
  O  O291  1  0.62692246  0.12885371  0.79814148  1
  O  O292  1  0.62781552  0.37010828  0.04592559  1
  O  O293  1  0.63795682  0.37588532  0.27667466  1
  O  O294  1  0.62927177  0.37581598  0.54108077  1
  O  O295  1  0.62486150  0.37568620  0.80227565  1
  O  O296  1  0.62388620  0.62784960  0.05088666  1
  O  O297  1  0.63064103  0.62804276  0.29796423  1
  O  O298  1  0.63030129  0.62670539  0.53157799  1
  O  O299  1  0.62404671  0.62042331  0.79963965  1
  O  O300  1  0.62149748  0.87497419  0.05420162  1
  O  O301  1  0.63248125  0.87898961  0.29529134  1
  O  O302  1  0.62444687  0.87069374  0.52442486  1
  O  O303  1  0.62552522  0.87309685  0.79415604  1
  O  O304  1  0.87304023  0.11505927  0.03493876  1
  O  O305  1  0.88346934  0.12604153  0.30250610  1
  O  O306  1  0.87787551  0.13284217  0.53387373  1
  O  O307  1  0.86453137  0.13028173  0.80046619  1
  O  O308  1  0.87183659  0.37276676  0.04609362  1
  O  O309  1  0.88290231  0.37177708  0.29865395  1
  O  O310  1  0.87744816  0.37585469  0.54824041  1
  O  O311  1  0.86904863  0.37578459  0.79980446  1
  O  O312  1  0.86668317  0.62979446  0.03385373  1
  O  O313  1  0.87728812  0.62421369  0.29855414  1
  O  O314  1  0.87310319  0.61789653  0.53387313  1
  O  O315  1  0.86881539  0.61994174  0.80201904  1
  O  O316  1  0.87123364  0.88185342  0.03340155  1
  O  O317  1  0.88188920  0.87495154  0.30075347  1
  O  O318  1  0.87773242  0.87508098  0.54596221  1
  O  O319  1  0.86585324  0.87383915  0.78620243  1
