# generated using pymatgen
data_VFe(PbO3)2
_symmetry_space_group_name_H-M   'P 1'
_cell_length_a   15.37875364
_cell_length_b   15.38122541
_cell_length_c   18.50251273
_cell_angle_alpha   89.96877394
_cell_angle_beta   89.96659648
_cell_angle_gamma   90.00361660
_symmetry_Int_Tables_number   1
_chemical_formula_structural   VFe(PbO3)2
_chemical_formula_sum   'V32 Fe32 Pb64 O192'
_cell_volume   4376.65837957
_cell_formula_units_Z   32
loop_
 _symmetry_equiv_pos_site_id
 _symmetry_equiv_pos_as_xyz
  1  'x, y, z'
loop_
 _atom_site_type_symbol
 _atom_site_label
 _atom_site_symmetry_multiplicity
 _atom_site_fract_x
 _atom_site_fract_y
 _atom_site_fract_z
 _atom_site_occupancy
  V  V0  1  0.87124270  0.87523740  0.14165388  1
  V  V1  1  0.62462460  0.37326975  0.64045674  1
  V  V2  1  0.62284777  0.62351730  0.63852624  1
  V  V3  1  0.37426337  0.62572321  0.38548702  1
  V  V4  1  0.62442477  0.62408329  0.89257184  1
  V  V5  1  0.87511477  0.12506079  0.63969982  1
  V  V6  1  0.12272283  0.62462690  0.38840818  1
  V  V7  1  0.37639856  0.62415336  0.89445534  1
  V  V8  1  0.62549512  0.87567018  0.13738787  1
  V  V9  1  0.37308021  0.12357945  0.38401994  1
  V  V10  1  0.87565831  0.37418718  0.63775042  1
  V  V11  1  0.87481144  0.37608378  0.14094568  1
  V  V12  1  0.87753743  0.37568058  0.89281056  1
  V  V13  1  0.37233188  0.87510987  0.88866201  1
  V  V14  1  0.62557310  0.62670404  0.14499266  1
  V  V15  1  0.12458787  0.12593570  0.88957320  1
  V  V16  1  0.87366543  0.37384154  0.38402611  1
  V  V17  1  0.87644118  0.12495624  0.14461130  1
  V  V18  1  0.13041137  0.12960858  0.63813603  1
  V  V19  1  0.62506928  0.87159235  0.89005930  1
  V  V20  1  0.87299715  0.62271997  0.89163065  1
  V  V21  1  0.11980309  0.87547943  0.14117811  1
  V  V22  1  0.37462224  0.87530674  0.63902161  1
  V  V23  1  0.62337367  0.87580025  0.63931164  1
  V  V24  1  0.62457020  0.12074564  0.13795888  1
  V  V25  1  0.62394694  0.12362820  0.38688949  1
  V  V26  1  0.37338718  0.37449817  0.63928227  1
  V  V27  1  0.62600486  0.37628604  0.89608762  1
  V  V28  1  0.37240034  0.87493107  0.13985619  1
  V  V29  1  0.12326313  0.37574594  0.13976488  1
  V  V30  1  0.62041733  0.87187323  0.38881112  1
  V  V31  1  0.12366862  0.37837841  0.89305362  1
  Fe  Fe32  1  0.62465829  0.12646630  0.64172021  1
  Fe  Fe33  1  0.37150761  0.62844553  0.13504072  1
  Fe  Fe34  1  0.62633201  0.12381272  0.88416522  1
  Fe  Fe35  1  0.37826198  0.87626931  0.38569909  1
  Fe  Fe36  1  0.12693793  0.62096750  0.63236606  1
  Fe  Fe37  1  0.87242849  0.62167512  0.62836872  1
  Fe  Fe38  1  0.37536620  0.37576706  0.13220694  1
  Fe  Fe39  1  0.12576333  0.37080688  0.63296034  1
  Fe  Fe40  1  0.37364730  0.37650452  0.89868665  1
  Fe  Fe41  1  0.37729023  0.37367938  0.37729632  1
  Fe  Fe42  1  0.62296004  0.37379090  0.37380478  1
  Fe  Fe43  1  0.87386821  0.87707233  0.39147974  1
  Fe  Fe44  1  0.37556527  0.12518771  0.89347398  1
  Fe  Fe45  1  0.12288277  0.62877818  0.13508636  1
  Fe  Fe46  1  0.12504323  0.62422677  0.88824595  1
  Fe  Fe47  1  0.87412844  0.62371367  0.38880468  1
  Fe  Fe48  1  0.12446460  0.12229614  0.14710261  1
  Fe  Fe49  1  0.87258102  0.87445095  0.63104224  1
  Fe  Fe50  1  0.37860345  0.62438060  0.63637023  1
  Fe  Fe51  1  0.62345404  0.62497631  0.37898466  1
  Fe  Fe52  1  0.87809513  0.62797402  0.14287055  1
  Fe  Fe53  1  0.87351387  0.12802309  0.88554018  1
  Fe  Fe54  1  0.12412121  0.87437076  0.88024695  1
  Fe  Fe55  1  0.62964435  0.37389899  0.14513721  1
  Fe  Fe56  1  0.12893154  0.87517861  0.38814307  1
  Fe  Fe57  1  0.87441264  0.12648786  0.38155327  1
  Fe  Fe58  1  0.12559385  0.87716079  0.63448283  1
  Fe  Fe59  1  0.37648979  0.12594506  0.63768163  1
  Fe  Fe60  1  0.12824079  0.37530771  0.38162637  1
  Fe  Fe61  1  0.12461299  0.12597312  0.37516502  1
  Fe  Fe62  1  0.37523256  0.12306968  0.13118203  1
  Fe  Fe63  1  0.87414619  0.87440506  0.88161579  1
  Pb  Pb64  1  -0.00103057  -0.00181982  -0.00600574  1
  Pb  Pb65  1  -0.00602960  -0.00488676  0.25959374  1
  Pb  Pb66  1  0.00205741  -0.00174809  0.49176322  1
  Pb  Pb67  1  -0.00325000  -0.01142129  0.74871375  1
  Pb  Pb68  1  0.00630895  0.24583752  0.00436453  1
  Pb  Pb69  1  0.00805237  0.24909546  0.25470012  1
  Pb  Pb70  1  0.00681047  0.25175385  0.49089924  1
  Pb  Pb71  1  -0.00452051  0.24455350  0.75064482  1
  Pb  Pb72  1  -0.00077865  0.51238503  0.00701641  1
  Pb  Pb73  1  0.00072718  0.50329566  0.25098757  1
  Pb  Pb74  1  0.01177109  0.49987856  0.50099272  1
  Pb  Pb75  1  0.00732606  0.50792823  0.74577214  1
  Pb  Pb76  1  0.00281489  0.74668616  -0.00350828  1
  Pb  Pb77  1  -0.00066019  0.75791679  0.25714221  1
  Pb  Pb78  1  -0.00230106  0.75906733  0.49971280  1
  Pb  Pb79  1  0.00115822  0.75204770  0.73794328  1
  Pb  Pb80  1  0.24026809  0.01594742  0.00945643  1
  Pb  Pb81  1  0.24689882  -0.00174755  0.25198682  1
  Pb  Pb82  1  0.24402288  -0.00531029  0.49577615  1
  Pb  Pb83  1  0.24566713  -0.00156693  0.74946088  1
  Pb  Pb84  1  0.25357327  0.24857776  0.00573142  1
  Pb  Pb85  1  0.24916730  0.24791889  0.24352048  1
  Pb  Pb86  1  0.24982133  0.25463403  0.49054602  1
  Pb  Pb87  1  0.26801561  0.25493353  0.76098088  1
  Pb  Pb88  1  0.25846948  0.50405332  0.00702655  1
  Pb  Pb89  1  0.25238402  0.49747670  0.24356693  1
  Pb  Pb90  1  0.24934978  0.50226979  0.49834279  1
  Pb  Pb91  1  0.24465212  0.50480988  0.75013286  1
  Pb  Pb92  1  0.24557396  0.74480893  -0.00064027  1
  Pb  Pb93  1  0.24706095  0.75764332  0.25259841  1
  Pb  Pb94  1  0.24604268  0.74767133  0.50134416  1
  Pb  Pb95  1  0.23670827  0.74386524  0.74749068  1
  Pb  Pb96  1  0.49642197  0.00333001  -0.00235001  1
  Pb  Pb97  1  0.49542258  -0.00535405  0.24986176  1
  Pb  Pb98  1  0.50008049  0.01343529  0.50519099  1
  Pb  Pb99  1  0.50016765  0.00908339  0.75314914  1
  Pb  Pb100  1  0.49367231  0.24917207  0.00270480  1
  Pb  Pb101  1  0.49517641  0.26037917  0.24387779  1
  Pb  Pb102  1  0.49839755  0.24375948  0.49888102  1
  Pb  Pb103  1  0.49636213  0.24301414  0.75826138  1
  Pb  Pb104  1  0.50193632  0.49124756  0.01274469  1
  Pb  Pb105  1  0.49624897  0.49250931  0.24598044  1
  Pb  Pb106  1  0.50035125  0.49644503  0.48821832  1
  Pb  Pb107  1  0.49361003  0.48982420  0.75405743  1
  Pb  Pb108  1  0.49467425  0.74534687  0.00412378  1
  Pb  Pb109  1  0.50067353  0.75180806  0.25054765  1
  Pb  Pb110  1  0.49333691  0.74192488  0.49961606  1
  Pb  Pb111  1  0.50036274  0.75043229  0.74997024  1
  Pb  Pb112  1  0.75266230  0.00204464  -0.00619272  1
  Pb  Pb113  1  0.75883534  -0.00265936  0.25625439  1
  Pb  Pb114  1  0.75260267  -0.00120638  0.49920612  1
  Pb  Pb115  1  0.75530383  0.00265706  0.75158910  1
  Pb  Pb116  1  0.74608357  0.25380558  0.00333275  1
  Pb  Pb117  1  0.75289976  0.24508191  0.25044282  1
  Pb  Pb118  1  0.74177917  0.24733950  0.49528033  1
  Pb  Pb119  1  0.74961027  0.24284797  0.75533201  1
  Pb  Pb120  1  0.74699605  0.49595689  0.01055295  1
  Pb  Pb121  1  0.74996784  0.51193348  0.25638816  1
  Pb  Pb122  1  0.74958106  0.50293567  0.49096113  1
  Pb  Pb123  1  0.74904038  0.49906912  0.74765892  1
  Pb  Pb124  1  0.75582940  0.74254334  0.00311928  1
  Pb  Pb125  1  0.75353422  0.74280336  0.25922908  1
  Pb  Pb126  1  0.76000965  0.74461396  0.49852973  1
  Pb  Pb127  1  0.75839483  0.75399480  0.74551580  1
  O  O128  1  0.12553607  -0.00974706  0.16717253  1
  O  O129  1  0.12923429  0.00372708  0.40904137  1
  O  O130  1  0.12382468  0.01224260  0.66440669  1
  O  O131  1  0.12513115  0.00662947  0.90966582  1
  O  O132  1  0.12065729  0.25635998  0.16211894  1
  O  O133  1  0.12712675  0.24929996  0.41042716  1
  O  O134  1  0.12038136  0.24448337  0.66555186  1
  O  O135  1  0.12353588  0.25033870  0.91846233  1
  O  O136  1  0.11929672  0.49440007  0.16082463  1
  O  O137  1  0.12876586  0.50436384  0.41120479  1
  O  O138  1  0.12638905  0.49302764  0.66606312  1
  O  O139  1  0.12170440  0.49463970  0.91473440  1
  O  O140  1  0.12384623  0.75922226  0.16517284  1
  O  O141  1  0.12838895  0.74111547  0.41383757  1
  O  O142  1  0.12709221  0.74951330  0.65777622  1
  O  O143  1  0.12506180  0.74966200  0.91100783  1
  O  O144  1  0.37605595  -0.00745765  0.16329556  1
  O  O145  1  0.38039143  0.00791596  0.41227951  1
  O  O146  1  0.37929400  -0.00620046  0.66538501  1
  O  O147  1  0.37829299  -0.00886383  0.90950951  1
  O  O148  1  0.37632576  0.24879500  0.15239509  1
  O  O149  1  0.38050436  0.24158514  0.40679403  1
  O  O150  1  0.37973129  0.25714763  0.66806189  1
  O  O151  1  0.37455553  0.25097655  0.92091085  1
  O  O152  1  0.37538057  0.50246522  0.15965576  1
  O  O153  1  0.37659535  0.50710143  0.40618576  1
  O  O154  1  0.38046428  0.49152282  0.66487317  1
  O  O155  1  0.37631300  0.50716989  0.91681043  1
  O  O156  1  0.37638150  0.75763934  0.16446155  1
  O  O157  1  0.37648351  0.74481017  0.41280888  1
  O  O158  1  0.37888973  0.75769192  0.66507513  1
  O  O159  1  0.37799126  0.74925851  0.91680928  1
  O  O160  1  0.62809818  -0.00179836  0.16685833  1
  O  O161  1  0.62243971  0.00408994  0.41301150  1
  O  O162  1  0.62375835  -0.00720396  0.66370473  1
  O  O163  1  0.62422976  -0.00800976  0.91150168  1
  O  O164  1  0.62958518  0.23690266  0.15890874  1
  O  O165  1  0.62334941  0.24385349  0.40850482  1
  O  O166  1  0.62591219  0.25865218  0.66607954  1
  O  O167  1  0.62710442  0.25879280  0.91433187  1
  O  O168  1  0.62941174  0.50972117  0.16077169  1
  O  O169  1  0.62314357  0.49881518  0.40403184  1
  O  O170  1  0.62419361  0.49505228  0.66666782  1
  O  O171  1  0.62753934  0.50099107  0.92366773  1
  O  O172  1  0.62789788  0.75575097  0.16730428  1
  O  O173  1  0.62053742  0.75618889  0.40796658  1
  O  O174  1  0.62277905  0.75148215  0.66456478  1
  O  O175  1  0.62480279  0.74619910  0.92003437  1
  O  O176  1  0.87597694  -0.00506434  0.16716572  1
  O  O177  1  0.87003880  0.00353470  0.41614635  1
  O  O178  1  0.87082678  0.00745249  0.65771119  1
  O  O179  1  0.87355133  0.00122841  0.91279360  1
  O  O180  1  0.87463956  0.25069538  0.16523932  1
  O  O181  1  0.87180433  0.25539781  0.41134507  1
  O  O182  1  0.87115479  0.25325880  0.66664962  1
  O  O183  1  0.87513463  0.25594742  0.91924223  1
  O  O184  1  0.87567790  0.49377335  0.16313981  1
  O  O185  1  0.87194639  0.49107389  0.40972456  1
  O  O186  1  0.86944102  0.49126983  0.66122178  1
  O  O187  1  0.87400796  0.50105377  0.92076829  1
  O  O188  1  0.87621743  0.76016114  0.16650803  1
  O  O189  1  0.87321537  0.75033121  0.41224054  1
  O  O190  1  0.87099023  0.74776773  0.65823671  1
  O  O191  1  0.87205773  0.74169697  0.91062658  1
  O  O192  1  -0.00569675  0.12209381  0.16643225  1
  O  O193  1  -0.00049052  0.12656518  0.40457388  1
  O  O194  1  -0.00520934  0.12932236  0.66255884  1
  O  O195  1  0.00520694  0.12826172  0.91418417  1
  O  O196  1  -0.00437630  0.37325280  0.16590042  1
  O  O197  1  -0.00657579  0.37476736  0.40853636  1
  O  O198  1  -0.00881033  0.37213551  0.66051251  1
  O  O199  1  0.00288488  0.37398690  0.92020332  1
  O  O200  1  0.00180730  0.62787122  0.17143552  1
  O  O201  1  0.00610837  0.62171438  0.40655942  1
  O  O202  1  -0.00237108  0.61986914  0.65877470  1
  O  O203  1  -0.00775801  0.62198100  0.91163859  1
  O  O204  1  -0.00004623  0.87664390  0.16406878  1
  O  O205  1  0.00239371  0.87448259  0.41392508  1
  O  O206  1  -0.00144734  0.87902037  0.65832945  1
  O  O207  1  -0.00048866  0.87602374  0.91090904  1
  O  O208  1  0.25292833  0.12104644  0.16445007  1
  O  O209  1  0.25773430  0.12633075  0.40210204  1
  O  O210  1  0.24647178  0.12793431  0.66016964  1
  O  O211  1  0.24270836  0.12676300  0.91610049  1
  O  O212  1  0.24219695  0.37592441  0.15486209  1
  O  O213  1  0.25496923  0.37448248  0.40991662  1
  O  O214  1  0.25737870  0.37149869  0.65879042  1
  O  O215  1  0.23978513  0.37552268  0.91846156  1
  O  O216  1  0.24640928  0.62797141  0.16475751  1
  O  O217  1  0.25354652  0.62486612  0.41036150  1
  O  O218  1  0.25474966  0.62191897  0.66595659  1
  O  O219  1  0.25666928  0.62597406  0.91352028  1
  O  O220  1  0.25111399  0.87472511  0.16037818  1
  O  O221  1  0.25539401  0.87441385  0.41650876  1
  O  O222  1  0.25755519  0.87913878  0.66092609  1
  O  O223  1  0.25754472  0.87055619  0.90930339  1
  O  O224  1  0.50748244  0.11683366  0.15660911  1
  O  O225  1  0.50280764  0.12461038  0.41291832  1
  O  O226  1  0.49993564  0.12637542  0.67131781  1
  O  O227  1  0.50349786  0.12488986  0.91677631  1
  O  O228  1  0.50272384  0.37597411  0.15706139  1
  O  O229  1  0.49986227  0.37326447  0.40972695  1
  O  O230  1  0.50393123  0.37492136  0.66603393  1
  O  O231  1  0.50847897  0.37998237  0.91887765  1
  O  O232  1  0.50641508  0.63278317  0.16105939  1
  O  O233  1  0.49539709  0.62695629  0.40850199  1
  O  O234  1  0.50397430  0.62301541  0.67149670  1
  O  O235  1  0.49938340  0.62518519  0.91956747  1
  O  O236  1  0.49992763  0.87553857  0.16174269  1
  O  O237  1  0.50539373  0.87899569  0.41777358  1
  O  O238  1  0.50221181  0.87423383  0.66718160  1
  O  O239  1  0.49881619  0.86926526  0.91712183  1
  O  O240  1  0.74915696  0.11903388  0.16651725  1
  O  O241  1  0.74233523  0.12603854  0.41105165  1
  O  O242  1  0.75473798  0.12925760  0.66462933  1
  O  O243  1  0.74828443  0.12723503  0.91732316  1
  O  O244  1  0.75913223  0.37231924  0.16535980  1
  O  O245  1  0.75186283  0.37186622  0.40646585  1
  O  O246  1  0.74756115  0.37450545  0.66577676  1
  O  O247  1  0.74975946  0.37878337  0.91999082  1
  O  O248  1  0.74817474  0.63145742  0.16730414  1
  O  O249  1  0.74603769  0.62492775  0.41250391  1
  O  O250  1  0.74347651  0.62116149  0.66505032  1
  O  O251  1  0.75118917  0.62268311  0.91930439  1
  O  O252  1  0.75372103  0.87760297  0.16183589  1
  O  O253  1  0.73691179  0.87926320  0.41343552  1
  O  O254  1  0.74200152  0.87443223  0.66207998  1
  O  O255  1  0.74534719  0.86990427  0.91414609  1
  O  O256  1  0.12743064  0.11921893  0.04502769  1
  O  O257  1  0.12827723  0.13084196  0.27327210  1
  O  O258  1  0.12625307  0.13013452  0.54710455  1
  O  O259  1  0.12600873  0.13137270  0.79888092  1
  O  O260  1  0.11617752  0.37391911  0.04865438  1
  O  O261  1  0.12299267  0.37366252  0.28173676  1
  O  O262  1  0.12243967  0.37500912  0.53316217  1
  O  O263  1  0.12303290  0.37326859  0.80208313  1
  O  O264  1  0.11747131  0.62990019  0.03365029  1
  O  O265  1  0.12793056  0.62544446  0.29719391  1
  O  O266  1  0.13112382  0.61282618  0.53198655  1
  O  O267  1  0.12850489  0.61785157  0.78754307  1
  O  O268  1  0.12040285  0.87624086  0.04978781  1
  O  O269  1  0.12775118  0.86789579  0.28697642  1
  O  O270  1  0.13055835  0.87942819  0.53383429  1
  O  O271  1  0.12716193  0.88196377  0.77954885  1
  O  O272  1  0.37094608  0.11566458  0.02949408  1
  O  O273  1  0.38055514  0.11981749  0.29259763  1
  O  O274  1  0.38522614  0.12880880  0.53829812  1
  O  O275  1  0.37405722  0.13386079  0.79172568  1
  O  O276  1  0.37481726  0.38364187  0.02866618  1
  O  O277  1  0.38160990  0.37548594  0.27632219  1
  O  O278  1  0.37904869  0.37332576  0.54835326  1
  O  O279  1  0.37453206  0.37293919  0.79725373  1
  O  O280  1  0.37066998  0.63092024  0.03484309  1
  O  O281  1  0.37373601  0.62928028  0.29425697  1
  O  O282  1  0.38159200  0.62621095  0.53737981  1
  O  O283  1  0.37978783  0.62599377  0.80342097  1
  O  O284  1  0.37312138  0.87465251  0.04890408  1
  O  O285  1  0.37936952  0.87628628  0.28578942  1
  O  O286  1  0.37892666  0.87456816  0.54810200  1
  O  O287  1  0.37692642  0.87094167  0.79785630  1
  O  O288  1  0.62957655  0.11712814  0.04680806  1
  O  O289  1  0.62191954  0.12201744  0.29604541  1
  O  O290  1  0.61944649  0.12946018  0.54143763  1
  O  O291  1  0.62880127  0.12602516  0.78330495  1
  O  O292  1  0.63473301  0.37938439  0.04292627  1
  O  O293  1  0.62066249  0.37019146  0.27195395  1
  O  O294  1  0.62529999  0.37385561  0.54955348  1
  O  O295  1  0.62785742  0.38172944  0.80502531  1
  O  O296  1  0.63044101  0.63198283  0.05318116  1
  O  O297  1  0.63084188  0.63125264  0.27878775  1
  O  O298  1  0.61983845  0.62363942  0.54744570  1
  O  O299  1  0.62433596  0.62146519  0.80202780  1
  O  O300  1  0.62612987  0.87497880  0.04658663  1
  O  O301  1  0.61800182  0.87657232  0.29711599  1
  O  O302  1  0.62088985  0.87385739  0.54891909  1
  O  O303  1  0.62305131  0.86872439  0.79901977  1
  O  O304  1  0.87308904  0.12294410  0.05315332  1
  O  O305  1  0.86657270  0.12061108  0.28123242  1
  O  O306  1  0.87374765  0.13171900  0.54908125  1
  O  O307  1  0.87196433  0.13038509  0.78540746  1
  O  O308  1  0.87547218  0.37409140  0.04953506  1
  O  O309  1  0.87484511  0.37275330  0.29283177  1
  O  O310  1  0.87209575  0.37138469  0.54733866  1
  O  O311  1  0.87705268  0.37766476  0.80198218  1
  O  O312  1  0.87885986  0.63021795  0.04219795  1
  O  O313  1  0.86554365  0.62341674  0.28638779  1
  O  O314  1  0.86658995  0.62125217  0.52823082  1
  O  O315  1  0.86773402  0.61703711  0.80101167  1
  O  O316  1  0.87511266  0.87554738  0.05050141  1
  O  O317  1  0.87826579  0.88364138  0.28927795  1
  O  O318  1  0.86996980  0.87489793  0.53038787  1
  O  O319  1  0.86982239  0.87679237  0.78117908  1
