# generated using pymatgen
data_VFe(PbO3)2
_symmetry_space_group_name_H-M   'P 1'
_cell_length_a   15.38295526
_cell_length_b   15.37712962
_cell_length_c   18.49603124
_cell_angle_alpha   89.96385427
_cell_angle_beta   89.98443405
_cell_angle_gamma   89.99972634
_symmetry_Int_Tables_number   1
_chemical_formula_structural   VFe(PbO3)2
_chemical_formula_sum   'V32 Fe32 Pb64 O192'
_cell_volume   4375.15556885
_cell_formula_units_Z   32
loop_
 _symmetry_equiv_pos_site_id
 _symmetry_equiv_pos_as_xyz
  1  'x, y, z'
loop_
 _atom_site_type_symbol
 _atom_site_label
 _atom_site_symmetry_multiplicity
 _atom_site_fract_x
 _atom_site_fract_y
 _atom_site_fract_z
 _atom_site_occupancy
  V  V0  1  0.87504290  0.37597988  0.13657788  1
  V  V1  1  0.37272330  0.87383914  0.63715040  1
  V  V2  1  0.12627866  0.37365433  0.14032629  1
  V  V3  1  0.12413490  0.37638241  0.39546378  1
  V  V4  1  0.87022903  0.87789189  0.63633424  1
  V  V5  1  0.37587138  0.87687164  0.88809312  1
  V  V6  1  0.62496886  0.37391774  0.39565698  1
  V  V7  1  0.37524099  0.12490681  0.14019614  1
  V  V8  1  0.12137750  0.87952640  0.63529383  1
  V  V9  1  0.87482866  0.12362851  0.13969484  1
  V  V10  1  0.87527714  0.87583891  0.39157575  1
  V  V11  1  0.37538372  0.62163718  0.13719277  1
  V  V12  1  0.62508425  0.37690186  0.64952860  1
  V  V13  1  0.37544840  0.87045414  0.14156571  1
  V  V14  1  0.37701569  0.62572116  0.39398876  1
  V  V15  1  0.87377309  0.62564543  0.39602408  1
  V  V16  1  0.37626190  0.37771996  0.39704454  1
  V  V17  1  0.62408333  0.37368038  0.13442585  1
  V  V18  1  0.62456189  0.12499382  0.64211240  1
  V  V19  1  0.62462613  0.12492016  0.38998092  1
  V  V20  1  0.37511954  0.62337469  0.64254049  1
  V  V21  1  0.37446613  0.12301810  0.64010784  1
  V  V22  1  0.87374922  0.87640425  0.88646662  1
  V  V23  1  0.12610654  0.12707197  0.39155863  1
  V  V24  1  0.12541474  0.62154055  0.39699281  1
  V  V25  1  0.87524382  0.12400010  0.64044486  1
  V  V26  1  0.62489130  0.62002531  0.39576110  1
  V  V27  1  0.12581403  0.87680452  0.88876878  1
  V  V28  1  0.12380380  0.37585941  0.88158810  1
  V  V29  1  0.12531201  0.12542010  0.89058549  1
  V  V30  1  0.87485127  0.62545220  0.13639416  1
  V  V31  1  0.12597286  0.37216889  0.63659440  1
  Fe  Fe32  1  0.87501995  0.37383588  0.64433748  1
  Fe  Fe33  1  0.37563750  0.87587734  0.38518630  1
  Fe  Fe34  1  0.62446270  0.62748526  0.87528617  1
  Fe  Fe35  1  0.62608742  0.37385262  0.87405962  1
  Fe  Fe36  1  0.37425372  0.37288863  0.64756289  1
  Fe  Fe37  1  0.62483297  0.12216789  0.88564392  1
  Fe  Fe38  1  0.62302097  0.62719347  0.64504818  1
  Fe  Fe39  1  0.37914897  0.12897465  0.38816437  1
  Fe  Fe40  1  0.12532783  0.12412245  0.63202774  1
  Fe  Fe41  1  0.62588616  0.87065274  0.38798481  1
  Fe  Fe42  1  0.12321263  0.87525382  0.14507042  1
  Fe  Fe43  1  0.87414403  0.37704120  0.39429772  1
  Fe  Fe44  1  0.62622619  0.12578980  0.13149397  1
  Fe  Fe45  1  0.62141796  0.87927830  0.64400928  1
  Fe  Fe46  1  0.37088936  0.62927971  0.87958878  1
  Fe  Fe47  1  0.37160332  0.37305073  0.87660872  1
  Fe  Fe48  1  0.87901943  0.12156078  0.88251803  1
  Fe  Fe49  1  0.12371211  0.62131261  0.13561270  1
  Fe  Fe50  1  0.37114967  0.11867152  0.88494624  1
  Fe  Fe51  1  0.87078490  0.12676420  0.38696141  1
  Fe  Fe52  1  0.62696767  0.62327112  0.13263486  1
  Fe  Fe53  1  0.37505707  0.37399366  0.13032754  1
  Fe  Fe54  1  0.12451562  0.87176115  0.38332550  1
  Fe  Fe55  1  0.62665881  0.87301023  0.13600617  1
  Fe  Fe56  1  0.12400855  0.12780687  0.13819189  1
  Fe  Fe57  1  0.12775655  0.62501057  0.63505219  1
  Fe  Fe58  1  0.87875944  0.62821957  0.87459485  1
  Fe  Fe59  1  0.62390405  0.87523966  0.87688911  1
  Fe  Fe60  1  0.87645945  0.62896497  0.64270105  1
  Fe  Fe61  1  0.12560765  0.62809389  0.88151848  1
  Fe  Fe62  1  0.87516633  0.87198951  0.13171283  1
  Fe  Fe63  1  0.87898380  0.37244371  0.87415353  1
  Pb  Pb64  1  0.00193839  -0.00908702  0.00667594  1
  Pb  Pb65  1  0.00238229  -0.00191554  0.24926698  1
  Pb  Pb66  1  0.00482078  0.00643486  0.49812909  1
  Pb  Pb67  1  -0.00454111  0.00245038  0.75122281  1
  Pb  Pb68  1  0.00123992  0.24419220  -0.00342438  1
  Pb  Pb69  1  -0.00998477  0.24981180  0.25523061  1
  Pb  Pb70  1  -0.00103249  0.24985975  0.50259699  1
  Pb  Pb71  1  -0.00509402  0.24841803  0.74915270  1
  Pb  Pb72  1  0.00038440  0.50883752  -0.01076962  1
  Pb  Pb73  1  -0.00628749  0.49440704  0.25256774  1
  Pb  Pb74  1  -0.00902128  0.50497106  0.51244138  1
  Pb  Pb75  1  -0.00403235  0.50370944  0.74443660  1
  Pb  Pb76  1  -0.00111819  0.75599480  -0.00087310  1
  Pb  Pb77  1  0.00537500  0.75109492  0.24845711  1
  Pb  Pb78  1  -0.00124532  0.74154501  0.50501656  1
  Pb  Pb79  1  0.00411308  0.74189235  0.74914991  1
  Pb  Pb80  1  0.23726751  -0.00211654  0.00761985  1
  Pb  Pb81  1  0.25266728  -0.00378924  0.25317363  1
  Pb  Pb82  1  0.25125775  0.00122770  0.49304181  1
  Pb  Pb83  1  0.25573864  0.00210266  0.75061812  1
  Pb  Pb84  1  0.25739052  0.25346210  -0.00214049  1
  Pb  Pb85  1  0.25668260  0.24442913  0.25319347  1
  Pb  Pb86  1  0.25475582  0.25502546  0.50717830  1
  Pb  Pb87  1  0.25602315  0.24872673  0.75050023  1
  Pb  Pb88  1  0.25254491  0.50137772  -0.00815785  1
  Pb  Pb89  1  0.24912179  0.49834940  0.24875186  1
  Pb  Pb90  1  0.25161320  0.49899372  0.50934138  1
  Pb  Pb91  1  0.25073054  0.50729728  0.75225307  1
  Pb  Pb92  1  0.24017290  0.74620004  0.00065512  1
  Pb  Pb93  1  0.24875489  0.75473277  0.25254217  1
  Pb  Pb94  1  0.24558508  0.74781753  0.50008757  1
  Pb  Pb95  1  0.24984096  0.74479288  0.75192701  1
  Pb  Pb96  1  0.50984302  0.00290454  -0.00145573  1
  Pb  Pb97  1  0.49935834  -0.00433254  0.24993573  1
  Pb  Pb98  1  0.50294851  -0.00897360  0.49860743  1
  Pb  Pb99  1  0.50206976  0.00890147  0.75501032  1
  Pb  Pb100  1  0.49799420  0.25171489  -0.01435854  1
  Pb  Pb101  1  0.49703884  0.24443153  0.24889663  1
  Pb  Pb102  1  0.49565975  0.25844165  0.51032491  1
  Pb  Pb103  1  0.50302970  0.24968513  0.75673708  1
  Pb  Pb104  1  0.49879857  0.49981040  -0.01960945  1
  Pb  Pb105  1  0.50238510  0.49856739  0.24483455  1
  Pb  Pb106  1  0.50481054  0.50411811  0.51212880  1
  Pb  Pb107  1  0.50052361  0.49767125  0.75516074  1
  Pb  Pb108  1  0.51254460  0.74556151  -0.00376231  1
  Pb  Pb109  1  0.50375588  0.75579266  0.25275559  1
  Pb  Pb110  1  0.51346746  0.75222373  0.50831916  1
  Pb  Pb111  1  0.50550706  0.75316246  0.75193364  1
  Pb  Pb112  1  0.74368154  -0.00098904  -0.00364052  1
  Pb  Pb113  1  0.74451025  -0.00318883  0.24544748  1
  Pb  Pb114  1  0.74338434  -0.00850865  0.50147964  1
  Pb  Pb115  1  0.74460040  0.00781710  0.75595471  1
  Pb  Pb116  1  0.74944260  0.24740475  -0.01508292  1
  Pb  Pb117  1  0.75709255  0.25055906  0.25186366  1
  Pb  Pb118  1  0.75688338  0.25649522  0.50647445  1
  Pb  Pb119  1  0.74611969  0.25147199  0.75625634  1
  Pb  Pb120  1  0.75066277  0.50191278  -0.02187529  1
  Pb  Pb121  1  0.75448701  0.49416461  0.24994641  1
  Pb  Pb122  1  0.75838235  0.50103438  0.51424337  1
  Pb  Pb123  1  0.75471219  0.50834031  0.74929270  1
  Pb  Pb124  1  0.74089165  0.74777992  -0.00563777  1
  Pb  Pb125  1  0.74252957  0.75397429  0.24894594  1
  Pb  Pb126  1  0.74674898  0.74019621  0.50884405  1
  Pb  Pb127  1  0.74167323  0.74765662  0.74882185  1
  O  O128  1  0.12490289  0.00431272  0.17136434  1
  O  O129  1  0.12363978  0.00693231  0.40692216  1
  O  O130  1  0.12866734  -0.00435185  0.66334998  1
  O  O131  1  0.12409332  -0.00075904  0.91506909  1
  O  O132  1  0.12368155  0.25793459  0.16701438  1
  O  O133  1  0.12550121  0.25487729  0.41735664  1
  O  O134  1  0.12519498  0.25047511  0.66110401  1
  O  O135  1  0.12420145  0.24612775  0.90884656  1
  O  O136  1  0.12519858  0.49340815  0.16980498  1
  O  O137  1  0.12803452  0.49512873  0.42283873  1
  O  O138  1  0.12720931  0.49362502  0.65742305  1
  O  O139  1  0.12629646  0.49344046  0.90162906  1
  O  O140  1  0.12573686  0.74483471  0.16763042  1
  O  O141  1  0.12569138  0.74459338  0.41490044  1
  O  O142  1  0.12953181  0.76380482  0.65885730  1
  O  O143  1  0.12507595  0.75865758  0.90989253  1
  O  O144  1  0.37593030  0.00162098  0.16257829  1
  O  O145  1  0.37604814  0.00394733  0.41315027  1
  O  O146  1  0.37350297  0.00118464  0.66269525  1
  O  O147  1  0.36723840  -0.00926953  0.91994378  1
  O  O148  1  0.37544316  0.24755689  0.16334494  1
  O  O149  1  0.37696497  0.25543569  0.42222790  1
  O  O150  1  0.37565891  0.24003309  0.66450059  1
  O  O151  1  0.36833128  0.24668280  0.90858590  1
  O  O152  1  0.37554333  0.50216602  0.16154760  1
  O  O153  1  0.37552797  0.50011832  0.42471091  1
  O  O154  1  0.37207424  0.50556618  0.66125908  1
  O  O155  1  0.36832223  0.49982673  0.90330307  1
  O  O156  1  0.37480822  0.74922229  0.16190159  1
  O  O157  1  0.37473909  0.74035136  0.41424735  1
  O  O158  1  0.37262851  0.75546786  0.65958991  1
  O  O159  1  0.36554645  0.76196836  0.91250382  1
  O  O160  1  0.62474259  0.00153458  0.16476895  1
  O  O161  1  0.62562768  0.00614560  0.40851682  1
  O  O162  1  0.62457804  0.00592409  0.66591092  1
  O  O163  1  0.62557382  -0.00494692  0.91250330  1
  O  O164  1  0.62665859  0.25732877  0.15953867  1
  O  O165  1  0.62487793  0.25725974  0.41813901  1
  O  O166  1  0.62429138  0.24513003  0.66682745  1
  O  O167  1  0.62527082  0.24919918  0.90630412  1
  O  O168  1  0.62471116  0.49441251  0.16401291  1
  O  O169  1  0.62259647  0.49692675  0.42460158  1
  O  O170  1  0.62219706  0.49516542  0.66456566  1
  O  O171  1  0.62455789  0.50070524  0.89938589  1
  O  O172  1  0.62408748  0.74536726  0.16766099  1
  O  O173  1  0.62417266  0.74231618  0.41830367  1
  O  O174  1  0.62009902  0.75447131  0.66302509  1
  O  O175  1  0.62506244  0.75295775  0.90808790  1
  O  O176  1  0.87512013  0.00743344  0.15826132  1
  O  O177  1  0.87282054  -0.00421261  0.41224061  1
  O  O178  1  0.87754487  -0.00282921  0.66540942  1
  O  O179  1  0.88205802  -0.00727741  0.91394110  1
  O  O180  1  0.87419673  0.25347636  0.16596144  1
  O  O181  1  0.87321322  0.25093873  0.42079823  1
  O  O182  1  0.87566150  0.24027442  0.65902503  1
  O  O183  1  0.88211801  0.24808179  0.90934016  1
  O  O184  1  0.87474352  0.49868708  0.16779901  1
  O  O185  1  0.87455285  0.50324152  0.42335225  1
  O  O186  1  0.87665006  0.50012802  0.66259783  1
  O  O187  1  0.88092223  0.49929232  0.90097865  1
  O  O188  1  0.87621386  0.74006829  0.15847287  1
  O  O189  1  0.87442033  0.75136501  0.41996420  1
  O  O190  1  0.88075024  0.76429101  0.65999779  1
  O  O191  1  0.88382454  0.75930971  0.90705357  1
  O  O192  1  -0.00701169  0.13142898  0.16761521  1
  O  O193  1  0.00439651  0.12960462  0.41320250  1
  O  O194  1  -0.00457492  0.11988735  0.66015643  1
  O  O195  1  0.00791413  0.12155546  0.91545723  1
  O  O196  1  0.00092895  0.37673366  0.16623595  1
  O  O197  1  0.00729375  0.37661457  0.41627216  1
  O  O198  1  0.00840848  0.37154693  0.66046275  1
  O  O199  1  0.00977226  0.37164818  0.91012650  1
  O  O200  1  -0.00710613  0.61799257  0.16501665  1
  O  O201  1  -0.00011161  0.62286520  0.42016200  1
  O  O202  1  0.00499592  0.63065604  0.66047604  1
  O  O203  1  0.00206110  0.62773273  0.90977289  1
  O  O204  1  -0.00495345  0.87420242  0.17089073  1
  O  O205  1  -0.00583880  0.87388323  0.41308236  1
  O  O206  1  0.00453274  0.88145759  0.65666935  1
  O  O207  1  0.00658563  0.87785126  0.91431289  1
  O  O208  1  0.25629338  0.12732455  0.16687795  1
  O  O209  1  0.24465146  0.13069464  0.41322724  1
  O  O210  1  0.25493292  0.12300814  0.65941153  1
  O  O211  1  0.24128800  0.12011793  0.91550258  1
  O  O212  1  0.24541295  0.37544517  0.16348121  1
  O  O213  1  0.24862426  0.37522654  0.42143974  1
  O  O214  1  0.24226208  0.37084149  0.66382069  1
  O  O215  1  0.23967233  0.37010291  0.90867701  1
  O  O216  1  0.25860317  0.62270561  0.16593422  1
  O  O217  1  0.25590141  0.61976728  0.41865823  1
  O  O218  1  0.25431146  0.62972574  0.66232947  1
  O  O219  1  0.24791805  0.62887520  0.91553786  1
  O  O220  1  0.25728998  0.87560289  0.16628558  1
  O  O221  1  0.24857403  0.87469574  0.41398637  1
  O  O222  1  0.25406802  0.87983213  0.66030964  1
  O  O223  1  0.24241080  0.87849510  0.91606478  1
  O  O224  1  0.49532163  0.12717924  0.16300191  1
  O  O225  1  0.50993478  0.13175944  0.41743683  1
  O  O226  1  0.49675279  0.12228675  0.66406386  1
  O  O227  1  0.49622534  0.11918326  0.91143380  1
  O  O228  1  0.50536791  0.37538597  0.15913445  1
  O  O229  1  0.50376875  0.37701990  0.42310786  1
  O  O230  1  0.50396877  0.37149801  0.66741567  1
  O  O231  1  0.49809488  0.37371138  0.90055815  1
  O  O232  1  0.49225438  0.62362750  0.16410953  1
  O  O233  1  0.49594182  0.61953723  0.41953452  1
  O  O234  1  0.49025731  0.62646603  0.66592120  1
  O  O235  1  0.49640983  0.62925505  0.90354748  1
  O  O236  1  0.49402001  0.87438253  0.16474540  1
  O  O237  1  0.50100165  0.87334048  0.41646737  1
  O  O238  1  0.48762309  0.87974524  0.66393137  1
  O  O239  1  0.49181600  0.87613120  0.90247882  1
  O  O240  1  0.75586311  0.13032814  0.16238085  1
  O  O241  1  0.74088938  0.12953290  0.41704166  1
  O  O242  1  0.75430955  0.12078050  0.66383101  1
  O  O243  1  0.75394131  0.12015208  0.91014574  1
  O  O244  1  0.74790623  0.37752218  0.16290298  1
  O  O245  1  0.74189132  0.37888872  0.42014833  1
  O  O246  1  0.74369891  0.36989208  0.66525836  1
  O  O247  1  0.75286514  0.37365680  0.90128132  1
  O  O248  1  0.75735588  0.61905388  0.16212035  1
  O  O249  1  0.74908307  0.62325923  0.42202834  1
  O  O250  1  0.75038842  0.62867518  0.66173160  1
  O  O251  1  0.75337433  0.62902900  0.90079622  1
  O  O252  1  0.75341009  0.87325596  0.16640000  1
  O  O253  1  0.75496231  0.87257412  0.41822805  1
  O  O254  1  0.75646561  0.87958299  0.65859145  1
  O  O255  1  0.75713432  0.87572600  0.89998461  1
  O  O256  1  0.12332032  0.12461096  0.03925353  1
  O  O257  1  0.12641182  0.13454951  0.30050288  1
  O  O258  1  0.11974836  0.12082943  0.53268965  1
  O  O259  1  0.12513857  0.12215990  0.79918837  1
  O  O260  1  0.12374081  0.37614512  0.04976336  1
  O  O261  1  0.12889755  0.37814254  0.30469788  1
  O  O262  1  0.12760516  0.37089285  0.54452059  1
  O  O263  1  0.12305204  0.37014819  0.79072598  1
  O  O264  1  0.12678817  0.62051409  0.03641880  1
  O  O265  1  0.12730917  0.61603667  0.30578444  1
  O  O266  1  0.12982064  0.62808387  0.53398170  1
  O  O267  1  0.13128342  0.63320277  0.78016579  1
  O  O268  1  0.12091707  0.88018204  0.04397080  1
  O  O269  1  0.12661760  0.86989140  0.28296123  1
  O  O270  1  0.12394734  0.88090394  0.54359863  1
  O  O271  1  0.12582234  0.87988697  0.79760204  1
  O  O272  1  0.37271637  0.12498608  0.04948523  1
  O  O273  1  0.37850276  0.13714090  0.28841899  1
  O  O274  1  0.37764890  0.12359131  0.54858808  1
  O  O275  1  0.36899703  0.11475512  0.78479666  1
  O  O276  1  0.36896302  0.37162004  0.03174800  1
  O  O277  1  0.37748382  0.37808564  0.30570718  1
  O  O278  1  0.37355418  0.36804911  0.54597213  1
  O  O279  1  0.36826538  0.37083901  0.77382167  1
  O  O280  1  0.37403767  0.62363344  0.04647652  1
  O  O281  1  0.37753425  0.62061730  0.30324989  1
  O  O282  1  0.37529578  0.62669870  0.55081040  1
  O  O283  1  0.36139018  0.62976486  0.77900938  1
  O  O284  1  0.37429436  0.87182328  0.05138572  1
  O  O285  1  0.37695698  0.87352032  0.28479413  1
  O  O286  1  0.37463081  0.87701369  0.54568655  1
  O  O287  1  0.36669929  0.88148637  0.79646109  1
  O  O288  1  0.62678149  0.11792269  0.03213116  1
  O  O289  1  0.62348102  0.13160453  0.29862472  1
  O  O290  1  0.62542371  0.12557789  0.55079071  1
  O  O291  1  0.62527974  0.11858489  0.78312406  1
  O  O292  1  0.62654011  0.37700635  0.04412918  1
  O  O293  1  0.62272296  0.37614894  0.30476866  1
  O  O294  1  0.62305822  0.37176568  0.55701391  1
  O  O295  1  0.62342563  0.36695832  0.77287247  1
  O  O296  1  0.62559933  0.63314166  0.03330320  1
  O  O297  1  0.62371629  0.61699627  0.30465736  1
  O  O298  1  0.61652080  0.62640637  0.54259142  1
  O  O299  1  0.62299116  0.63116757  0.77266268  1
  O  O300  1  0.62591334  0.86719157  0.03568854  1
  O  O301  1  0.62668969  0.86744341  0.28754933  1
  O  O302  1  0.62063444  0.88112719  0.54115903  1
  O  O303  1  0.62265334  0.87564159  0.77543216  1
  O  O304  1  0.87875650  0.12973061  0.04879746  1
  O  O305  1  0.87072387  0.13549600  0.28769887  1
  O  O306  1  0.87343803  0.11909296  0.54877975  1
  O  O307  1  0.88221742  0.11803612  0.78216689  1
  O  O308  1  0.87694713  0.37762888  0.04628395  1
  O  O309  1  0.87179507  0.37938013  0.29344099  1
  O  O310  1  0.87009331  0.37593369  0.54159929  1
  O  O311  1  0.88262069  0.36609638  0.77212535  1
  O  O312  1  0.87710619  0.62043874  0.04532626  1
  O  O313  1  0.87325880  0.62515350  0.30504533  1
  O  O314  1  0.87802282  0.62744909  0.53917744  1
  O  O315  1  0.88275605  0.63143788  0.77273906  1
  O  O316  1  0.88271824  0.87149753  0.03224762  1
  O  O317  1  0.87195259  0.87110722  0.30088847  1
  O  O318  1  0.87213638  0.88132206  0.54495191  1
  O  O319  1  0.88372658  0.88092384  0.79513823  1
