# generated using pymatgen
data_VFe(PbO3)2
_symmetry_space_group_name_H-M   'P 1'
_cell_length_a   15.38184661
_cell_length_b   15.37603450
_cell_length_c   18.54873818
_cell_angle_alpha   89.99062285
_cell_angle_beta   90.04034151
_cell_angle_gamma   89.99605031
_symmetry_Int_Tables_number   1
_chemical_formula_structural   VFe(PbO3)2
_chemical_formula_sum   'V32 Fe32 Pb64 O192'
_cell_volume   4386.99437382
_cell_formula_units_Z   32
loop_
 _symmetry_equiv_pos_site_id
 _symmetry_equiv_pos_as_xyz
  1  'x, y, z'
loop_
 _atom_site_type_symbol
 _atom_site_label
 _atom_site_symmetry_multiplicity
 _atom_site_fract_x
 _atom_site_fract_y
 _atom_site_fract_z
 _atom_site_occupancy
  V  V0  1  0.37680385  0.37296926  0.14240855  1
  V  V1  1  0.12475999  0.12758067  0.39423155  1
  V  V2  1  0.12278436  0.37613148  0.39707181  1
  V  V3  1  0.87635484  0.62264705  0.14079407  1
  V  V4  1  0.37526903  0.37673007  0.88626518  1
  V  V5  1  0.62624897  0.62454528  0.14920347  1
  V  V6  1  0.37417720  0.87504316  0.63789085  1
  V  V7  1  0.37252588  0.12377024  0.39075522  1
  V  V8  1  0.87687176  0.36830683  0.40087949  1
  V  V9  1  0.87568565  0.87408656  0.63336742  1
  V  V10  1  0.12634557  0.87069638  0.13989128  1
  V  V11  1  0.62671228  0.87375235  0.38522691  1
  V  V12  1  0.87399353  0.87295429  0.89144215  1
  V  V13  1  0.62642464  0.12420696  0.88791454  1
  V  V14  1  0.37222436  0.37397630  0.39513843  1
  V  V15  1  0.87399945  0.37621067  0.88756097  1
  V  V16  1  0.62394658  0.37407598  0.14634143  1
  V  V17  1  0.12546481  0.62375672  0.38789689  1
  V  V18  1  0.62306154  0.12404408  0.14323726  1
  V  V19  1  0.37619106  0.62258168  0.14390879  1
  V  V20  1  0.37519154  0.12568239  0.14117230  1
  V  V21  1  0.62374925  0.87241854  0.14393146  1
  V  V22  1  0.87309590  0.12026988  0.39910668  1
  V  V23  1  0.37671334  0.12494641  0.63706068  1
  V  V24  1  0.12683180  0.62901885  0.63392653  1
  V  V25  1  0.62743877  0.62534741  0.88911437  1
  V  V26  1  0.12362372  0.37460755  0.88677402  1
  V  V27  1  0.87671956  0.62455940  0.39050647  1
  V  V28  1  0.12456724  0.62686383  0.89289499  1
  V  V29  1  0.87423043  0.12591457  0.88802927  1
  V  V30  1  0.62346526  0.62996956  0.63072993  1
  V  V31  1  0.12508446  0.12622642  0.13887308  1
  Fe  Fe32  1  0.87307386  0.87650568  0.14469624  1
  Fe  Fe33  1  0.37322859  0.62666259  0.39419000  1
  Fe  Fe34  1  0.87315682  0.37343962  0.13876351  1
  Fe  Fe35  1  0.12584639  0.12157460  0.63479188  1
  Fe  Fe36  1  0.12545676  0.62337406  0.13598476  1
  Fe  Fe37  1  0.12260243  0.87563314  0.88361119  1
  Fe  Fe38  1  0.37809185  0.87627600  0.14673803  1
  Fe  Fe39  1  0.12671593  0.87341954  0.63672913  1
  Fe  Fe40  1  0.37529155  0.62295776  0.88517407  1
  Fe  Fe41  1  0.37282583  0.87835620  0.37816201  1
  Fe  Fe42  1  0.62345730  0.87415584  0.63861325  1
  Fe  Fe43  1  0.62244191  0.12490308  0.39614460  1
  Fe  Fe44  1  0.87487206  0.62912632  0.63506897  1
  Fe  Fe45  1  0.12289153  0.87531617  0.38532530  1
  Fe  Fe46  1  0.12698976  0.37585182  0.13705555  1
  Fe  Fe47  1  0.62606995  0.37343871  0.88117455  1
  Fe  Fe48  1  0.62714532  0.62468447  0.38153595  1
  Fe  Fe49  1  0.12738150  0.37691701  0.63073725  1
  Fe  Fe50  1  0.37680935  0.87277162  0.88538498  1
  Fe  Fe51  1  0.62366752  0.12031852  0.62610115  1
  Fe  Fe52  1  0.37508425  0.12638930  0.88098534  1
  Fe  Fe53  1  0.87440194  0.62250079  0.88264677  1
  Fe  Fe54  1  0.37267435  0.37692799  0.62942955  1
  Fe  Fe55  1  0.87280737  0.12748368  0.13768316  1
  Fe  Fe56  1  0.87638982  0.37687240  0.62488765  1
  Fe  Fe57  1  0.12322935  0.12493377  0.88278476  1
  Fe  Fe58  1  0.62625081  0.37551758  0.39762198  1
  Fe  Fe59  1  0.62863275  0.87588979  0.88316112  1
  Fe  Fe60  1  0.62297850  0.37706975  0.62586769  1
  Fe  Fe61  1  0.87494657  0.12153638  0.62372749  1
  Fe  Fe62  1  0.37574552  0.62876316  0.62537078  1
  Fe  Fe63  1  0.87658439  0.87468829  0.38117891  1
  Pb  Pb64  1  -0.00393971  0.00101760  -0.00096409  1
  Pb  Pb65  1  0.00121335  -0.00336400  0.25142996  1
  Pb  Pb66  1  0.00401149  0.00092507  0.50251908  1
  Pb  Pb67  1  0.01030403  0.00301351  0.74579632  1
  Pb  Pb68  1  -0.00775937  0.25414053  0.00096958  1
  Pb  Pb69  1  -0.00538339  0.25296276  0.24960517  1
  Pb  Pb70  1  0.00182984  0.24046753  0.51070200  1
  Pb  Pb71  1  0.00125113  0.24746677  0.73431156  1
  Pb  Pb72  1  0.00748978  0.49661952  0.00433954  1
  Pb  Pb73  1  0.00319115  0.49692150  0.24807080  1
  Pb  Pb74  1  -0.00463767  0.49968990  0.50531321  1
  Pb  Pb75  1  -0.00519229  0.50395985  0.74085834  1
  Pb  Pb76  1  0.00025889  0.74526664  0.00137881  1
  Pb  Pb77  1  0.00286927  0.76161146  0.25395396  1
  Pb  Pb78  1  0.00071790  0.75415482  0.49810824  1
  Pb  Pb79  1  0.00467106  0.75430243  0.74884505  1
  Pb  Pb80  1  0.25203786  -0.00139348  -0.00879598  1
  Pb  Pb81  1  0.24684062  -0.00730545  0.25141984  1
  Pb  Pb82  1  0.23951529  -0.00417047  0.50111479  1
  Pb  Pb83  1  0.24961289  0.00381545  0.75171054  1
  Pb  Pb84  1  0.24621507  0.25002055  -0.00584856  1
  Pb  Pb85  1  0.25203018  0.24964332  0.25070481  1
  Pb  Pb86  1  0.24674372  0.25448556  0.50735242  1
  Pb  Pb87  1  0.24814925  0.24324964  0.74459170  1
  Pb  Pb88  1  0.24083651  0.49875725  0.00364696  1
  Pb  Pb89  1  0.25367518  0.50360135  0.25284834  1
  Pb  Pb90  1  0.25116009  0.49388149  0.50488463  1
  Pb  Pb91  1  0.25652603  0.50447511  0.74028532  1
  Pb  Pb92  1  0.25685907  0.75600422  -0.00121165  1
  Pb  Pb93  1  0.26001890  0.74806499  0.25689820  1
  Pb  Pb94  1  0.25142266  0.75683284  0.49461581  1
  Pb  Pb95  1  0.25963718  0.75113237  0.75208367  1
  Pb  Pb96  1  0.49308072  -0.00745684  -0.00238395  1
  Pb  Pb97  1  0.50534150  0.00578045  0.25494177  1
  Pb  Pb98  1  0.50871191  -0.00753843  0.50208885  1
  Pb  Pb99  1  0.49693950  -0.00432157  0.74958172  1
  Pb  Pb100  1  0.50308688  0.24856783  -0.00562342  1
  Pb  Pb101  1  0.51187835  0.25083341  0.26338842  1
  Pb  Pb102  1  0.50013067  0.25575189  0.50277299  1
  Pb  Pb103  1  0.50739876  0.25556723  0.74086410  1
  Pb  Pb104  1  0.50267384  0.49999105  -0.00367089  1
  Pb  Pb105  1  0.50540790  0.49985665  0.26109999  1
  Pb  Pb106  1  0.50230962  0.50441752  0.49491080  1
  Pb  Pb107  1  0.50117753  0.49909834  0.73832371  1
  Pb  Pb108  1  0.49617865  0.75605453  0.00055460  1
  Pb  Pb109  1  0.49231306  0.74108345  0.25977220  1
  Pb  Pb110  1  0.49623841  0.74914250  0.49253830  1
  Pb  Pb111  1  0.49173612  0.75021465  0.75138977  1
  Pb  Pb112  1  0.75917085  0.00091005  0.00519612  1
  Pb  Pb113  1  0.75358041  0.00187295  0.25236530  1
  Pb  Pb114  1  0.73925813  -0.00537772  0.50430173  1
  Pb  Pb115  1  0.74465326  -0.00140639  0.74140973  1
  Pb  Pb116  1  0.75761470  0.24932173  0.00335607  1
  Pb  Pb117  1  0.74200377  0.24916443  0.25950101  1
  Pb  Pb118  1  0.74127322  0.25007474  0.50533453  1
  Pb  Pb119  1  0.74872592  0.25204189  0.72971467  1
  Pb  Pb120  1  0.75325392  0.49548826  -0.00181141  1
  Pb  Pb121  1  0.74352320  0.49616261  0.25879676  1
  Pb  Pb122  1  0.75654294  0.50130085  0.50183077  1
  Pb  Pb123  1  0.75140351  0.49989777  0.73912607  1
  Pb  Pb124  1  0.75515971  0.75379538  0.00284503  1
  Pb  Pb125  1  0.75306844  0.74784402  0.25327247  1
  Pb  Pb126  1  0.75408907  0.74863126  0.49847939  1
  Pb  Pb127  1  0.74976004  0.74935736  0.74776758  1
  O  O128  1  0.12658730  0.00360359  0.16339797  1
  O  O129  1  0.12465599  0.00817341  0.41175948  1
  O  O130  1  0.12705030  -0.00315158  0.66465058  1
  O  O131  1  0.12064800  0.00000573  0.91551064  1
  O  O132  1  0.12878393  0.24457855  0.16379004  1
  O  O133  1  0.12500911  0.24913197  0.41871410  1
  O  O134  1  0.12758811  0.24903434  0.65718742  1
  O  O135  1  0.12349096  0.25527010  0.91320003  1
  O  O136  1  0.12708009  0.50107641  0.17096179  1
  O  O137  1  0.12198112  0.50451670  0.41573303  1
  O  O138  1  0.12773494  0.51103854  0.65927971  1
  O  O139  1  0.12361652  0.49941303  0.91672856  1
  O  O140  1  0.12383189  0.75348357  0.15897703  1
  O  O141  1  0.12183130  0.74187632  0.40944667  1
  O  O142  1  0.12474992  0.74549699  0.66397330  1
  O  O143  1  0.12098256  0.74456774  0.91552257  1
  O  O144  1  0.37636722  0.00668171  0.16772667  1
  O  O145  1  0.36961711  0.00708528  0.40760535  1
  O  O146  1  0.37481824  -0.00310701  0.66200310  1
  O  O147  1  0.37768911  0.00093204  0.91300382  1
  O  O148  1  0.37499270  0.24944661  0.17071668  1
  O  O149  1  0.36788351  0.24924157  0.41814829  1
  O  O150  1  0.37403681  0.24267088  0.65503947  1
  O  O151  1  0.37600109  0.25825720  0.91280264  1
  O  O152  1  0.37839378  0.50050231  0.17019078  1
  O  O153  1  0.37132321  0.49316728  0.41110390  1
  O  O154  1  0.37436103  0.50512366  0.65604158  1
  O  O155  1  0.37560990  0.49430177  0.91400537  1
  O  O156  1  0.37683883  0.74222054  0.16616140  1
  O  O157  1  0.37367324  0.75627685  0.41162883  1
  O  O158  1  0.37627384  0.75436109  0.66033974  1
  O  O159  1  0.37714643  0.74538101  0.91952931  1
  O  O160  1  0.62332713  -0.00145572  0.16821138  1
  O  O161  1  0.62606276  -0.00599909  0.41191880  1
  O  O162  1  0.62247074  -0.00053039  0.66506757  1
  O  O163  1  0.62861698  0.00824368  0.91336314  1
  O  O164  1  0.62175567  0.25311615  0.16964691  1
  O  O165  1  0.62541163  0.24895899  0.41941209  1
  O  O166  1  0.62136153  0.24698980  0.65138421  1
  O  O167  1  0.62672793  0.24557001  0.91495413  1
  O  O168  1  0.62284431  0.49458508  0.17076880  1
  O  O169  1  0.62656420  0.50217627  0.41279609  1
  O  O170  1  0.62288917  0.50922281  0.65355923  1
  O  O171  1  0.62732265  0.50172726  0.91571575  1
  O  O172  1  0.62617134  0.75256684  0.16696534  1
  O  O173  1  0.62769693  0.75588320  0.40720566  1
  O  O174  1  0.62545620  0.74569859  0.66082921  1
  O  O175  1  0.62921869  0.74258761  0.91350909  1
  O  O176  1  0.87371344  0.00403459  0.16881701  1
  O  O177  1  0.88046330  0.00423323  0.40850718  1
  O  O178  1  0.87487211  -0.00934264  0.65458598  1
  O  O179  1  0.87228842  -0.00188699  0.91534763  1
  O  O180  1  0.87287576  0.24964403  0.17332723  1
  O  O181  1  0.88074373  0.25165463  0.41897635  1
  O  O182  1  0.87572553  0.25014608  0.65000592  1
  O  O183  1  0.87426184  0.25344011  0.91462799  1
  O  O184  1  0.87070579  0.50414809  0.16723621  1
  O  O185  1  0.87772914  0.50484752  0.41381745  1
  O  O186  1  0.87475203  0.50281800  0.65996121  1
  O  O187  1  0.87413854  0.49335332  0.91150223  1
  O  O188  1  0.87215684  0.74171810  0.16593615  1
  O  O189  1  0.87679836  0.74518113  0.41110578  1
  O  O190  1  0.87382993  0.75601270  0.66412111  1
  O  O191  1  0.87277744  0.75270224  0.91421625  1
  O  O192  1  0.00863859  0.12631189  0.16272418  1
  O  O193  1  0.00531714  0.12874370  0.41571783  1
  O  O194  1  -0.00245565  0.12172502  0.65872434  1
  O  O195  1  -0.00662311  0.12657655  0.91382647  1
  O  O196  1  0.00036472  0.37486729  0.16721206  1
  O  O197  1  -0.00033009  0.37794664  0.41974161  1
  O  O198  1  0.00203848  0.37943825  0.65695602  1
  O  O199  1  -0.00412829  0.37446714  0.91171008  1
  O  O200  1  -0.00715914  0.62250290  0.16144917  1
  O  O201  1  0.00004938  0.62426861  0.41436495  1
  O  O202  1  0.00664204  0.62777144  0.65968853  1
  O  O203  1  0.00253527  0.62253057  0.91570790  1
  O  O204  1  0.00626333  0.87743645  0.16449778  1
  O  O205  1  -0.00124921  0.87438475  0.41407507  1
  O  O206  1  -0.00650223  0.87184308  0.65897465  1
  O  O207  1  -0.00891827  0.87386248  0.91688535  1
  O  O208  1  0.24830772  0.12521736  0.16667958  1
  O  O209  1  0.24803234  0.12829048  0.41684747  1
  O  O210  1  0.25711229  0.12010815  0.66216979  1
  O  O211  1  0.24986960  0.12837621  0.91449134  1
  O  O212  1  0.25606725  0.37555693  0.16852447  1
  O  O213  1  0.24871384  0.37493889  0.41726158  1
  O  O214  1  0.25093384  0.37734418  0.66473390  1
  O  O215  1  0.25320529  0.37623173  0.91069431  1
  O  O216  1  0.25705202  0.62261523  0.16411562  1
  O  O217  1  0.24032395  0.62360317  0.41103682  1
  O  O218  1  0.24605520  0.63067831  0.65694087  1
  O  O219  1  0.24346834  0.62292752  0.91487653  1
  O  O220  1  0.24369328  0.87713159  0.16257897  1
  O  O221  1  0.24803252  0.87735219  0.41042934  1
  O  O222  1  0.25770450  0.87338618  0.66162551  1
  O  O223  1  0.24877217  0.87164650  0.91365967  1
  O  O224  1  0.50036192  0.12689044  0.17104254  1
  O  O225  1  0.48776420  0.12768221  0.41270463  1
  O  O226  1  0.49369852  0.11932983  0.65844266  1
  O  O227  1  0.50712958  0.12774312  0.91110247  1
  O  O228  1  0.50204379  0.37484344  0.17246890  1
  O  O229  1  0.49034004  0.37119653  0.41291013  1
  O  O230  1  0.49797902  0.37597242  0.65822963  1
  O  O231  1  0.49620164  0.37561802  0.91274786  1
  O  O232  1  0.49781526  0.62278676  0.17122267  1
  O  O233  1  0.50203822  0.62703294  0.40992596  1
  O  O234  1  0.50578533  0.62918966  0.65476903  1
  O  O235  1  0.50822816  0.62132785  0.91471520  1
  O  O236  1  0.50880082  0.87453775  0.16973089  1
  O  O237  1  0.50502590  0.87716876  0.40546325  1
  O  O238  1  0.49301418  0.87513191  0.66253722  1
  O  O239  1  0.50558464  0.87374110  0.91659105  1
  O  O240  1  0.74240556  0.12721088  0.16805354  1
  O  O241  1  0.75742836  0.12753231  0.41239853  1
  O  O242  1  0.75030577  0.12138391  0.65170146  1
  O  O243  1  0.74918936  0.12698728  0.91637570  1
  O  O244  1  0.74173172  0.37398653  0.16929186  1
  O  O245  1  0.75932298  0.37518083  0.41506443  1
  O  O246  1  0.74874632  0.37752692  0.65229149  1
  O  O247  1  0.75500103  0.37367484  0.91145674  1
  O  O248  1  0.75180511  0.62259275  0.17035935  1
  O  O249  1  0.75693148  0.62631802  0.41027973  1
  O  O250  1  0.74205737  0.62718322  0.65948949  1
  O  O251  1  0.74679635  0.62155061  0.91689728  1
  O  O252  1  0.74174156  0.87610071  0.17035155  1
  O  O253  1  0.74774260  0.87594194  0.40897650  1
  O  O254  1  0.75615132  0.87318985  0.66077353  1
  O  O255  1  0.75450166  0.87520123  0.91839520  1
  O  O256  1  0.12665679  0.12708511  0.04838737  1
  O  O257  1  0.12650093  0.12986398  0.30337558  1
  O  O258  1  0.12255390  0.11795774  0.53362895  1
  O  O259  1  0.12667315  0.12202701  0.78278945  1
  O  O260  1  0.12712801  0.38370718  0.03733442  1
  O  O261  1  0.12441741  0.37536169  0.30594106  1
  O  O262  1  0.13351300  0.38047160  0.53016596  1
  O  O263  1  0.12403634  0.37814816  0.79658184  1
  O  O264  1  0.12184553  0.61563322  0.03677270  1
  O  O265  1  0.12287647  0.62131932  0.29656158  1
  O  O266  1  0.12490868  0.63144027  0.54304106  1
  O  O267  1  0.12472360  0.62509096  0.80247044  1
  O  O268  1  0.12283328  0.87496868  0.04915663  1
  O  O269  1  0.11922298  0.87702981  0.28444209  1
  O  O270  1  0.12843568  0.87652466  0.53582517  1
  O  O271  1  0.11544414  0.87150863  0.78427875  1
  O  O272  1  0.37685771  0.12887799  0.05054250  1
  O  O273  1  0.36881098  0.13039517  0.29986742  1
  O  O274  1  0.37440832  0.11958086  0.54621994  1
  O  O275  1  0.37284352  0.12476148  0.78233310  1
  O  O276  1  0.37816066  0.37384315  0.05193917  1
  O  O277  1  0.36917630  0.36927684  0.30393035  1
  O  O278  1  0.36710962  0.37370535  0.52936603  1
  O  O279  1  0.37623844  0.37702664  0.79584026  1
  O  O280  1  0.37983869  0.61918837  0.05332871  1
  O  O281  1  0.36988032  0.63123848  0.29193839  1
  O  O282  1  0.37656133  0.63111012  0.52441645  1
  O  O283  1  0.37474652  0.63250639  0.78614483  1
  O  O284  1  0.38333973  0.87226296  0.04638247  1
  O  O285  1  0.36882157  0.87109590  0.27644092  1
  O  O286  1  0.37502219  0.87609577  0.54645016  1
  O  O287  1  0.37924244  0.86554242  0.78545359  1
  O  O288  1  0.62083788  0.12520813  0.05258356  1
  O  O289  1  0.61914658  0.12878569  0.29420264  1
  O  O290  1  0.62337582  0.11103025  0.52395829  1
  O  O291  1  0.62897450  0.12524257  0.79743471  1
  O  O292  1  0.62253702  0.37392917  0.05556126  1
  O  O293  1  0.62486891  0.37017177  0.29465757  1
  O  O294  1  0.62127420  0.37444296  0.52435540  1
  O  O295  1  0.61962826  0.37175563  0.78275265  1
  O  O296  1  0.62590789  0.62110115  0.05858457  1
  O  O297  1  0.62625406  0.61967784  0.28068748  1
  O  O298  1  0.62651465  0.63337578  0.53935891  1
  O  O299  1  0.62759806  0.62438720  0.79858433  1
  O  O300  1  0.62584903  0.87444130  0.05298245  1
  O  O301  1  0.62757884  0.87680779  0.29434295  1
  O  O302  1  0.62438546  0.88318156  0.53754509  1
  O  O303  1  0.63047499  0.87682869  0.78394168  1
  O  O304  1  0.87013627  0.12998543  0.03739462  1
  O  O305  1  0.88014512  0.13036886  0.30777806  1
  O  O306  1  0.88452665  0.12132370  0.52234818  1
  O  O307  1  0.87160143  0.12581009  0.79776776  1
  O  O308  1  0.87136094  0.36713714  0.03924658  1
  O  O309  1  0.87962774  0.37151925  0.30906679  1
  O  O310  1  0.87632943  0.38693886  0.52385797  1
  O  O311  1  0.87484301  0.37349513  0.79725206  1
  O  O312  1  0.87157506  0.62240528  0.04954334  1
  O  O313  1  0.87880718  0.62424777  0.29963634  1
  O  O314  1  0.87154185  0.62970561  0.53488245  1
  O  O315  1  0.87124119  0.62261442  0.78400064  1
  O  O316  1  0.86721336  0.87569942  0.04476115  1
  O  O317  1  0.87992948  0.87181372  0.28017646  1
  O  O318  1  0.87408519  0.86794748  0.54173300  1
  O  O319  1  0.87296739  0.87491600  0.80126580  1
