# generated using pymatgen
data_VFe(PbO3)2
_symmetry_space_group_name_H-M   'P 1'
_cell_length_a   15.37899781
_cell_length_b   15.37639483
_cell_length_c   18.54928403
_cell_angle_alpha   89.97840746
_cell_angle_beta   90.00711119
_cell_angle_gamma   90.00473581
_symmetry_Int_Tables_number   1
_chemical_formula_structural   VFe(PbO3)2
_chemical_formula_sum   'V32 Fe32 Pb64 O192'
_cell_volume   4386.41454234
_cell_formula_units_Z   32
loop_
 _symmetry_equiv_pos_site_id
 _symmetry_equiv_pos_as_xyz
  1  'x, y, z'
loop_
 _atom_site_type_symbol
 _atom_site_label
 _atom_site_symmetry_multiplicity
 _atom_site_fract_x
 _atom_site_fract_y
 _atom_site_fract_z
 _atom_site_occupancy
  V  V0  1  0.12637782  0.61598304  0.38722332  1
  V  V1  1  0.62508120  0.13045778  0.64044791  1
  V  V2  1  0.62685761  0.37879004  0.89494850  1
  V  V3  1  0.37734220  0.87440386  0.64230843  1
  V  V4  1  0.37394943  0.37303728  0.38803129  1
  V  V5  1  0.87466169  0.87610094  0.89115681  1
  V  V6  1  0.12356521  0.12468639  0.38985566  1
  V  V7  1  0.62492699  0.87842486  0.63784537  1
  V  V8  1  0.87456823  0.12145175  0.13363256  1
  V  V9  1  0.37685305  0.37623544  0.89328631  1
  V  V10  1  0.12356487  0.62782586  0.13580102  1
  V  V11  1  0.62818053  0.37247987  0.38705435  1
  V  V12  1  0.62498848  0.87624368  0.88916504  1
  V  V13  1  0.62339913  0.38036371  0.63927053  1
  V  V14  1  0.37446436  0.62455006  0.64218446  1
  V  V15  1  0.12371148  0.87331548  0.39023171  1
  V  V16  1  0.62746349  0.12795756  0.89068725  1
  V  V17  1  0.37472835  0.62596740  0.13873677  1
  V  V18  1  0.12376855  0.36833350  0.38688584  1
  V  V19  1  0.62214263  0.13014092  0.39018429  1
  V  V20  1  0.12281662  0.62319112  0.64142297  1
  V  V21  1  0.62536232  0.62769765  0.63852858  1
  V  V22  1  0.37409396  0.87503786  0.13861566  1
  V  V23  1  0.62440938  0.87397366  0.14334405  1
  V  V24  1  0.87539547  0.12609356  0.39093391  1
  V  V25  1  0.12620529  0.62477461  0.89041880  1
  V  V26  1  0.12516728  0.37522042  0.89309595  1
  V  V27  1  0.87263913  0.87221745  0.63864350  1
  V  V28  1  0.87588528  0.62353595  0.89519086  1
  V  V29  1  0.62537175  0.12256584  0.13682040  1
  V  V30  1  0.12353437  0.12437156  0.88891748  1
  V  V31  1  0.12826754  0.37387914  0.64104358  1
  Fe  Fe32  1  0.87493550  0.12528537  0.64553898  1
  Fe  Fe33  1  0.87440418  0.12425827  0.88338241  1
  Fe  Fe34  1  0.62207287  0.37324032  0.13032493  1
  Fe  Fe35  1  0.37562705  0.12663487  0.63801078  1
  Fe  Fe36  1  0.62264003  0.62578914  0.13868047  1
  Fe  Fe37  1  0.87422350  0.62602640  0.63602117  1
  Fe  Fe38  1  0.12546277  0.12349090  0.63713737  1
  Fe  Fe39  1  0.12299863  0.87242474  0.88608923  1
  Fe  Fe40  1  0.37540780  0.37456343  0.13078220  1
  Fe  Fe41  1  0.37641007  0.62515651  0.88578286  1
  Fe  Fe42  1  0.87387334  0.87545101  0.14009815  1
  Fe  Fe43  1  0.37226058  0.62638082  0.38377621  1
  Fe  Fe44  1  0.37656082  0.12158481  0.12606683  1
  Fe  Fe45  1  0.62348915  0.62303647  0.37647409  1
  Fe  Fe46  1  0.12581316  0.87413598  0.13114732  1
  Fe  Fe47  1  0.87824740  0.37204624  0.38509937  1
  Fe  Fe48  1  0.37632323  0.12525638  0.89443806  1
  Fe  Fe49  1  0.87497106  0.62666139  0.13703875  1
  Fe  Fe50  1  0.12754924  0.37403550  0.12942766  1
  Fe  Fe51  1  0.12594185  0.12064835  0.12858711  1
  Fe  Fe52  1  0.62576587  0.87818290  0.38238658  1
  Fe  Fe53  1  0.62680188  0.62823927  0.89148685  1
  Fe  Fe54  1  0.37457745  0.87354709  0.88281490  1
  Fe  Fe55  1  0.87406889  0.37449081  0.89664856  1
  Fe  Fe56  1  0.37184080  0.12531914  0.38580634  1
  Fe  Fe57  1  0.12496226  0.87212402  0.63890867  1
  Fe  Fe58  1  0.87648836  0.62316540  0.38021830  1
  Fe  Fe59  1  0.37687364  0.37765561  0.63801454  1
  Fe  Fe60  1  0.87431991  0.37379137  0.12661810  1
  Fe  Fe61  1  0.37442633  0.87710859  0.38432963  1
  Fe  Fe62  1  0.87424157  0.37854668  0.63889903  1
  Fe  Fe63  1  0.87671294  0.87743394  0.38103191  1
  Pb  Pb64  1  0.01089253  -0.00245864  0.00236337  1
  Pb  Pb65  1  0.00088244  -0.00666080  0.24414153  1
  Pb  Pb66  1  0.00920438  0.00088702  0.50629470  1
  Pb  Pb67  1  0.00546227  -0.00086143  0.74809312  1
  Pb  Pb68  1  0.00141768  0.25077041  -0.00171682  1
  Pb  Pb69  1  0.00077608  0.25527899  0.23931388  1
  Pb  Pb70  1  -0.00216044  0.23772174  0.50999741  1
  Pb  Pb71  1  -0.00522127  0.24963655  0.75110298  1
  Pb  Pb72  1  -0.00158912  0.49468193  0.00443232  1
  Pb  Pb73  1  -0.01427637  0.49335489  0.24503380  1
  Pb  Pb74  1  -0.01222148  0.49777831  0.50246923  1
  Pb  Pb75  1  -0.00710296  0.49432329  0.75373129  1
  Pb  Pb76  1  -0.00805014  0.75473733  0.00591962  1
  Pb  Pb77  1  -0.00778896  0.75144588  0.24720443  1
  Pb  Pb78  1  -0.00218245  0.75003835  0.49589123  1
  Pb  Pb79  1  0.00494671  0.75444193  0.75202965  1
  Pb  Pb80  1  0.24782968  0.00182873  -0.00441432  1
  Pb  Pb81  1  0.25578824  0.00464672  0.24526196  1
  Pb  Pb82  1  0.24705346  0.00403962  0.50154986  1
  Pb  Pb83  1  0.25037408  -0.00411282  0.75013376  1
  Pb  Pb84  1  0.24938909  0.24790389  0.00247591  1
  Pb  Pb85  1  0.25254614  0.24318856  0.23645253  1
  Pb  Pb86  1  0.25455641  0.24373767  0.50452456  1
  Pb  Pb87  1  0.25917849  0.23919475  0.75312158  1
  Pb  Pb88  1  0.25161821  0.49049880  0.00342666  1
  Pb  Pb89  1  0.25149176  0.50122997  0.24451862  1
  Pb  Pb90  1  0.25320469  0.49121274  0.50014612  1
  Pb  Pb91  1  0.25474433  0.50500002  0.75238559  1
  Pb  Pb92  1  0.24878954  0.75701931  -0.00546377  1
  Pb  Pb93  1  0.25862677  0.75053079  0.25215036  1
  Pb  Pb94  1  0.24639821  0.75507596  0.49905048  1
  Pb  Pb95  1  0.25308185  0.75669249  0.75502520  1
  Pb  Pb96  1  0.49352017  0.00243408  -0.00207783  1
  Pb  Pb97  1  0.49660041  -0.00531794  0.25297170  1
  Pb  Pb98  1  0.49330570  0.00144869  0.49636644  1
  Pb  Pb99  1  0.49134622  -0.00003023  0.75398887  1
  Pb  Pb100  1  0.49804008  0.25844751  0.00503580  1
  Pb  Pb101  1  0.49083687  0.24525313  0.24166653  1
  Pb  Pb102  1  0.48982788  0.25190811  0.50356374  1
  Pb  Pb103  1  0.49491558  0.24569868  0.75329133  1
  Pb  Pb104  1  0.50611309  0.50118513  0.00419823  1
  Pb  Pb105  1  0.50468178  0.50260034  0.24528212  1
  Pb  Pb106  1  0.49751930  0.49837532  0.49298522  1
  Pb  Pb107  1  0.50296085  0.51339280  0.75635079  1
  Pb  Pb108  1  0.50308106  0.74318710  -0.00198509  1
  Pb  Pb109  1  0.49955980  0.75142378  0.25506494  1
  Pb  Pb110  1  0.50183013  0.74959629  0.48841683  1
  Pb  Pb111  1  0.49662726  0.74725709  0.75452084  1
  Pb  Pb112  1  0.75564443  -0.00613617  0.00229173  1
  Pb  Pb113  1  0.74752784  -0.00660219  0.25350011  1
  Pb  Pb114  1  0.75540341  0.00174342  0.49776392  1
  Pb  Pb115  1  0.75140941  0.00290766  0.75100546  1
  Pb  Pb116  1  0.75329900  0.25610551  0.00159550  1
  Pb  Pb117  1  0.75393973  0.25719912  0.24352036  1
  Pb  Pb118  1  0.76281465  0.25095061  0.50620136  1
  Pb  Pb119  1  0.76283462  0.25508180  0.75780024  1
  Pb  Pb120  1  0.74863626  0.51538150  0.01173121  1
  Pb  Pb121  1  0.75014741  0.50172019  0.24000017  1
  Pb  Pb122  1  0.75999517  0.50490131  0.49582207  1
  Pb  Pb123  1  0.75407041  0.49722698  0.75377966  1
  Pb  Pb124  1  0.75794627  0.75034836  0.00905657  1
  Pb  Pb125  1  0.75247433  0.74021519  0.25067820  1
  Pb  Pb126  1  0.75121898  0.74686100  0.48469761  1
  Pb  Pb127  1  0.74117854  0.74390833  0.75075469  1
  O  O128  1  0.12543605  -0.00231459  0.16332779  1
  O  O129  1  0.12196340  -0.00106402  0.41550331  1
  O  O130  1  0.12512755  -0.00311527  0.66665614  1
  O  O131  1  0.12209690  0.00415083  0.90709822  1
  O  O132  1  0.12582654  0.24665658  0.15666156  1
  O  O133  1  0.12550087  0.25271091  0.41320416  1
  O  O134  1  0.12580264  0.25915118  0.66191152  1
  O  O135  1  0.12576748  0.24873161  0.91323615  1
  O  O136  1  0.13113665  0.51065862  0.16044668  1
  O  O137  1  0.12950159  0.49907929  0.40811624  1
  O  O138  1  0.12666713  0.50441910  0.66927457  1
  O  O139  1  0.12157901  0.50559034  0.91607860  1
  O  O140  1  0.13033730  0.74466638  0.16339631  1
  O  O141  1  0.12456940  0.75230931  0.41092794  1
  O  O142  1  0.12649692  0.74186879  0.66629665  1
  O  O143  1  0.11957969  0.74124239  0.91360551  1
  O  O144  1  0.37816783  -0.00705710  0.15831518  1
  O  O145  1  0.37251226  0.00166236  0.41746480  1
  O  O146  1  0.37748914  -0.00527609  0.66364797  1
  O  O147  1  0.37772110  -0.00235994  0.91240690  1
  O  O148  1  0.37646297  0.24624255  0.15515761  1
  O  O149  1  0.37224129  0.25267232  0.41688988  1
  O  O150  1  0.37762673  0.25338491  0.66919273  1
  O  O151  1  0.37503114  0.25716152  0.91444167  1
  O  O152  1  0.37425816  0.50856305  0.15813291  1
  O  O153  1  0.37170861  0.49563424  0.41405162  1
  O  O154  1  0.37731256  0.50307098  0.66858501  1
  O  O155  1  0.37611677  0.49524671  0.91412166  1
  O  O156  1  0.37637162  0.75296662  0.16441887  1
  O  O157  1  0.37129064  0.75176511  0.41582404  1
  O  O158  1  0.37747992  0.75141820  0.66525552  1
  O  O159  1  0.37592475  0.74954870  0.91561199  1
  O  O160  1  0.62435257  0.00169595  0.16631508  1
  O  O161  1  0.62887851  0.01423081  0.41541848  1
  O  O162  1  0.62393916  -0.00040526  0.66709380  1
  O  O163  1  0.62887411  -0.00359831  0.91429664  1
  O  O164  1  0.62422219  0.23948003  0.15990939  1
  O  O165  1  0.62689387  0.24820660  0.41991954  1
  O  O166  1  0.62365718  0.24756113  0.66069653  1
  O  O167  1  0.62442312  0.24695516  0.91325899  1
  O  O168  1  0.62072984  0.49856560  0.16024068  1
  O  O169  1  0.62134263  0.48835114  0.40621594  1
  O  O170  1  0.62375163  0.49919786  0.66297360  1
  O  O171  1  0.62384013  0.49524296  0.91342459  1
  O  O172  1  0.62105249  0.75799407  0.16213853  1
  O  O173  1  0.62506883  0.75023885  0.40667562  1
  O  O174  1  0.62422206  0.75244005  0.66516273  1
  O  O175  1  0.62963831  0.75971558  0.91488246  1
  O  O176  1  0.86930843  0.00643227  0.16294028  1
  O  O177  1  0.87817508  0.00892162  0.41476968  1
  O  O178  1  0.87244091  -0.00903725  0.66517535  1
  O  O179  1  0.87214026  -0.00530792  0.91086654  1
  O  O180  1  0.87178917  0.24040502  0.15663736  1
  O  O181  1  0.87794708  0.24583662  0.41772717  1
  O  O182  1  0.87285448  0.25470134  0.66918218  1
  O  O183  1  0.87251564  0.24647575  0.91505822  1
  O  O184  1  0.87628392  0.49899006  0.15585713  1
  O  O185  1  0.87879145  0.49716949  0.41288723  1
  O  O186  1  0.87330096  0.50227765  0.67172773  1
  O  O187  1  0.87477665  0.50739247  0.91523366  1
  O  O188  1  0.87411145  0.75085647  0.16564051  1
  O  O189  1  0.87902456  0.75003883  0.40794557  1
  O  O190  1  0.87193400  0.75444190  0.66434375  1
  O  O191  1  0.87327770  0.75181731  0.91760117  1
  O  O192  1  -0.00931039  0.12175722  0.15473859  1
  O  O193  1  -0.00132989  0.12761686  0.41839750  1
  O  O194  1  0.00169039  0.12680179  0.66955525  1
  O  O195  1  0.00417248  0.12593082  0.90969758  1
  O  O196  1  0.00111133  0.37330770  0.15640992  1
  O  O197  1  0.01012163  0.37566780  0.41190782  1
  O  O198  1  0.00836052  0.38083812  0.66632698  1
  O  O199  1  0.00406382  0.37659857  0.91534391  1
  O  O200  1  0.00809239  0.62795023  0.15624375  1
  O  O201  1  0.01125728  0.62398551  0.41322352  1
  O  O202  1  0.00575829  0.62431608  0.66456234  1
  O  O203  1  -0.00333842  0.62638652  0.91741962  1
  O  O204  1  0.00121227  0.87477766  0.16245296  1
  O  O205  1  0.00520891  0.87683348  0.41442144  1
  O  O206  1  -0.00830416  0.87130008  0.66312963  1
  O  O207  1  -0.00743817  0.87258598  0.91133461  1
  O  O208  1  0.25263245  0.11941012  0.15661992  1
  O  O209  1  0.24341420  0.12561399  0.41575109  1
  O  O210  1  0.25032081  0.12539642  0.66765086  1
  O  O211  1  0.24340972  0.12590235  0.91103601  1
  O  O212  1  0.25137281  0.37756720  0.16215182  1
  O  O213  1  0.24549569  0.37444505  0.41490229  1
  O  O214  1  0.24460015  0.38150425  0.66679308  1
  O  O215  1  0.25245729  0.37709600  0.91457196  1
  O  O216  1  0.25401175  0.62959836  0.16311491  1
  O  O217  1  0.24136400  0.62651783  0.41743393  1
  O  O218  1  0.24862618  0.62437391  0.66706444  1
  O  O219  1  0.24297319  0.62391809  0.91027283  1
  O  O220  1  0.25749749  0.87345767  0.15880722  1
  O  O221  1  0.24161710  0.87728138  0.41528298  1
  O  O222  1  0.25739800  0.87169704  0.66355076  1
  O  O223  1  0.24760937  0.87275234  0.90964358  1
  O  O224  1  0.50628297  0.11969920  0.15763430  1
  O  O225  1  0.50548682  0.12973862  0.41061582  1
  O  O226  1  0.50671471  0.12325975  0.66735283  1
  O  O227  1  0.51106904  0.12232864  0.91567241  1
  O  O228  1  0.49849012  0.37279307  0.16396504  1
  O  O229  1  0.50142202  0.36974284  0.41326066  1
  O  O230  1  0.50866349  0.37491700  0.66563459  1
  O  O231  1  0.50001936  0.37346294  0.91471434  1
  O  O232  1  0.49152161  0.63026688  0.16125689  1
  O  O233  1  0.49881288  0.62159188  0.41143146  1
  O  O234  1  0.50128086  0.62622311  0.66762721  1
  O  O235  1  0.50141951  0.62494874  0.91723750  1
  O  O236  1  0.49932354  0.87653407  0.16496579  1
  O  O237  1  0.50161254  0.88070999  0.41512579  1
  O  O238  1  0.49903657  0.87448621  0.66523774  1
  O  O239  1  0.50894224  0.87555967  0.91025367  1
  O  O240  1  0.74747176  0.12239045  0.16324305  1
  O  O241  1  0.75495055  0.12923427  0.41420309  1
  O  O242  1  0.74101229  0.12261745  0.66661205  1
  O  O243  1  0.74296988  0.12247673  0.91629899  1
  O  O244  1  0.74862461  0.37017278  0.15645593  1
  O  O245  1  0.74430647  0.37010596  0.40910001  1
  O  O246  1  0.73982975  0.37601763  0.66778669  1
  O  O247  1  0.74206171  0.37305523  0.91477396  1
  O  O248  1  0.74800054  0.62688931  0.16203120  1
  O  O249  1  0.74890122  0.62086464  0.40598401  1
  O  O250  1  0.74554101  0.62611928  0.66561512  1
  O  O251  1  0.75553228  0.62704714  0.91713364  1
  O  O252  1  0.74168258  0.87829668  0.16404032  1
  O  O253  1  0.75190134  0.88148321  0.41254313  1
  O  O254  1  0.75057216  0.87415284  0.66493010  1
  O  O255  1  0.75139244  0.87508280  0.91628944  1
  O  O256  1  0.12336982  0.11702453  0.02842867  1
  O  O257  1  0.12166559  0.12491324  0.29927464  1
  O  O258  1  0.11948261  0.12332029  0.53629528  1
  O  O259  1  0.12471990  0.12760858  0.79756871  1
  O  O260  1  0.12977839  0.37863630  0.02882821  1
  O  O261  1  0.12465856  0.36858872  0.29613937  1
  O  O262  1  0.12847716  0.37901882  0.55010635  1
  O  O263  1  0.12749199  0.37692289  0.80223255  1
  O  O264  1  0.12788586  0.62832244  0.04493665  1
  O  O265  1  0.12823432  0.62051996  0.29677541  1
  O  O266  1  0.12489908  0.62130922  0.55089972  1
  O  O267  1  0.12188121  0.62412795  0.79951837  1
  O  O268  1  0.12116256  0.87704672  0.03039125  1
  O  O269  1  0.12455796  0.87635386  0.29969961  1
  O  O270  1  0.12248125  0.87216496  0.53933521  1
  O  O271  1  0.12167166  0.86612086  0.78469857  1
  O  O272  1  0.37564949  0.12055757  0.02477903  1
  O  O273  1  0.37236594  0.12301323  0.28638978  1
  O  O274  1  0.37462630  0.13350020  0.53798485  1
  O  O275  1  0.38082667  0.13090829  0.79260674  1
  O  O276  1  0.37468793  0.37601355  0.03076337  1
  O  O277  1  0.37403598  0.37275757  0.29728898  1
  O  O278  1  0.37438876  0.37602480  0.53830076  1
  O  O279  1  0.37768811  0.37680258  0.80221596  1
  O  O280  1  0.37288218  0.63013526  0.04777913  1
  O  O281  1  0.36811581  0.63007243  0.28454738  1
  O  O282  1  0.37414467  0.62410933  0.55153996  1
  O  O283  1  0.38110282  0.62457266  0.78540760  1
  O  O284  1  0.37781055  0.87118261  0.04771095  1
  O  O285  1  0.37567846  0.87624462  0.28422088  1
  O  O286  1  0.37761444  0.87410047  0.55152599  1
  O  O287  1  0.37649938  0.87286428  0.78238708  1
  O  O288  1  0.62910568  0.11937273  0.04622989  1
  O  O289  1  0.62646693  0.13149187  0.29976418  1
  O  O290  1  0.62508641  0.12635295  0.54985471  1
  O  O291  1  0.62761641  0.12575539  0.79976413  1
  O  O292  1  0.61671326  0.37108635  0.02973498  1
  O  O293  1  0.62511074  0.36463430  0.29670394  1
  O  O294  1  0.62591824  0.37874726  0.54864666  1
  O  O295  1  0.62329992  0.37494707  0.80395661  1
  O  O296  1  0.62454774  0.62251401  0.03616600  1
  O  O297  1  0.61951278  0.62299827  0.27608040  1
  O  O298  1  0.62405257  0.62548535  0.54799092  1
  O  O299  1  0.62310357  0.62953505  0.79109877  1
  O  O300  1  0.62318878  0.87861199  0.05239853  1
  O  O301  1  0.62068452  0.88489248  0.28274120  1
  O  O302  1  0.62585702  0.87945897  0.54753691  1
  O  O303  1  0.62893976  0.87629762  0.79818676  1
  O  O304  1  0.86981269  0.11861979  0.04259320  1
  O  O305  1  0.87741311  0.12740957  0.30067256  1
  O  O306  1  0.87532514  0.13327366  0.54482181  1
  O  O307  1  0.86712092  0.12671249  0.78296182  1
  O  O308  1  0.87622660  0.37245366  0.02524430  1
  O  O309  1  0.88155275  0.37020239  0.28525741  1
  O  O310  1  0.87321047  0.37996679  0.53863193  1
  O  O311  1  0.86943113  0.37871244  0.79462944  1
  O  O312  1  0.86927416  0.63200057  0.03528416  1
  O  O313  1  0.88008531  0.62180239  0.27971299  1
  O  O314  1  0.87647460  0.61599448  0.53680091  1
  O  O315  1  0.87590281  0.62761216  0.80399918  1
  O  O316  1  0.87005652  0.87226059  0.03862896  1
  O  O317  1  0.87798805  0.88213366  0.28112669  1
  O  O318  1  0.87247140  0.87385017  0.54782052  1
  O  O319  1  0.87127202  0.87133471  0.80060003  1
