# generated using pymatgen
data_VFe(PbO3)2
_symmetry_space_group_name_H-M   'P 1'
_cell_length_a   15.36757117
_cell_length_b   15.37180542
_cell_length_c   18.56378386
_cell_angle_alpha   89.97863162
_cell_angle_beta   90.02093264
_cell_angle_gamma   89.99873489
_symmetry_Int_Tables_number   1
_chemical_formula_structural   VFe(PbO3)2
_chemical_formula_sum   'V32 Fe32 Pb64 O192'
_cell_volume   4385.27219428
_cell_formula_units_Z   32
loop_
 _symmetry_equiv_pos_site_id
 _symmetry_equiv_pos_as_xyz
  1  'x, y, z'
loop_
 _atom_site_type_symbol
 _atom_site_label
 _atom_site_symmetry_multiplicity
 _atom_site_fract_x
 _atom_site_fract_y
 _atom_site_fract_z
 _atom_site_occupancy
  V  V0  1  0.37508441  0.37529028  0.14053480  1
  V  V1  1  0.62398023  0.87553474  0.88708860  1
  V  V2  1  0.87662410  0.87523327  0.38892659  1
  V  V3  1  0.37473012  0.37520862  0.63736879  1
  V  V4  1  0.37629313  0.12536022  0.38881154  1
  V  V5  1  0.12852240  0.12451895  0.88986289  1
  V  V6  1  0.62415310  0.87387068  0.39381291  1
  V  V7  1  0.37442881  0.37452664  0.88756913  1
  V  V8  1  0.37294335  0.62448993  0.14412003  1
  V  V9  1  0.62580120  0.37596299  0.64114821  1
  V  V10  1  0.12442154  0.62245489  0.13760463  1
  V  V11  1  0.12478127  0.62361428  0.63764072  1
  V  V12  1  0.37606069  0.87472606  0.89019090  1
  V  V13  1  0.12710343  0.62470564  0.88674835  1
  V  V14  1  0.62692133  0.12352253  0.88823940  1
  V  V15  1  0.87760874  0.12419022  0.88873467  1
  V  V16  1  0.62393574  0.62388009  0.88838695  1
  V  V17  1  0.62572187  0.62706259  0.63691222  1
  V  V18  1  0.62770975  0.12512851  0.39255015  1
  V  V19  1  0.62439453  0.12557841  0.13819083  1
  V  V20  1  0.62420057  0.87496732  0.13841912  1
  V  V21  1  0.62484273  0.37532860  0.13979011  1
  V  V22  1  0.12421672  0.12606088  0.63463185  1
  V  V23  1  0.37702661  0.37600951  0.38836981  1
  V  V24  1  0.12507103  0.37427600  0.14054052  1
  V  V25  1  0.37449669  0.87463521  0.39017924  1
  V  V26  1  0.62663254  0.12412544  0.63631930  1
  V  V27  1  0.87376557  0.37509801  0.38941250  1
  V  V28  1  0.12488308  0.62816465  0.39082032  1
  V  V29  1  0.87399535  0.62605277  0.38795710  1
  V  V30  1  0.87538486  0.12732707  0.14257517  1
  V  V31  1  0.12676039  0.87477385  0.63837410  1
  Fe  Fe32  1  0.37704513  0.87590862  0.13464922  1
  Fe  Fe33  1  0.62251738  0.37341262  0.88279886  1
  Fe  Fe34  1  0.37646561  0.12393039  0.88141757  1
  Fe  Fe35  1  0.12484694  0.12248631  0.38283742  1
  Fe  Fe36  1  0.87388826  0.62196153  0.13349093  1
  Fe  Fe37  1  0.87621049  0.62504569  0.64276241  1
  Fe  Fe38  1  0.87366107  0.12399906  0.38863061  1
  Fe  Fe39  1  0.12707422  0.87443754  0.13069592  1
  Fe  Fe40  1  0.62432862  0.37342884  0.38812282  1
  Fe  Fe41  1  0.37648295  0.12868749  0.13720039  1
  Fe  Fe42  1  0.87277919  0.87444110  0.13132600  1
  Fe  Fe43  1  0.12470179  0.87263690  0.38511676  1
  Fe  Fe44  1  0.12608801  0.12742018  0.13699283  1
  Fe  Fe45  1  0.12423011  0.87462750  0.89109334  1
  Fe  Fe46  1  0.87657481  0.37415718  0.63599932  1
  Fe  Fe47  1  0.87560566  0.37301709  0.88656518  1
  Fe  Fe48  1  0.62200991  0.62426213  0.13509764  1
  Fe  Fe49  1  0.37529814  0.62508667  0.38567835  1
  Fe  Fe50  1  0.87414230  0.87581051  0.63472835  1
  Fe  Fe51  1  0.12364789  0.37686917  0.39538284  1
  Fe  Fe52  1  0.87628395  0.62402797  0.88294088  1
  Fe  Fe53  1  0.87287217  0.87604252  0.89291181  1
  Fe  Fe54  1  0.37625608  0.87536143  0.63341312  1
  Fe  Fe55  1  0.37426490  0.62570937  0.88047533  1
  Fe  Fe56  1  0.12735849  0.37573659  0.62774509  1
  Fe  Fe57  1  0.37466074  0.12649567  0.64051431  1
  Fe  Fe58  1  0.12765280  0.37420849  0.88436033  1
  Fe  Fe59  1  0.87680710  0.12628833  0.63174044  1
  Fe  Fe60  1  0.62560777  0.62486548  0.38567455  1
  Fe  Fe61  1  0.62557941  0.87476400  0.63107073  1
  Fe  Fe62  1  0.87523175  0.37569034  0.13475620  1
  Fe  Fe63  1  0.37470651  0.62480969  0.64141666  1
  Pb  Pb64  1  0.00397968  -0.00778023  0.00341296  1
  Pb  Pb65  1  0.01016142  -0.00355324  0.24636992  1
  Pb  Pb66  1  -0.00026484  0.00402293  0.49511128  1
  Pb  Pb67  1  0.00308673  -0.00815750  0.75005098  1
  Pb  Pb68  1  0.00540303  0.24748134  -0.00061462  1
  Pb  Pb69  1  -0.00235346  0.23677218  0.25930916  1
  Pb  Pb70  1  -0.00278519  0.24776277  0.49767172  1
  Pb  Pb71  1  -0.00160100  0.26012508  0.74574979  1
  Pb  Pb72  1  -0.00826741  0.49544451  -0.00471204  1
  Pb  Pb73  1  0.00411460  0.49238549  0.25160272  1
  Pb  Pb74  1  -0.01132983  0.50151891  0.50561714  1
  Pb  Pb75  1  -0.00686050  0.49442739  0.74948794  1
  Pb  Pb76  1  -0.00601702  0.75014603  -0.00353682  1
  Pb  Pb77  1  -0.00009543  0.75768647  0.24245918  1
  Pb  Pb78  1  -0.01064209  0.74721998  0.50406334  1
  Pb  Pb79  1  0.00152565  0.75814790  0.75295604  1
  Pb  Pb80  1  0.25095441  -0.00580300  0.00490998  1
  Pb  Pb81  1  0.24543395  0.00041757  0.24273482  1
  Pb  Pb82  1  0.25476179  0.00016652  0.49805622  1
  Pb  Pb83  1  0.25335175  0.00267531  0.74896972  1
  Pb  Pb84  1  0.25105053  0.23764187  0.00304189  1
  Pb  Pb85  1  0.24154502  0.24701292  0.25270369  1
  Pb  Pb86  1  0.24440462  0.25014260  0.49673489  1
  Pb  Pb87  1  0.24538140  0.25460678  0.74873769  1
  Pb  Pb88  1  0.25109816  0.50124811  -0.00407146  1
  Pb  Pb89  1  0.24670299  0.49499161  0.25690463  1
  Pb  Pb90  1  0.24632808  0.49962727  0.50018657  1
  Pb  Pb91  1  0.24561128  0.49713075  0.74939059  1
  Pb  Pb92  1  0.25148523  0.75764833  0.00093965  1
  Pb  Pb93  1  0.24731066  0.75596346  0.24880086  1
  Pb  Pb94  1  0.26058393  0.74875381  0.50360477  1
  Pb  Pb95  1  0.25221861  0.74932848  0.74991062  1
  Pb  Pb96  1  0.48957266  0.00065539  0.00132235  1
  Pb  Pb97  1  0.49703811  0.00140776  0.24722085  1
  Pb  Pb98  1  0.49413697  -0.00330282  0.50485993  1
  Pb  Pb99  1  0.49552298  0.00302957  0.74540335  1
  Pb  Pb100  1  0.49315148  0.24383052  -0.00234992  1
  Pb  Pb101  1  0.50580933  0.25859536  0.25259667  1
  Pb  Pb102  1  0.49368857  0.24208948  0.50333784  1
  Pb  Pb103  1  0.50303608  0.25234242  0.75109657  1
  Pb  Pb104  1  0.50483025  0.50482556  -0.00113194  1
  Pb  Pb105  1  0.50295281  0.50737983  0.25604541  1
  Pb  Pb106  1  0.50154230  0.50775239  0.49721955  1
  Pb  Pb107  1  0.50235460  0.49900019  0.75082812  1
  Pb  Pb108  1  0.50503477  0.74511522  -0.00005148  1
  Pb  Pb109  1  0.50045702  0.73897128  0.25550536  1
  Pb  Pb110  1  0.49492778  0.74814219  0.50233663  1
  Pb  Pb111  1  0.49622795  0.75015269  0.74484145  1
  Pb  Pb112  1  0.75066361  -0.00406177  0.00102524  1
  Pb  Pb113  1  0.75568909  0.00484361  0.25094059  1
  Pb  Pb114  1  0.75087257  -0.00910395  0.50408841  1
  Pb  Pb115  1  0.75962171  -0.00731465  0.74705752  1
  Pb  Pb116  1  0.75163317  0.25864913  -0.00212133  1
  Pb  Pb117  1  0.75044545  0.25187979  0.25353269  1
  Pb  Pb118  1  0.76188713  0.25226194  0.50540712  1
  Pb  Pb119  1  0.75337742  0.25692072  0.74973124  1
  Pb  Pb120  1  0.75824374  0.49984971  -0.00100481  1
  Pb  Pb121  1  0.74792026  0.50315040  0.24625819  1
  Pb  Pb122  1  0.75487259  0.50043792  0.50036134  1
  Pb  Pb123  1  0.75983014  0.49987946  0.75417108  1
  Pb  Pb124  1  0.75812327  0.74403712  0.00050793  1
  Pb  Pb125  1  0.74859690  0.74500585  0.24410948  1
  Pb  Pb126  1  0.75154854  0.75597266  0.50309102  1
  Pb  Pb127  1  0.76471654  0.75473648  0.75192256  1
  O  O128  1  0.12397986  0.00062487  0.15882581  1
  O  O129  1  0.12453437  -0.00309520  0.41436438  1
  O  O130  1  0.12508480  -0.00237901  0.66052856  1
  O  O131  1  0.12435667  0.00835638  0.91468845  1
  O  O132  1  0.12502613  0.25930780  0.16372583  1
  O  O133  1  0.12737073  0.24877913  0.41319428  1
  O  O134  1  0.12877217  0.24405369  0.65406803  1
  O  O135  1  0.12433689  0.24366275  0.91467607  1
  O  O136  1  0.12979377  0.50115676  0.16798073  1
  O  O137  1  0.12371428  0.51092871  0.41834684  1
  O  O138  1  0.12981418  0.50586455  0.65664278  1
  O  O139  1  0.13073174  0.50489577  0.91234341  1
  O  O140  1  0.12936844  0.73999046  0.15835028  1
  O  O141  1  0.12219684  0.74424247  0.41709291  1
  O  O142  1  0.12487118  0.75323608  0.66265222  1
  O  O143  1  0.12761973  0.74248119  0.91347006  1
  O  O144  1  0.37775028  0.00152615  0.16571062  1
  O  O145  1  0.37755362  -0.00265833  0.41403523  1
  O  O146  1  0.37444486  -0.00009663  0.66568251  1
  O  O147  1  0.37618093  -0.00386406  0.91354030  1
  O  O148  1  0.37497151  0.25796371  0.16825373  1
  O  O149  1  0.37551307  0.25087699  0.41349124  1
  O  O150  1  0.37508331  0.25731510  0.66382046  1
  O  O151  1  0.37681989  0.25282818  0.91075480  1
  O  O152  1  0.37512955  0.49914270  0.16911887  1
  O  O153  1  0.37593653  0.49435995  0.40972402  1
  O  O154  1  0.37442253  0.49299857  0.66324211  1
  O  O155  1  0.37499595  0.49457631  0.91042911  1
  O  O156  1  0.37596078  0.74271347  0.16264468  1
  O  O157  1  0.37598273  0.75576367  0.41231058  1
  O  O158  1  0.37470715  0.75131149  0.66691792  1
  O  O159  1  0.37690475  0.75593849  0.91161013  1
  O  O160  1  0.62646832  0.00021629  0.16539442  1
  O  O161  1  0.62272894  0.00389731  0.41782269  1
  O  O162  1  0.62548203  0.00875516  0.65643799  1
  O  O163  1  0.62426783  0.00277687  0.91509257  1
  O  O164  1  0.62505089  0.25164965  0.16571172  1
  O  O165  1  0.62185175  0.24221310  0.41634131  1
  O  O166  1  0.62130157  0.25398822  0.66450747  1
  O  O167  1  0.62395607  0.24133220  0.91195216  1
  O  O168  1  0.62145808  0.49269266  0.16038332  1
  O  O169  1  0.62349503  0.49860894  0.41648985  1
  O  O170  1  0.62124441  0.49488032  0.66259509  1
  O  O171  1  0.61902015  0.50493972  0.90943613  1
  O  O172  1  0.62330585  0.75681500  0.15984483  1
  O  O173  1  0.62536958  0.75390916  0.41466348  1
  O  O174  1  0.62333564  0.74235105  0.65515340  1
  O  O175  1  0.61951286  0.74924927  0.91272227  1
  O  O176  1  0.87139919  0.00641826  0.16337559  1
  O  O177  1  0.87248852  -0.00721000  0.40948149  1
  O  O178  1  0.87473165  0.00275472  0.66251117  1
  O  O179  1  0.87293090  0.00904260  0.91714135  1
  O  O180  1  0.87252539  0.24771493  0.16621600  1
  O  O181  1  0.87264593  0.25609456  0.41135795  1
  O  O182  1  0.87572352  0.24854101  0.66591648  1
  O  O183  1  0.87275905  0.24040611  0.91452308  1
  O  O184  1  0.87398234  0.49809185  0.16782397  1
  O  O185  1  0.87469990  0.49932476  0.41415364  1
  O  O186  1  0.87493395  0.49884868  0.66733059  1
  O  O187  1  0.87292614  0.50048420  0.91224607  1
  O  O188  1  0.87236780  0.74870781  0.16219264  1
  O  O189  1  0.87347473  0.75225351  0.41380958  1
  O  O190  1  0.87588141  0.75074584  0.66634913  1
  O  O191  1  0.87322444  0.74784403  0.91351750  1
  O  O192  1  -0.00677542  0.12862469  0.16307384  1
  O  O193  1  -0.00129450  0.12489064  0.41416691  1
  O  O194  1  0.00945822  0.12335185  0.66081096  1
  O  O195  1  -0.00301556  0.12525176  0.91271867  1
  O  O196  1  0.00783110  0.38053436  0.16061590  1
  O  O197  1  -0.00872498  0.37756950  0.41326938  1
  O  O198  1  0.00491725  0.37540121  0.65869953  1
  O  O199  1  0.00291626  0.37337368  0.91264845  1
  O  O200  1  0.00933399  0.62063964  0.15961593  1
  O  O201  1  -0.00183409  0.62639761  0.41679763  1
  O  O202  1  0.01054847  0.62644826  0.66566682  1
  O  O203  1  0.00847623  0.62320964  0.90865441  1
  O  O204  1  -0.00017826  0.87290866  0.15712048  1
  O  O205  1  -0.00709504  0.87207491  0.41156109  1
  O  O206  1  0.00614651  0.87527399  0.66354472  1
  O  O207  1  -0.00067546  0.87734761  0.91832336  1
  O  O208  1  0.25124320  0.13057842  0.16589261  1
  O  O209  1  0.25611186  0.12197298  0.41063463  1
  O  O210  1  0.24175906  0.12170173  0.66329177  1
  O  O211  1  0.24657847  0.12648252  0.90818909  1
  O  O212  1  0.24736173  0.37822714  0.16810446  1
  O  O213  1  0.25924879  0.37575580  0.41499067  1
  O  O214  1  0.25496419  0.37445984  0.66126092  1
  O  O215  1  0.25706679  0.37228005  0.91559793  1
  O  O216  1  0.25108672  0.62101804  0.16709503  1
  O  O217  1  0.24512035  0.62735314  0.41094707  1
  O  O218  1  0.24238787  0.62925912  0.66511934  1
  O  O219  1  0.24887817  0.62547370  0.91386493  1
  O  O220  1  0.25172530  0.87145101  0.16412384  1
  O  O221  1  0.25638026  0.87474790  0.41085265  1
  O  O222  1  0.24367239  0.87527367  0.66257985  1
  O  O223  1  0.25645193  0.87625961  0.91192649  1
  O  O224  1  0.50565231  0.12746102  0.16679555  1
  O  O225  1  0.49992739  0.12328670  0.41822205  1
  O  O226  1  0.50796262  0.12964287  0.66468301  1
  O  O227  1  0.50562721  0.12292433  0.91097777  1
  O  O228  1  0.50268070  0.37325208  0.16515359  1
  O  O229  1  0.49283149  0.37183172  0.41558777  1
  O  O230  1  0.49693891  0.37463358  0.66418873  1
  O  O231  1  0.49360539  0.37353400  0.91269276  1
  O  O232  1  0.49432520  0.62200703  0.16562826  1
  O  O233  1  0.49928982  0.62739634  0.41763999  1
  O  O234  1  0.50750250  0.61995743  0.66465940  1
  O  O235  1  0.50043275  0.62607090  0.91459880  1
  O  O236  1  0.50707786  0.87760764  0.16402143  1
  O  O237  1  0.49654787  0.87637408  0.41516557  1
  O  O238  1  0.50278087  0.87593918  0.66185078  1
  O  O239  1  0.49892113  0.87749117  0.91539359  1
  O  O240  1  0.74916686  0.12719916  0.16876155  1
  O  O241  1  0.74342485  0.12341290  0.41314931  1
  O  O242  1  0.74214565  0.13269290  0.65993229  1
  O  O243  1  0.74808510  0.12334204  0.91321096  1
  O  O244  1  0.74260182  0.37338395  0.16227879  1
  O  O245  1  0.75484383  0.37612355  0.41415503  1
  O  O246  1  0.74247195  0.37365191  0.66075477  1
  O  O247  1  0.74668448  0.37208990  0.91255209  1
  O  O248  1  0.74639579  0.62323749  0.16351030  1
  O  O249  1  0.75482452  0.62488337  0.41191287  1
  O  O250  1  0.74006414  0.61918538  0.66303858  1
  O  O251  1  0.74027966  0.62623967  0.90886762  1
  O  O252  1  0.74275089  0.87739113  0.16510480  1
  O  O253  1  0.75268017  0.87501040  0.41439584  1
  O  O254  1  0.74733578  0.87507651  0.66601207  1
  O  O255  1  0.74212941  0.87650251  0.91649498  1
  O  O256  1  0.12579623  0.13556036  0.03704431  1
  O  O257  1  0.11896206  0.12861292  0.28172206  1
  O  O258  1  0.12515012  0.12105334  0.54351454  1
  O  O259  1  0.12302163  0.12571367  0.79912739  1
  O  O260  1  0.12996805  0.37669814  0.04996693  1
  O  O261  1  0.12640550  0.38611155  0.29495416  1
  O  O262  1  0.13461568  0.37861583  0.52704602  1
  O  O263  1  0.13609848  0.37246522  0.78489563  1
  O  O264  1  0.12952816  0.61729144  0.04745668  1
  O  O265  1  0.12131613  0.62679855  0.29990492  1
  O  O266  1  0.12473180  0.62818465  0.54677134  1
  O  O267  1  0.13037435  0.62450518  0.79585124  1
  O  O268  1  0.13495068  0.87699116  0.02926646  1
  O  O269  1  0.12245075  0.86847329  0.28532135  1
  O  O270  1  0.12538424  0.87351205  0.54783878  1
  O  O271  1  0.11668339  0.87622732  0.79122784  1
  O  O272  1  0.37918123  0.13132878  0.03650647  1
  O  O273  1  0.38094117  0.12465359  0.29811757  1
  O  O274  1  0.37996797  0.12418310  0.54045672  1
  O  O275  1  0.37597201  0.11956121  0.78187150  1
  O  O276  1  0.37476981  0.37581709  0.05100127  1
  O  O277  1  0.37687115  0.37290674  0.29701440  1
  O  O278  1  0.37618162  0.37483607  0.54685036  1
  O  O279  1  0.37175400  0.37413722  0.79610742  1
  O  O280  1  0.37209829  0.62043687  0.05334144  1
  O  O281  1  0.38430730  0.62657108  0.28631427  1
  O  O282  1  0.37454623  0.63299160  0.54081107  1
  O  O283  1  0.37476621  0.62713804  0.78117959  1
  O  O284  1  0.37285726  0.87947766  0.03508825  1
  O  O285  1  0.37753041  0.87588919  0.29930815  1
  O  O286  1  0.37230505  0.87421359  0.53327900  1
  O  O287  1  0.37863189  0.87645348  0.79911520  1
  O  O288  1  0.62540441  0.12589457  0.04763653  1
  O  O289  1  0.62481745  0.12425091  0.30157076  1
  O  O290  1  0.62337479  0.12899065  0.54548452  1
  O  O291  1  0.62911407  0.12237753  0.79761543  1
  O  O292  1  0.62269490  0.37144933  0.04894806  1
  O  O293  1  0.62305409  0.36785961  0.28897586  1
  O  O294  1  0.62219542  0.37367227  0.55050924  1
  O  O295  1  0.61898248  0.37190137  0.78363567  1
  O  O296  1  0.61422146  0.62376434  0.03562879  1
  O  O297  1  0.61590421  0.62540270  0.28503449  1
  O  O298  1  0.62423616  0.62067148  0.54570861  1
  O  O299  1  0.62086809  0.62513251  0.79780156  1
  O  O300  1  0.62517383  0.87833451  0.04774923  1
  O  O301  1  0.62530574  0.87766810  0.30312854  1
  O  O302  1  0.63374396  0.87788773  0.53093655  1
  O  O303  1  0.62489536  0.87646297  0.79650810  1
  O  O304  1  0.87182724  0.12779145  0.05209579  1
  O  O305  1  0.87345398  0.12994610  0.28824059  1
  O  O306  1  0.87582374  0.13333016  0.53122197  1
  O  O307  1  0.87668933  0.12402893  0.79823763  1
  O  O308  1  0.86996256  0.37759747  0.03508172  1
  O  O309  1  0.87323835  0.37657050  0.29817994  1
  O  O310  1  0.86897868  0.37600839  0.53564676  1
  O  O311  1  0.87653495  0.37203139  0.78515180  1
  O  O312  1  0.87158150  0.62177838  0.03301119  1
  O  O313  1  0.87713658  0.62554838  0.29723187  1
  O  O314  1  0.88128262  0.62248462  0.54151478  1
  O  O315  1  0.87089877  0.62052759  0.78208495  1
  O  O316  1  0.86833984  0.87712206  0.03119076  1
  O  O317  1  0.87483233  0.87210123  0.29792867  1
  O  O318  1  0.86871222  0.87092855  0.53460780  1
  O  O319  1  0.87008935  0.87786958  0.79139718  1
