# generated using pymatgen
data_VFe(PbO3)2
_symmetry_space_group_name_H-M   'P 1'
_cell_length_a   15.37487363
_cell_length_b   15.38136814
_cell_length_c   18.52121119
_cell_angle_alpha   89.99971990
_cell_angle_beta   89.95819602
_cell_angle_gamma   90.01616816
_symmetry_Int_Tables_number   1
_chemical_formula_structural   VFe(PbO3)2
_chemical_formula_sum   'V32 Fe32 Pb64 O192'
_cell_volume   4380.01676005
_cell_formula_units_Z   32
loop_
 _symmetry_equiv_pos_site_id
 _symmetry_equiv_pos_as_xyz
  1  'x, y, z'
loop_
 _atom_site_type_symbol
 _atom_site_label
 _atom_site_symmetry_multiplicity
 _atom_site_fract_x
 _atom_site_fract_y
 _atom_site_fract_z
 _atom_site_occupancy
  V  V0  1  0.37177468  0.37612253  0.63697996  1
  V  V1  1  0.62263468  0.12748913  0.88447677  1
  V  V2  1  0.87360241  0.87614823  0.39046237  1
  V  V3  1  0.12458095  0.12593623  0.64188932  1
  V  V4  1  0.87591858  0.12461523  0.13837645  1
  V  V5  1  0.37437151  0.12468780  0.39146564  1
  V  V6  1  0.12213054  0.37563806  0.88748940  1
  V  V7  1  0.37588853  0.37491529  0.38509501  1
  V  V8  1  0.37127164  0.87279747  0.63920490  1
  V  V9  1  0.37499637  0.62700199  0.63947891  1
  V  V10  1  0.37333789  0.37530149  0.89103576  1
  V  V11  1  0.87456645  0.12839283  0.38923429  1
  V  V12  1  0.62536970  0.62308074  0.63869040  1
  V  V13  1  0.37446722  0.87450419  0.88997032  1
  V  V14  1  0.62773006  0.62984670  0.13961586  1
  V  V15  1  0.87257608  0.12312853  0.64377893  1
  V  V16  1  0.87803754  0.37695645  0.64123123  1
  V  V17  1  0.12619480  0.37449097  0.13876519  1
  V  V18  1  0.37802360  0.87368800  0.14306759  1
  V  V19  1  0.62352328  0.62095048  0.88892572  1
  V  V20  1  0.37452120  0.12704565  0.14074002  1
  V  V21  1  0.62319397  0.87372893  0.64430201  1
  V  V22  1  0.87312091  0.62464707  0.38532352  1
  V  V23  1  0.62424459  0.87521681  0.38831389  1
  V  V24  1  0.87188203  0.87471199  0.13470081  1
  V  V25  1  0.62524867  0.12508151  0.13897391  1
  V  V26  1  0.12481513  0.62367986  0.64038769  1
  V  V27  1  0.12506420  0.12470159  0.13873326  1
  V  V28  1  0.12479756  0.87371645  0.89173472  1
  V  V29  1  0.62377405  0.37603023  0.14277643  1
  V  V30  1  0.12673456  0.87338418  0.64094717  1
  V  V31  1  0.62213174  0.37635030  0.88552648  1
  Fe  Fe32  1  0.12136963  0.12307920  0.38520020  1
  Fe  Fe33  1  0.87428951  0.87550226  0.87821546  1
  Fe  Fe34  1  0.37682138  0.62652563  0.37546052  1
  Fe  Fe35  1  0.12344659  0.62642312  0.13383069  1
  Fe  Fe36  1  0.12343464  0.62824154  0.37761080  1
  Fe  Fe37  1  0.62684200  0.37431083  0.39008379  1
  Fe  Fe38  1  0.87374680  0.37114158  0.14416228  1
  Fe  Fe39  1  0.62121482  0.87278720  0.88732597  1
  Fe  Fe40  1  0.87378606  0.62381903  0.13140240  1
  Fe  Fe41  1  0.62523139  0.12601936  0.63245750  1
  Fe  Fe42  1  0.37645604  0.36938137  0.13953396  1
  Fe  Fe43  1  0.87481859  0.62287942  0.88935205  1
  Fe  Fe44  1  0.87469311  0.37450011  0.37656787  1
  Fe  Fe45  1  0.37538643  0.87793159  0.37790924  1
  Fe  Fe46  1  0.12593607  0.37688674  0.63616316  1
  Fe  Fe47  1  0.37714616  0.62077163  0.14353978  1
  Fe  Fe48  1  0.37515275  0.12249158  0.63800153  1
  Fe  Fe49  1  0.37464419  0.12400236  0.88326790  1
  Fe  Fe50  1  0.87521442  0.62544581  0.63715693  1
  Fe  Fe51  1  0.12310514  0.87619136  0.38044511  1
  Fe  Fe52  1  0.12351739  0.37347927  0.38540307  1
  Fe  Fe53  1  0.12412566  0.87915345  0.13460732  1
  Fe  Fe54  1  0.12881606  0.12791001  0.88560408  1
  Fe  Fe55  1  0.62780842  0.62926813  0.38328511  1
  Fe  Fe56  1  0.62450459  0.37813262  0.63377198  1
  Fe  Fe57  1  0.62575495  0.87945407  0.13122176  1
  Fe  Fe58  1  0.87874332  0.87294587  0.64820319  1
  Fe  Fe59  1  0.12895814  0.62168945  0.89566112  1
  Fe  Fe60  1  0.37611184  0.62524718  0.89032123  1
  Fe  Fe61  1  0.87201072  0.37465761  0.88511948  1
  Fe  Fe62  1  0.87568492  0.12553094  0.88138966  1
  Fe  Fe63  1  0.62828192  0.12253336  0.39650380  1
  Pb  Pb64  1  0.00135620  -0.00057572  -0.00715486  1
  Pb  Pb65  1  0.00569651  -0.00079457  0.24980962  1
  Pb  Pb66  1  -0.00150739  -0.00555665  0.50090493  1
  Pb  Pb67  1  0.00057391  0.00556947  0.75438910  1
  Pb  Pb68  1  -0.00595592  0.25118502  -0.00361830  1
  Pb  Pb69  1  0.00592578  0.25211901  0.25424368  1
  Pb  Pb70  1  0.00542209  0.25911856  0.49972529  1
  Pb  Pb71  1  -0.00318269  0.24617056  0.75392710  1
  Pb  Pb72  1  -0.00596702  0.50677340  0.00231459  1
  Pb  Pb73  1  -0.00299758  0.49929415  0.24302250  1
  Pb  Pb74  1  0.00279208  0.49857578  0.49260730  1
  Pb  Pb75  1  -0.00536749  0.50419301  0.75544337  1
  Pb  Pb76  1  -0.00058533  0.74262732  -0.00167189  1
  Pb  Pb77  1  0.01026795  0.74765304  0.24405507  1
  Pb  Pb78  1  -0.00668622  0.74835102  0.50059945  1
  Pb  Pb79  1  -0.00437403  0.74425418  0.75411903  1
  Pb  Pb80  1  0.24711241  -0.00309351  0.00100265  1
  Pb  Pb81  1  0.24937599  -0.00754274  0.25248245  1
  Pb  Pb82  1  0.24966018  -0.00169056  0.49492977  1
  Pb  Pb83  1  0.24951526  0.00720088  0.75303134  1
  Pb  Pb84  1  0.25497787  0.25272161  -0.00049345  1
  Pb  Pb85  1  0.23941353  0.24850475  0.25510079  1
  Pb  Pb86  1  0.24634923  0.25164446  0.49933936  1
  Pb  Pb87  1  0.25119028  0.24296586  0.75111653  1
  Pb  Pb88  1  0.25515728  0.50978594  0.00827684  1
  Pb  Pb89  1  0.24903303  0.50508100  0.24564954  1
  Pb  Pb90  1  0.24484481  0.50341067  0.48958531  1
  Pb  Pb91  1  0.24856302  0.50997152  0.75599726  1
  Pb  Pb92  1  0.24396335  0.74604288  0.00780270  1
  Pb  Pb93  1  0.24387981  0.74588207  0.24631616  1
  Pb  Pb94  1  0.24885904  0.75110110  0.48434556  1
  Pb  Pb95  1  0.24565838  0.74067612  0.75658916  1
  Pb  Pb96  1  0.50389585  -0.00411501  -0.00054492  1
  Pb  Pb97  1  0.49773968  -0.00008882  0.25177268  1
  Pb  Pb98  1  0.49707509  0.01000522  0.50620515  1
  Pb  Pb99  1  0.50040356  0.00022874  0.74953401  1
  Pb  Pb100  1  0.49710153  0.25400028  -0.00038696  1
  Pb  Pb101  1  0.51288083  0.24640893  0.25820284  1
  Pb  Pb102  1  0.50057225  0.24439930  0.50296354  1
  Pb  Pb103  1  0.50081670  0.24689175  0.74200864  1
  Pb  Pb104  1  0.49183351  0.49949875  0.00686496  1
  Pb  Pb105  1  0.50185527  0.50346282  0.25212404  1
  Pb  Pb106  1  0.50544147  0.50040582  0.49302197  1
  Pb  Pb107  1  0.49216773  0.50555023  0.74948891  1
  Pb  Pb108  1  0.49630579  0.74337036  0.00290249  1
  Pb  Pb109  1  0.50018271  0.74403401  0.25209068  1
  Pb  Pb110  1  0.49628626  0.74858851  0.49089519  1
  Pb  Pb111  1  0.50250074  0.75329523  0.75387240  1
  Pb  Pb112  1  0.74794453  -0.00458310  -0.00886840  1
  Pb  Pb113  1  0.74535444  0.00772394  0.25034828  1
  Pb  Pb114  1  0.75190154  -0.00452164  0.50565157  1
  Pb  Pb115  1  0.74915296  -0.00913225  0.75448571  1
  Pb  Pb116  1  0.75526877  0.25488062  -0.00110393  1
  Pb  Pb117  1  0.74270471  0.25006317  0.25772322  1
  Pb  Pb118  1  0.74067304  0.25650574  0.50148877  1
  Pb  Pb119  1  0.75528283  0.25294463  0.74784958  1
  Pb  Pb120  1  0.76101231  0.49535382  0.00434701  1
  Pb  Pb121  1  0.75033033  0.49174152  0.25141740  1
  Pb  Pb122  1  0.74820402  0.49692595  0.49603857  1
  Pb  Pb123  1  0.76184673  0.49924756  0.75474779  1
  Pb  Pb124  1  0.75308346  0.75171489  -0.00824184  1
  Pb  Pb125  1  0.74711490  0.74749171  0.24827714  1
  Pb  Pb126  1  0.76202076  0.75084747  0.50792941  1
  Pb  Pb127  1  0.75446428  0.75042718  0.75408791  1
  O  O128  1  0.12387305  0.00558887  0.16330760  1
  O  O129  1  0.12075230  0.00007816  0.41734360  1
  O  O130  1  0.12507087  0.00292790  0.66576235  1
  O  O131  1  0.12968893  -0.00527827  0.91257101  1
  O  O132  1  0.12456265  0.24658111  0.16575149  1
  O  O133  1  0.12377542  0.24663909  0.41797258  1
  O  O134  1  0.12497485  0.24513458  0.66228065  1
  O  O135  1  0.13022129  0.25974381  0.91518399  1
  O  O136  1  0.12476469  0.49200223  0.15669542  1
  O  O137  1  0.12302041  0.50186466  0.40964108  1
  O  O138  1  0.12730678  0.50660615  0.66341886  1
  O  O139  1  0.13101317  0.48816347  0.91703532  1
  O  O140  1  0.12516438  0.75480701  0.15856979  1
  O  O141  1  0.12254983  0.75161765  0.41045977  1
  O  O142  1  0.12762898  0.74523362  0.66675630  1
  O  O143  1  0.13014472  0.75655071  0.91600346  1
  O  O144  1  0.37813202  0.00832336  0.16698061  1
  O  O145  1  0.37682596  0.00529472  0.41318192  1
  O  O146  1  0.37372079  -0.00769378  0.66442994  1
  O  O147  1  0.37474220  -0.00611575  0.91288522  1
  O  O148  1  0.37648796  0.24152064  0.16846456  1
  O  O149  1  0.37482347  0.24785695  0.41426101  1
  O  O150  1  0.37334350  0.25738896  0.65886139  1
  O  O151  1  0.37853639  0.25520264  0.91380338  1
  O  O152  1  0.37832579  0.49325042  0.16759608  1
  O  O153  1  0.37575325  0.49277794  0.40427445  1
  O  O154  1  0.37416455  0.50164414  0.66461102  1
  O  O155  1  0.37867727  0.49242940  0.91701567  1
  O  O156  1  0.37922121  0.75723895  0.15725371  1
  O  O157  1  0.37799405  0.75275671  0.40592588  1
  O  O158  1  0.37370638  0.74974766  0.66782286  1
  O  O159  1  0.37549239  0.75636709  0.91647918  1
  O  O160  1  0.62486149  0.00475495  0.16511598  1
  O  O161  1  0.63089269  -0.00918528  0.41702781  1
  O  O162  1  0.62326339  -0.00677772  0.66389133  1
  O  O163  1  0.62101557  0.00804683  0.90849041  1
  O  O164  1  0.62594846  0.24813095  0.16833150  1
  O  O165  1  0.62642457  0.24854875  0.41918061  1
  O  O166  1  0.62495074  0.25278805  0.66000102  1
  O  O167  1  0.62125512  0.24915256  0.91028550  1
  O  O168  1  0.62540645  0.49659495  0.16146252  1
  O  O169  1  0.62678987  0.50267466  0.41257108  1
  O  O170  1  0.62071411  0.50750514  0.66110044  1
  O  O171  1  0.62045842  0.50072185  0.91427978  1
  O  O172  1  0.62638124  0.74903619  0.15737873  1
  O  O173  1  0.62819074  0.75896838  0.41583389  1
  O  O174  1  0.62113005  0.74839886  0.66794956  1
  O  O175  1  0.62133643  0.74113324  0.91207224  1
  O  O176  1  0.87236099  0.00468660  0.16406101  1
  O  O177  1  0.87310802  -0.00533402  0.41715982  1
  O  O178  1  0.87711226  0.00594540  0.66457129  1
  O  O179  1  0.87583205  0.00031375  0.90884597  1
  O  O180  1  0.87306227  0.23887748  0.16428285  1
  O  O181  1  0.87397067  0.24350707  0.40344160  1
  O  O182  1  0.87701810  0.25046956  0.66437408  1
  O  O183  1  0.87256594  0.24987264  0.91535148  1
  O  O184  1  0.87217159  0.49917672  0.16316617  1
  O  O185  1  0.87430785  0.50805000  0.40185651  1
  O  O186  1  0.87682164  0.49726000  0.66336398  1
  O  O187  1  0.87277757  0.49652223  0.91725962  1
  O  O188  1  0.86964305  0.75846532  0.15481594  1
  O  O189  1  0.87322545  0.75440658  0.41481798  1
  O  O190  1  0.87586538  0.74642047  0.67183422  1
  O  O191  1  0.87426759  0.75081083  0.90850122  1
  O  O192  1  -0.00429100  0.12347010  0.16016225  1
  O  O193  1  -0.01065727  0.11977397  0.41727217  1
  O  O194  1  0.00164497  0.12564351  0.66667516  1
  O  O195  1  0.00338368  0.12777460  0.91386184  1
  O  O196  1  0.00700571  0.36868751  0.16161413  1
  O  O197  1  -0.00463480  0.37480876  0.41376112  1
  O  O198  1  -0.00367963  0.37532739  0.66561562  1
  O  O199  1  0.00575887  0.37313143  0.90658545  1
  O  O200  1  -0.00258008  0.62582846  0.15951618  1
  O  O201  1  -0.00908868  0.63052087  0.40879469  1
  O  O202  1  0.00733703  0.62512495  0.66313864  1
  O  O203  1  0.00240238  0.62234379  0.91509731  1
  O  O204  1  -0.01114143  0.88124653  0.15886361  1
  O  O205  1  -0.00846229  0.87502027  0.41272576  1
  O  O206  1  0.00949046  0.87362836  0.66994176  1
  O  O207  1  0.00656800  0.87547875  0.90747708  1
  O  O208  1  0.25383831  0.12473678  0.16103136  1
  O  O209  1  0.25475358  0.12436167  0.41284684  1
  O  O210  1  0.24545499  0.12445284  0.66260280  1
  O  O211  1  0.25260023  0.12734731  0.91760346  1
  O  O212  1  0.24400299  0.36840721  0.16401352  1
  O  O213  1  0.25728866  0.37104630  0.41238124  1
  O  O214  1  0.25535680  0.37810758  0.66366708  1
  O  O215  1  0.25629963  0.37334351  0.91155623  1
  O  O216  1  0.24975467  0.62408828  0.16063649  1
  O  O217  1  0.25195879  0.62442827  0.40569945  1
  O  O218  1  0.24887509  0.62552736  0.66624683  1
  O  O219  1  0.25432356  0.62318320  0.92275726  1
  O  O220  1  0.25813115  0.88279903  0.16077167  1
  O  O221  1  0.25064727  0.87922982  0.40931008  1
  O  O222  1  0.24778632  0.87319426  0.66834153  1
  O  O223  1  0.25410615  0.87506191  0.91681927  1
  O  O224  1  0.49935176  0.12620129  0.16548398  1
  O  O225  1  0.49553217  0.12458012  0.41604712  1
  O  O226  1  0.50094500  0.12322764  0.66429042  1
  O  O227  1  0.50350238  0.12681935  0.91143989  1
  O  O228  1  0.50805087  0.36944704  0.16825488  1
  O  O229  1  0.49194590  0.37116527  0.41202867  1
  O  O230  1  0.49125073  0.37923313  0.66188825  1
  O  O231  1  0.49973369  0.37402488  0.91631198  1
  O  O232  1  0.51027073  0.62409544  0.16484796  1
  O  O233  1  0.50082472  0.62666149  0.41191500  1
  O  O234  1  0.50096921  0.62744268  0.66553647  1
  O  O235  1  0.50372740  0.62293409  0.91831055  1
  O  O236  1  0.49787395  0.88156639  0.16465235  1
  O  O237  1  0.50759977  0.87708903  0.40642963  1
  O  O238  1  0.49904652  0.87160698  0.66674438  1
  O  O239  1  0.49324833  0.87516292  0.91564150  1
  O  O240  1  0.75085377  0.12393056  0.16449876  1
  O  O241  1  0.76050044  0.11920411  0.42096945  1
  O  O242  1  0.75483401  0.12551481  0.66059525  1
  O  O243  1  0.74029419  0.12728047  0.90797410  1
  O  O244  1  0.74106484  0.37085608  0.16650479  1
  O  O245  1  0.75563436  0.37542509  0.41608946  1
  O  O246  1  0.75733249  0.37625772  0.66203682  1
  O  O247  1  0.74124513  0.37426213  0.91349048  1
  O  O248  1  0.74447372  0.62451843  0.16338361  1
  O  O249  1  0.75667012  0.63155817  0.41332927  1
  O  O250  1  0.74127700  0.62724476  0.66077561  1
  O  O251  1  0.74026467  0.62159219  0.91166047  1
  O  O252  1  0.75440252  0.88115820  0.16216683  1
  O  O253  1  0.75264006  0.87437020  0.41769274  1
  O  O254  1  0.74193926  0.87243155  0.66610606  1
  O  O255  1  0.74758105  0.87641721  0.90884096  1
  O  O256  1  0.12491944  0.12708271  0.04756264  1
  O  O257  1  0.11904149  0.12866297  0.28516670  1
  O  O258  1  0.12155738  0.12286441  0.55103197  1
  O  O259  1  0.13022686  0.12652719  0.78527228  1
  O  O260  1  0.12808893  0.36898524  0.04799102  1
  O  O261  1  0.12433520  0.36391095  0.28551045  1
  O  O262  1  0.12214630  0.37502914  0.53648440  1
  O  O263  1  0.12777641  0.37632349  0.79616596  1
  O  O264  1  0.12647236  0.62687357  0.03145795  1
  O  O265  1  0.12328865  0.63177117  0.27697960  1
  O  O266  1  0.12765672  0.62514198  0.54952364  1
  O  O267  1  0.13665300  0.62314510  0.79421866  1
  O  O268  1  0.12811497  0.88121831  0.03462130  1
  O  O269  1  0.12124371  0.88133412  0.27945060  1
  O  O270  1  0.12601015  0.87368472  0.55000560  1
  O  O271  1  0.13096021  0.87223083  0.80087816  1
  O  O272  1  0.37744865  0.12703517  0.04963219  1
  O  O273  1  0.37637649  0.12517667  0.30058875  1
  O  O274  1  0.38108082  0.12106417  0.53811662  1
  O  O275  1  0.36761971  0.12612884  0.78290259  1
  O  O276  1  0.38103525  0.36820552  0.03959951  1
  O  O277  1  0.37528483  0.36875004  0.29449802  1
  O  O278  1  0.37160114  0.37919447  0.54617295  1
  O  O279  1  0.37665832  0.37674536  0.80005807  1
  O  O280  1  0.38433379  0.61869923  0.04142225  1
  O  O281  1  0.38353696  0.62688522  0.27407819  1
  O  O282  1  0.37473607  0.62627080  0.54888076  1
  O  O283  1  0.37221307  0.61843032  0.79007525  1
  O  O284  1  0.38021060  0.88304882  0.05189759  1
  O  O285  1  0.37443468  0.88542140  0.27818422  1
  O  O286  1  0.37266152  0.87214329  0.54834381  1
  O  O287  1  0.37443769  0.87304769  0.79898409  1
  O  O288  1  0.62527390  0.12634539  0.04806362  1
  O  O289  1  0.63158143  0.12739763  0.29535277  1
  O  O290  1  0.62115383  0.11966186  0.53178004  1
  O  O291  1  0.62121177  0.12768332  0.79313579  1
  O  O292  1  0.62322306  0.37170176  0.05172283  1
  O  O293  1  0.62940873  0.36642361  0.28925343  1
  O  O294  1  0.62939399  0.38201145  0.53367098  1
  O  O295  1  0.62156857  0.37802208  0.79472413  1
  O  O296  1  0.62664449  0.62462277  0.04888658  1
  O  O297  1  0.62632894  0.63478001  0.28361116  1
  O  O298  1  0.62174443  0.62736972  0.54778497  1
  O  O299  1  0.62058579  0.62028461  0.79772050  1
  O  O300  1  0.62276063  0.88427349  0.03169292  1
  O  O301  1  0.63127264  0.87465681  0.29703277  1
  O  O302  1  0.62180381  0.87173053  0.55362816  1
  O  O303  1  0.61855372  0.87379400  0.78681839  1
  O  O304  1  0.87353563  0.12471096  0.04714381  1
  O  O305  1  0.87305126  0.11784487  0.29819938  1
  O  O306  1  0.87956522  0.12619567  0.55334961  1
  O  O307  1  0.87905207  0.13133800  0.78101476  1
  O  O308  1  0.86619319  0.36975805  0.04276131  1
  O  O309  1  0.87308010  0.37549683  0.27559620  1
  O  O310  1  0.87919694  0.37581898  0.55022774  1
  O  O311  1  0.86966160  0.37902725  0.78475320  1
  O  O312  1  0.87374006  0.62074045  0.03050896  1
  O  O313  1  0.86944209  0.63334850  0.29426583  1
  O  O314  1  0.87623980  0.63379588  0.53757255  1
  O  O315  1  0.87551358  0.61326964  0.78690370  1
  O  O316  1  0.87060520  0.87982087  0.04340339  1
  O  O317  1  0.87105486  0.87690702  0.29995478  1
  O  O318  1  0.87478952  0.86875148  0.54730015  1
  O  O319  1  0.86994165  0.87727792  0.77635338  1
