# generated using pymatgen
data_VFe(PbO3)2
_symmetry_space_group_name_H-M   'P 1'
_cell_length_a   15.39062567
_cell_length_b   15.39516425
_cell_length_c   18.48578681
_cell_angle_alpha   90.02391717
_cell_angle_beta   90.03157266
_cell_angle_gamma   90.00379051
_symmetry_Int_Tables_number   1
_chemical_formula_structural   VFe(PbO3)2
_chemical_formula_sum   'V32 Fe32 Pb64 O192'
_cell_volume   4380.04364194
_cell_formula_units_Z   32
loop_
 _symmetry_equiv_pos_site_id
 _symmetry_equiv_pos_as_xyz
  1  'x, y, z'
loop_
 _atom_site_type_symbol
 _atom_site_label
 _atom_site_symmetry_multiplicity
 _atom_site_fract_x
 _atom_site_fract_y
 _atom_site_fract_z
 _atom_site_occupancy
  V  V0  1  0.37601533  0.37453917  0.15071097  1
  V  V1  1  0.62441392  0.87596568  0.88944797  1
  V  V2  1  0.37547683  0.87347419  0.38390715  1
  V  V3  1  0.12510136  0.12487735  0.89602326  1
  V  V4  1  0.87696115  0.62237530  0.89129590  1
  V  V5  1  0.62453720  0.37902341  0.15682380  1
  V  V6  1  0.87674727  0.12816772  0.89141317  1
  V  V7  1  0.37469962  0.12695412  0.89249305  1
  V  V8  1  0.37221448  0.37929872  0.63327757  1
  V  V9  1  0.12546181  0.63133476  0.38098624  1
  V  V10  1  0.12487787  0.62454723  0.89936245  1
  V  V11  1  0.37770852  0.62814521  0.14379486  1
  V  V12  1  0.87320621  0.62822543  0.13997675  1
  V  V13  1  0.37646262  0.37671730  0.89262373  1
  V  V14  1  0.37050461  0.63140120  0.63532507  1
  V  V15  1  0.12542479  0.37441721  0.89475122  1
  V  V16  1  0.87553670  0.87404495  0.89509676  1
  V  V17  1  0.37629113  0.87354009  0.89948215  1
  V  V18  1  0.12561789  0.11804177  0.38080081  1
  V  V19  1  0.12682118  0.87489685  0.64273101  1
  V  V20  1  0.12680928  0.12797573  0.13870624  1
  V  V21  1  0.88465162  0.87344451  0.38701708  1
  V  V22  1  0.37352891  0.62354872  0.89613003  1
  V  V23  1  0.87527101  0.12685444  0.14272738  1
  V  V24  1  0.63445238  0.87503505  0.39090900  1
  V  V25  1  0.12565064  0.12725258  0.63975617  1
  V  V26  1  0.62720432  0.12589633  0.14564306  1
  V  V27  1  0.87622738  0.37334910  0.63251112  1
  V  V28  1  0.37299771  0.12594455  0.63628266  1
  V  V29  1  0.87135035  0.37609141  0.14854906  1
  V  V30  1  0.62758880  0.87406681  0.14123646  1
  V  V31  1  0.37872560  0.12597256  0.14883575  1
  Fe  Fe32  1  0.12667339  0.62381660  0.63555475  1
  Fe  Fe33  1  0.87726751  0.12190674  0.38828144  1
  Fe  Fe34  1  0.12356072  0.37480453  0.37471300  1
  Fe  Fe35  1  0.62399796  0.12020941  0.39375106  1
  Fe  Fe36  1  0.87374245  0.87639613  0.63340978  1
  Fe  Fe37  1  0.38201946  0.87756960  0.13355390  1
  Fe  Fe38  1  0.12734094  0.87469985  0.37574098  1
  Fe  Fe39  1  0.87755244  0.62539002  0.62869251  1
  Fe  Fe40  1  0.87827251  0.12298549  0.62976820  1
  Fe  Fe41  1  0.62269863  0.37422498  0.62553389  1
  Fe  Fe42  1  0.86956643  0.87818612  0.13303601  1
  Fe  Fe43  1  0.12676961  0.37343321  0.63156670  1
  Fe  Fe44  1  0.12656861  0.87604483  0.89907580  1
  Fe  Fe45  1  0.87654352  0.37665722  0.88653412  1
  Fe  Fe46  1  0.62528146  0.37513670  0.38017932  1
  Fe  Fe47  1  0.12483303  0.62198270  0.13475474  1
  Fe  Fe48  1  0.37198541  0.12358667  0.37740246  1
  Fe  Fe49  1  0.62536837  0.37497509  0.88651700  1
  Fe  Fe50  1  0.62333264  0.62277622  0.63068758  1
  Fe  Fe51  1  0.62377580  0.62949658  0.37980056  1
  Fe  Fe52  1  0.12367792  0.37464591  0.15019768  1
  Fe  Fe53  1  0.37203926  0.87813416  0.63534521  1
  Fe  Fe54  1  0.87571140  0.62770069  0.38948148  1
  Fe  Fe55  1  0.62488367  0.62498196  0.88757188  1
  Fe  Fe56  1  0.62421231  0.12545357  0.88531507  1
  Fe  Fe57  1  0.37221905  0.37661774  0.37749925  1
  Fe  Fe58  1  0.37310376  0.62722339  0.37808274  1
  Fe  Fe59  1  0.87696411  0.37530950  0.38143206  1
  Fe  Fe60  1  0.62418922  0.12670298  0.62391117  1
  Fe  Fe61  1  0.12386237  0.87712142  0.13526378  1
  Fe  Fe62  1  0.61950776  0.87475476  0.62870497  1
  Fe  Fe63  1  0.62640863  0.62419622  0.14769640  1
  Pb  Pb64  1  -0.00044750  -0.00612172  0.00572896  1
  Pb  Pb65  1  -0.00480154  0.00284933  0.24698115  1
  Pb  Pb66  1  -0.00573376  -0.00304283  0.50173316  1
  Pb  Pb67  1  -0.00102169  -0.00221745  0.75095563  1
  Pb  Pb68  1  0.00600455  0.25702215  0.00817890  1
  Pb  Pb69  1  -0.00668040  0.25134775  0.25629385  1
  Pb  Pb70  1  0.00096049  0.25162326  0.48947749  1
  Pb  Pb71  1  -0.01019695  0.25780419  0.75011934  1
  Pb  Pb72  1  0.01007279  0.49561325  0.01137552  1
  Pb  Pb73  1  -0.00115161  0.49688759  0.25277372  1
  Pb  Pb74  1  0.00256866  0.50086739  0.49117911  1
  Pb  Pb75  1  -0.00149119  0.49674776  0.74360695  1
  Pb  Pb76  1  0.00466400  0.75145699  0.00648230  1
  Pb  Pb77  1  0.00393237  0.75621665  0.24272780  1
  Pb  Pb78  1  0.00366870  0.74066687  0.50296995  1
  Pb  Pb79  1  -0.00394747  0.74547730  0.74758993  1
  Pb  Pb80  1  0.25381441  -0.00584702  0.00828817  1
  Pb  Pb81  1  0.25311472  -0.00202706  0.24508794  1
  Pb  Pb82  1  0.25493510  -0.00620925  0.49475086  1
  Pb  Pb83  1  0.24421886  -0.00500961  0.75765285  1
  Pb  Pb84  1  0.25049137  0.25365671  0.00696458  1
  Pb  Pb85  1  0.25639975  0.25167399  0.25569230  1
  Pb  Pb86  1  0.24593734  0.25615531  0.48766228  1
  Pb  Pb87  1  0.25260805  0.24830982  0.74888022  1
  Pb  Pb88  1  0.24406309  0.49731394  0.01061096  1
  Pb  Pb89  1  0.25301537  0.49944513  0.25185470  1
  Pb  Pb90  1  0.24242071  0.49860776  0.48957018  1
  Pb  Pb91  1  0.24887586  0.49830417  0.74593362  1
  Pb  Pb92  1  0.24561207  0.75144178  0.01014777  1
  Pb  Pb93  1  0.24537272  0.75797940  0.24191992  1
  Pb  Pb94  1  0.24986890  0.75171860  0.49552953  1
  Pb  Pb95  1  0.24205450  0.75717086  0.75792897  1
  Pb  Pb96  1  0.49743965  -0.00228062  0.00340739  1
  Pb  Pb97  1  0.50679426  0.00663782  0.25697661  1
  Pb  Pb98  1  0.49999309  -0.00327599  0.49773097  1
  Pb  Pb99  1  0.50392329  0.00390719  0.74271806  1
  Pb  Pb100  1  0.50253904  0.25186180  0.00156247  1
  Pb  Pb101  1  0.51088897  0.24748026  0.26379656  1
  Pb  Pb102  1  0.50252915  0.25101383  0.48616294  1
  Pb  Pb103  1  0.51278071  0.25108599  0.74829768  1
  Pb  Pb104  1  0.50881602  0.50536214  0.00738074  1
  Pb  Pb105  1  0.49272068  0.50151643  0.26100758  1
  Pb  Pb106  1  0.50431292  0.50193113  0.48338635  1
  Pb  Pb107  1  0.51595487  0.49859660  0.75300964  1
  Pb  Pb108  1  0.50441329  0.74498201  0.00627424  1
  Pb  Pb109  1  0.50316095  0.74406452  0.25316459  1
  Pb  Pb110  1  0.50438222  0.75105632  0.49819346  1
  Pb  Pb111  1  0.50290950  0.74750484  0.74514019  1
  Pb  Pb112  1  0.75414422  -0.00191999  0.00068354  1
  Pb  Pb113  1  0.75076192  0.01170805  0.25795637  1
  Pb  Pb114  1  0.75853239  0.00036202  0.50302337  1
  Pb  Pb115  1  0.74430409  0.00418679  0.73641893  1
  Pb  Pb116  1  0.74756869  0.25506951  -0.00182295  1
  Pb  Pb117  1  0.74891251  0.25216607  0.26313117  1
  Pb  Pb118  1  0.74520236  0.24851819  0.48834854  1
  Pb  Pb119  1  0.74369340  0.24796862  0.74074151  1
  Pb  Pb120  1  0.74395715  0.50316211  0.00050868  1
  Pb  Pb121  1  0.76088427  0.50339099  0.26388668  1
  Pb  Pb122  1  0.74406918  0.49990491  0.48714430  1
  Pb  Pb123  1  0.74696922  0.49782073  0.74034879  1
  Pb  Pb124  1  0.75120192  0.74991513  0.00176116  1
  Pb  Pb125  1  0.75477291  0.73977590  0.25669719  1
  Pb  Pb126  1  0.74921289  0.73959570  0.50255179  1
  Pb  Pb127  1  0.74671250  0.74717639  0.73750630  1
  O  O128  1  0.12441708  0.00948872  0.15878332  1
  O  O129  1  0.12758174  0.00073417  0.40600279  1
  O  O130  1  0.12886711  -0.00091057  0.66795818  1
  O  O131  1  0.12732974  0.00662607  0.92138814  1
  O  O132  1  0.12286764  0.24204396  0.16699501  1
  O  O133  1  0.12421804  0.24087228  0.40150303  1
  O  O134  1  0.12717975  0.24358787  0.66211336  1
  O  O135  1  0.12564149  0.25012281  0.92398889  1
  O  O136  1  0.12342610  0.50152289  0.16666851  1
  O  O137  1  0.12383090  0.50976131  0.40017650  1
  O  O138  1  0.12920477  0.49723241  0.66578932  1
  O  O139  1  0.12598422  0.49808703  0.92312801  1
  O  O140  1  0.12411419  0.74732890  0.15705348  1
  O  O141  1  0.12534777  0.74923877  0.40864399  1
  O  O142  1  0.12926179  0.75602795  0.66741621  1
  O  O143  1  0.12691380  0.74591660  0.92214589  1
  O  O144  1  0.37761002  0.00347886  0.16335422  1
  O  O145  1  0.37003618  -0.00658322  0.40838158  1
  O  O146  1  0.36845872  0.00937929  0.66592568  1
  O  O147  1  0.37538556  0.00193491  0.91975924  1
  O  O148  1  0.37831555  0.25219363  0.17161436  1
  O  O149  1  0.36920337  0.24954182  0.40251296  1
  O  O150  1  0.36605444  0.24400126  0.66147119  1
  O  O151  1  0.37390227  0.25225617  0.92168801  1
  O  O152  1  0.38007739  0.49636273  0.16516485  1
  O  O153  1  0.37010668  0.50295983  0.40882571  1
  O  O154  1  0.36507307  0.49459754  0.65233808  1
  O  O155  1  0.37336397  0.50319073  0.92022252  1
  O  O156  1  0.38143838  0.74650979  0.15775795  1
  O  O157  1  0.37069966  0.75560743  0.40783106  1
  O  O158  1  0.37074241  0.74562481  0.66053168  1
  O  O159  1  0.37529591  0.74441943  0.92238649  1
  O  O160  1  0.62557571  0.00365496  0.16735690  1
  O  O161  1  0.61933090  -0.01070154  0.41454621  1
  O  O162  1  0.61879328  0.00318024  0.65792689  1
  O  O163  1  0.62470714  -0.00482527  0.91343982  1
  O  O164  1  0.62638664  0.24247730  0.17023493  1
  O  O165  1  0.62369206  0.24882387  0.40576580  1
  O  O166  1  0.62135321  0.25118234  0.65911445  1
  O  O167  1  0.62455094  0.24908915  0.91912438  1
  O  O168  1  0.62701370  0.49365085  0.16923039  1
  O  O169  1  0.62576751  0.50264210  0.39839623  1
  O  O170  1  0.62045881  0.49658053  0.66099218  1
  O  O171  1  0.62438217  0.50091952  0.91916755  1
  O  O172  1  0.62596284  0.75777947  0.16070325  1
  O  O173  1  0.62051154  0.75876491  0.41250802  1
  O  O174  1  0.61763525  0.74710166  0.66192245  1
  O  O175  1  0.62476493  0.75541623  0.91489451  1
  O  O176  1  0.87264258  0.00615121  0.16308190  1
  O  O177  1  0.87562458  -0.00990882  0.41350064  1
  O  O178  1  0.87978839  0.00029050  0.66936675  1
  O  O179  1  0.87581725  0.00377273  0.91722504  1
  O  O180  1  0.87194081  0.24889863  0.16930586  1
  O  O181  1  0.88005839  0.24824948  0.40810066  1
  O  O182  1  0.88003329  0.25275785  0.65892276  1
  O  O183  1  0.87883068  0.24384581  0.91615786  1
  O  O184  1  0.87056438  0.49658696  0.16562976  1
  O  O185  1  0.87733678  0.50139877  0.41020122  1
  O  O186  1  0.87868856  0.49247638  0.65690102  1
  O  O187  1  0.87680931  0.50737146  0.91356991  1
  O  O188  1  0.87025281  0.74594091  0.15663294  1
  O  O189  1  0.87431691  0.76007907  0.41219884  1
  O  O190  1  0.87831469  0.75161189  0.66431598  1
  O  O191  1  0.87471565  0.74782264  0.91981528  1
  O  O192  1  0.00060213  0.12659129  0.16254208  1
  O  O193  1  0.00953800  0.11843201  0.40988784  1
  O  O194  1  0.01007934  0.12092446  0.66450922  1
  O  O195  1  -0.00142954  0.12430213  0.92091247  1
  O  O196  1  -0.01014344  0.37224543  0.16515306  1
  O  O197  1  0.00331776  0.37553137  0.40888575  1
  O  O198  1  -0.00193549  0.37288758  0.66084625  1
  O  O199  1  0.00341204  0.37472512  0.92058155  1
  O  O200  1  -0.01008081  0.62127218  0.16078821  1
  O  O201  1  0.00736731  0.63137546  0.40904548  1
  O  O202  1  0.00194436  0.62514066  0.66673202  1
  O  O203  1  -0.00346552  0.62724828  0.91860478  1
  O  O204  1  -0.00487326  0.87637162  0.15719197  1
  O  O205  1  -0.00025939  0.87575697  0.40406695  1
  O  O206  1  0.01056966  0.87665270  0.66582472  1
  O  O207  1  -0.00314952  0.87616014  0.91905906  1
  O  O208  1  0.24612789  0.12771507  0.16152306  1
  O  O209  1  0.24262187  0.12161255  0.40753418  1
  O  O210  1  0.24491231  0.12339793  0.66971583  1
  O  O211  1  0.25165970  0.12822620  0.92260785  1
  O  O212  1  0.25708900  0.37264550  0.16196265  1
  O  O213  1  0.24539976  0.37631113  0.40613324  1
  O  O214  1  0.25505847  0.36916033  0.66782943  1
  O  O215  1  0.25081377  0.37571163  0.92319498  1
  O  O216  1  0.25863943  0.62154033  0.15867379  1
  O  O217  1  0.24270457  0.62981486  0.40584877  1
  O  O218  1  0.25574269  0.62373555  0.66927978  1
  O  O219  1  0.25425591  0.62380449  0.92299440  1
  O  O220  1  0.25399458  0.87565491  0.15595205  1
  O  O221  1  0.25274982  0.87413049  0.40878866  1
  O  O222  1  0.24655213  0.87691328  0.67248592  1
  O  O223  1  0.25573629  0.87447500  0.92439296  1
  O  O224  1  0.50540413  0.12539697  0.16886910  1
  O  O225  1  0.49438973  0.12018727  0.40799719  1
  O  O226  1  0.48899347  0.12718087  0.65434925  1
  O  O227  1  0.49500540  0.12610614  0.91758303  1
  O  O228  1  0.50393120  0.37089646  0.17208240  1
  O  O229  1  0.49773084  0.37672019  0.40078457  1
  O  O230  1  0.48574965  0.37008313  0.65608837  1
  O  O231  1  0.49553164  0.37581866  0.91984706  1
  O  O232  1  0.49659543  0.62188938  0.16807106  1
  O  O233  1  0.49839574  0.63014861  0.40491931  1
  O  O234  1  0.48416611  0.61941644  0.66101269  1
  O  O235  1  0.49352825  0.62468942  0.91977147  1
  O  O236  1  0.50971060  0.87933939  0.16750040  1
  O  O237  1  0.49153648  0.87467006  0.40697204  1
  O  O238  1  0.49422776  0.87666759  0.66778637  1
  O  O239  1  0.50585773  0.87479244  0.91860043  1
  O  O240  1  0.74729233  0.12474961  0.16742109  1
  O  O241  1  0.75175686  0.11816993  0.41188204  1
  O  O242  1  0.75149442  0.12603198  0.65464090  1
  O  O243  1  0.75782961  0.12496422  0.91225135  1
  O  O244  1  0.75032498  0.36968869  0.17171266  1
  O  O245  1  0.75129588  0.37430717  0.40541365  1
  O  O246  1  0.75675235  0.37319319  0.65293691  1
  O  O247  1  0.75261346  0.37483593  0.91750726  1
  O  O248  1  0.75648514  0.62169133  0.16748940  1
  O  O249  1  0.74812163  0.63293792  0.41089181  1
  O  O250  1  0.75152677  0.62221188  0.65827475  1
  O  O251  1  0.75657665  0.62674069  0.91430814  1
  O  O252  1  0.74323610  0.88064040  0.16659807  1
  O  O253  1  0.74934293  0.87559865  0.40778526  1
  O  O254  1  0.74631062  0.87556524  0.65990028  1
  O  O255  1  0.74476562  0.87560232  0.91541600  1
  O  O256  1  0.12521214  0.13176434  0.04707873  1
  O  O257  1  0.12450913  0.11706568  0.28927831  1
  O  O258  1  0.12830178  0.12303296  0.54929040  1
  O  O259  1  0.12447162  0.12751836  0.80511480  1
  O  O260  1  0.11982139  0.37529615  0.04697716  1
  O  O261  1  0.12178173  0.37377771  0.27300340  1
  O  O262  1  0.13165946  0.37473789  0.53256942  1
  O  O263  1  0.12700241  0.37360407  0.80376279  1
  O  O264  1  0.12331437  0.61748470  0.03348611  1
  O  O265  1  0.12376854  0.63507789  0.28936827  1
  O  O266  1  0.12428668  0.63188382  0.53650260  1
  O  O267  1  0.12721500  0.62180864  0.80806731  1
  O  O268  1  0.12454602  0.87679731  0.03236679  1
  O  O269  1  0.12796848  0.86900397  0.27530387  1
  O  O270  1  0.13023230  0.87519137  0.55171543  1
  O  O271  1  0.13610458  0.87607454  0.79863854  1
  O  O272  1  0.37867279  0.13052842  0.05700590  1
  O  O273  1  0.36750812  0.12013706  0.27610131  1
  O  O274  1  0.36447370  0.12277189  0.54558289  1
  O  O275  1  0.37249934  0.12861766  0.80155318  1
  O  O276  1  0.38266781  0.37281964  0.05918695  1
  O  O277  1  0.36901331  0.38216391  0.27546584  1
  O  O278  1  0.36640355  0.37175433  0.54246364  1
  O  O279  1  0.37526456  0.37546417  0.80181019  1
  O  O280  1  0.38258220  0.62165321  0.05214367  1
  O  O281  1  0.37618688  0.62271836  0.27742750  1
  O  O282  1  0.36537872  0.63144545  0.54417692  1
  O  O283  1  0.37168243  0.62547595  0.80569601  1
  O  O284  1  0.38669390  0.88022241  0.03325178  1
  O  O285  1  0.37343858  0.87475827  0.29195884  1
  O  O286  1  0.36630277  0.87900894  0.53635945  1
  O  O287  1  0.37612888  0.87247203  0.80821787  1
  O  O288  1  0.62649854  0.12553005  0.05436139  1
  O  O289  1  0.62520095  0.11540428  0.29004102  1
  O  O290  1  0.61926567  0.12598076  0.52351432  1
  O  O291  1  0.62066712  0.13219213  0.78584907  1
  O  O292  1  0.62687686  0.37047728  0.06471475  1
  O  O293  1  0.62793174  0.36309141  0.27575220  1
  O  O294  1  0.62085909  0.37518586  0.52615819  1
  O  O295  1  0.61783045  0.37443883  0.78596101  1
  O  O296  1  0.62257596  0.62102387  0.04613476  1
  O  O297  1  0.62741366  0.63888756  0.27630043  1
  O  O298  1  0.62073403  0.63004689  0.53069270  1
  O  O299  1  0.61638514  0.61693126  0.78785482  1
  O  O300  1  0.62682223  0.87890485  0.04953616  1
  O  O301  1  0.62699109  0.87535923  0.29933785  1
  O  O302  1  0.61329552  0.87252021  0.52865797  1
  O  O303  1  0.62103943  0.87482812  0.79882133  1
  O  O304  1  0.87285941  0.12903915  0.05156223  1
  O  O305  1  0.88035927  0.11490294  0.28622009  1
  O  O306  1  0.88442900  0.11160639  0.52988980  1
  O  O307  1  0.88255454  0.12812834  0.80055429  1
  O  O308  1  0.86915577  0.37404601  0.05702346  1
  O  O309  1  0.87717818  0.37678361  0.27930443  1
  O  O310  1  0.88138181  0.37181745  0.54195903  1
  O  O311  1  0.88162499  0.37101830  0.78731277  1
  O  O312  1  0.87035673  0.62190580  0.04867628  1
  O  O313  1  0.86927856  0.62798634  0.28731617  1
  O  O314  1  0.88260148  0.63362963  0.52804136  1
  O  O315  1  0.87944087  0.62641053  0.80036371  1
  O  O316  1  0.86409966  0.88008392  0.03242984  1
  O  O317  1  0.87767639  0.87530439  0.29507923  1
  O  O318  1  0.88039638  0.88422608  0.53397860  1
  O  O319  1  0.87439402  0.87387176  0.80426421  1
