# generated using pymatgen
data_VFe(PbO3)2
_symmetry_space_group_name_H-M   'P 1'
_cell_length_a   15.38747695
_cell_length_b   15.36654662
_cell_length_c   18.56688976
_cell_angle_alpha   90.05615075
_cell_angle_beta   89.96331013
_cell_angle_gamma   90.00217826
_symmetry_Int_Tables_number   1
_chemical_formula_structural   VFe(PbO3)2
_chemical_formula_sum   'V32 Fe32 Pb64 O192'
_cell_volume   4390.18229714
_cell_formula_units_Z   32
loop_
 _symmetry_equiv_pos_site_id
 _symmetry_equiv_pos_as_xyz
  1  'x, y, z'
loop_
 _atom_site_type_symbol
 _atom_site_label
 _atom_site_symmetry_multiplicity
 _atom_site_fract_x
 _atom_site_fract_y
 _atom_site_fract_z
 _atom_site_occupancy
  V  V0  1  0.62667694  0.12800536  0.88906924  1
  V  V1  1  0.12526264  0.62544253  0.39320710  1
  V  V2  1  0.12663415  0.12844384  0.39159501  1
  V  V3  1  0.62616007  0.62254278  0.14070197  1
  V  V4  1  0.12484023  0.37682855  0.39060150  1
  V  V5  1  0.62500939  0.62772997  0.63941710  1
  V  V6  1  0.62876643  0.88141572  0.63704104  1
  V  V7  1  0.87204336  0.37465035  0.63910883  1
  V  V8  1  0.12449835  0.62558741  0.13987731  1
  V  V9  1  0.37500199  0.37366776  0.13810901  1
  V  V10  1  0.37467901  0.62370760  0.13958447  1
  V  V11  1  0.12378135  0.87808860  0.39103639  1
  V  V12  1  0.37743619  0.62633879  0.88777859  1
  V  V13  1  0.62253227  0.12459753  0.13851898  1
  V  V14  1  0.12461508  0.87799392  0.88932457  1
  V  V15  1  0.87600838  0.63112947  0.89816634  1
  V  V16  1  0.12555660  0.62636391  0.88785492  1
  V  V17  1  0.12574709  0.12420679  0.13796395  1
  V  V18  1  0.87594885  0.87153060  0.14228514  1
  V  V19  1  0.87441976  0.12420752  0.14031901  1
  V  V20  1  0.62303585  0.12358239  0.38448394  1
  V  V21  1  0.37202285  0.37369243  0.39475021  1
  V  V22  1  0.87007057  0.12462830  0.63850317  1
  V  V23  1  0.12410853  0.37811542  0.88940648  1
  V  V24  1  0.62308376  0.37388759  0.38797822  1
  V  V25  1  0.62528336  0.87508422  0.89197646  1
  V  V26  1  0.12253980  0.12964168  0.88725221  1
  V  V27  1  0.87484787  0.62224693  0.38596414  1
  V  V28  1  0.87596907  0.37419452  0.89386057  1
  V  V29  1  0.62713816  0.12796417  0.63754569  1
  V  V30  1  0.87230148  0.62358312  0.63920138  1
  V  V31  1  0.87088736  0.87335098  0.63848196  1
  Fe  Fe32  1  0.87785191  0.87535554  0.38277528  1
  Fe  Fe33  1  0.37462996  0.12364343  0.89028291  1
  Fe  Fe34  1  0.37387948  0.12484376  0.13097860  1
  Fe  Fe35  1  0.37813791  0.37606401  0.63605425  1
  Fe  Fe36  1  0.62422963  0.87585225  0.14765119  1
  Fe  Fe37  1  0.37455067  0.62258998  0.39209654  1
  Fe  Fe38  1  0.62116816  0.37258533  0.13510673  1
  Fe  Fe39  1  0.87567149  0.62529163  0.13226731  1
  Fe  Fe40  1  0.37439571  0.87559720  0.38700097  1
  Fe  Fe41  1  0.12204168  0.37348369  0.63264181  1
  Fe  Fe42  1  0.37739450  0.87529544  0.63089441  1
  Fe  Fe43  1  0.37511794  0.62592142  0.62758665  1
  Fe  Fe44  1  0.87731817  0.37482147  0.38059834  1
  Fe  Fe45  1  0.87529324  0.37576556  0.14103838  1
  Fe  Fe46  1  0.12501464  0.87612217  0.13760427  1
  Fe  Fe47  1  0.37501986  0.87214733  0.88687176  1
  Fe  Fe48  1  0.62968887  0.37653044  0.64012918  1
  Fe  Fe49  1  0.12157540  0.87675134  0.63083138  1
  Fe  Fe50  1  0.62464803  0.62751800  0.88621189  1
  Fe  Fe51  1  0.62605173  0.87357772  0.37543245  1
  Fe  Fe52  1  0.87536249  0.87701577  0.88743685  1
  Fe  Fe53  1  0.87646151  0.12777203  0.38237359  1
  Fe  Fe54  1  0.37499452  0.12751940  0.39415574  1
  Fe  Fe55  1  0.62442780  0.62183410  0.38134493  1
  Fe  Fe56  1  0.37775930  0.12331490  0.62942661  1
  Fe  Fe57  1  0.12952406  0.37395985  0.13578823  1
  Fe  Fe58  1  0.87522998  0.12426686  0.88993703  1
  Fe  Fe59  1  0.62571223  0.37787637  0.88606642  1
  Fe  Fe60  1  0.12174051  0.62623212  0.63212129  1
  Fe  Fe61  1  0.37383803  0.37649682  0.88081454  1
  Fe  Fe62  1  0.37260607  0.87413563  0.13795318  1
  Fe  Fe63  1  0.12186284  0.12413846  0.63182591  1
  Pb  Pb64  1  0.00349460  -0.00262038  0.00034447  1
  Pb  Pb65  1  -0.00635252  0.00274231  0.25305723  1
  Pb  Pb66  1  0.00687740  0.00095589  0.50037878  1
  Pb  Pb67  1  -0.00805457  -0.00027605  0.74927101  1
  Pb  Pb68  1  -0.00053270  0.26296719  0.00823955  1
  Pb  Pb69  1  -0.00429526  0.25178287  0.24921336  1
  Pb  Pb70  1  0.00426878  0.24996457  0.49946967  1
  Pb  Pb71  1  -0.00152740  0.24380401  0.74724377  1
  Pb  Pb72  1  -0.00716195  0.50145530  0.00682785  1
  Pb  Pb73  1  -0.00264296  0.49464382  0.24582688  1
  Pb  Pb74  1  0.00737563  0.50028956  0.50063220  1
  Pb  Pb75  1  0.00206305  0.50122117  0.74732387  1
  Pb  Pb76  1  0.00714689  0.75425613  0.00338313  1
  Pb  Pb77  1  -0.00290654  0.75488552  0.25179922  1
  Pb  Pb78  1  0.00722964  0.74955532  0.50261641  1
  Pb  Pb79  1  -0.00256991  0.75656467  0.74764522  1
  Pb  Pb80  1  0.26025128  -0.00169559  0.00190990  1
  Pb  Pb81  1  0.25905563  -0.00304591  0.25049632  1
  Pb  Pb82  1  0.25764900  -0.00060855  0.50381962  1
  Pb  Pb83  1  0.25166125  0.00123058  0.73788179  1
  Pb  Pb84  1  0.25175437  0.25028980  -0.00448112  1
  Pb  Pb85  1  0.25444520  0.24128522  0.25135702  1
  Pb  Pb86  1  0.24597601  0.25160019  0.50798816  1
  Pb  Pb87  1  0.25497442  0.24837877  0.73868210  1
  Pb  Pb88  1  0.24489042  0.49872670  -0.00331300  1
  Pb  Pb89  1  0.25621454  0.50588290  0.25294341  1
  Pb  Pb90  1  0.25652409  0.50001121  0.50830994  1
  Pb  Pb91  1  0.25292770  0.49863286  0.73784913  1
  Pb  Pb92  1  0.25051918  0.75759524  0.00172285  1
  Pb  Pb93  1  0.25813138  0.75373978  0.25286411  1
  Pb  Pb94  1  0.25589177  0.75042050  0.50096807  1
  Pb  Pb95  1  0.25009139  0.75286424  0.73608736  1
  Pb  Pb96  1  0.49314494  -0.00202506  0.00352181  1
  Pb  Pb97  1  0.48978410  -0.00935717  0.25033605  1
  Pb  Pb98  1  0.49116638  -0.00487406  0.49606790  1
  Pb  Pb99  1  0.48272486  0.00354931  0.75696673  1
  Pb  Pb100  1  0.49846848  0.25401898  -0.00553485  1
  Pb  Pb101  1  0.49335472  0.24115142  0.25062780  1
  Pb  Pb102  1  0.49475255  0.25506785  0.50611543  1
  Pb  Pb103  1  0.48925603  0.25551849  0.75077448  1
  Pb  Pb104  1  0.50670836  0.49597666  -0.00517933  1
  Pb  Pb105  1  0.49708684  0.51024051  0.25470723  1
  Pb  Pb106  1  0.49581989  0.49896100  0.50313210  1
  Pb  Pb107  1  0.49923795  0.49346409  0.74713605  1
  Pb  Pb108  1  0.50044136  0.76328445  0.00884622  1
  Pb  Pb109  1  0.49971310  0.75017667  0.25250152  1
  Pb  Pb110  1  0.49755605  0.74998655  0.48788374  1
  Pb  Pb111  1  0.49363364  0.75362674  0.74683070  1
  Pb  Pb112  1  0.74705904  -0.00151897  0.00170816  1
  Pb  Pb113  1  0.75551321  -0.00122933  0.25244181  1
  Pb  Pb114  1  0.75400390  -0.00088278  0.48876159  1
  Pb  Pb115  1  0.75891728  -0.00000026  0.75547585  1
  Pb  Pb116  1  0.75042082  0.26275963  0.00641332  1
  Pb  Pb117  1  0.75530518  0.25134562  0.24867440  1
  Pb  Pb118  1  0.74723879  0.25555811  0.49563576  1
  Pb  Pb119  1  0.74538840  0.25355364  0.75463346  1
  Pb  Pb120  1  0.75421868  0.50080185  0.00342101  1
  Pb  Pb121  1  0.75107821  0.49594867  0.24532283  1
  Pb  Pb122  1  0.74359263  0.49283000  0.49853822  1
  Pb  Pb123  1  0.74019364  0.50285416  0.75900482  1
  Pb  Pb124  1  0.74162949  0.75582648  0.00689057  1
  Pb  Pb125  1  0.74066451  0.74851777  0.25321319  1
  Pb  Pb126  1  0.74716220  0.75136288  0.48977334  1
  Pb  Pb127  1  0.74521860  0.74606199  0.75427304  1
  O  O128  1  0.12318734  0.00742251  0.16405869  1
  O  O129  1  0.12248610  -0.00096134  0.40917579  1
  O  O130  1  0.11898810  0.00045573  0.66346045  1
  O  O131  1  0.12277024  -0.00387575  0.90856877  1
  O  O132  1  0.12452374  0.24243916  0.16475584  1
  O  O133  1  0.12636792  0.24880168  0.41386754  1
  O  O134  1  0.11805554  0.24944211  0.66571484  1
  O  O135  1  0.12385878  0.24842396  0.91062537  1
  O  O136  1  0.12910062  0.50676675  0.16396770  1
  O  O137  1  0.12364915  0.50162753  0.41490421  1
  O  O138  1  0.11739831  0.49979482  0.66276014  1
  O  O139  1  0.12299543  0.50196015  0.91623010  1
  O  O140  1  0.12704377  0.74208881  0.16778646  1
  O  O141  1  0.12200329  0.74715632  0.41251986  1
  O  O142  1  0.11756808  0.75128284  0.66432488  1
  O  O143  1  0.12207497  0.75073932  0.91561216  1
  O  O144  1  0.37335488  0.00271876  0.16283518  1
  O  O145  1  0.37302528  0.00165617  0.41343132  1
  O  O146  1  0.38235293  -0.00065188  0.66207835  1
  O  O147  1  0.37513573  -0.00315566  0.91703190  1
  O  O148  1  0.37394648  0.25370080  0.16049479  1
  O  O149  1  0.37508872  0.25676424  0.41952448  1
  O  O150  1  0.38181154  0.24710658  0.65989881  1
  O  O151  1  0.37297991  0.25032582  0.91221689  1
  O  O152  1  0.37412488  0.49758332  0.16546416  1
  O  O153  1  0.37305592  0.49132950  0.41734693  1
  O  O154  1  0.37834730  0.50397963  0.66184319  1
  O  O155  1  0.37043020  0.50796665  0.91215853  1
  O  O156  1  0.37387731  0.74271894  0.16348311  1
  O  O157  1  0.37005671  0.74974437  0.41152076  1
  O  O158  1  0.38111037  0.75007554  0.65957760  1
  O  O159  1  0.37202055  0.74341438  0.91587015  1
  O  O160  1  0.62784570  0.00904025  0.16552034  1
  O  O161  1  0.62720132  0.00710159  0.40155247  1
  O  O162  1  0.63508793  -0.00348250  0.65737266  1
  O  O163  1  0.62646425  -0.00457713  0.91473593  1
  O  O164  1  0.62620159  0.24225418  0.16472788  1
  O  O165  1  0.62369575  0.25513688  0.41344302  1
  O  O166  1  0.63302005  0.24377459  0.66262010  1
  O  O167  1  0.62712532  0.24507877  0.90949762  1
  O  O168  1  0.62136158  0.50401930  0.16113194  1
  O  O169  1  0.62480968  0.49221627  0.41264779  1
  O  O170  1  0.63352569  0.50946421  0.66413613  1
  O  O171  1  0.62798399  0.50366800  0.91561713  1
  O  O172  1  0.62307442  0.74098009  0.16641802  1
  O  O173  1  0.62868669  0.74786942  0.40842298  1
  O  O174  1  0.63320119  0.74768913  0.66397496  1
  O  O175  1  0.62672281  0.75406805  0.91870745  1
  O  O176  1  0.87749051  -0.00138339  0.16517115  1
  O  O177  1  0.87661061  0.00292220  0.41333550  1
  O  O178  1  0.86845739  -0.00087347  0.66429283  1
  O  O179  1  0.87585241  -0.00021443  0.92171936  1
  O  O180  1  0.87630452  0.24477110  0.16365761  1
  O  O181  1  0.87572560  0.25174876  0.41236990  1
  O  O182  1  0.86963149  0.25415810  0.66148164  1
  O  O183  1  0.87715308  0.25451323  0.91645690  1
  O  O184  1  0.87590616  0.50340939  0.16517058  1
  O  O185  1  0.87853706  0.50433661  0.41101324  1
  O  O186  1  0.87295135  0.50222956  0.66338759  1
  O  O187  1  0.87833439  0.49630524  0.91824942  1
  O  O188  1  0.87790853  0.75302120  0.16141120  1
  O  O189  1  0.87812982  0.74104173  0.41115943  1
  O  O190  1  0.87152122  0.74608066  0.66350394  1
  O  O191  1  0.87826387  0.74782114  0.91518294  1
  O  O192  1  0.00124786  0.12464640  0.16295048  1
  O  O193  1  0.00772086  0.12615142  0.41114809  1
  O  O194  1  -0.01107581  0.12559984  0.66332635  1
  O  O195  1  0.00801799  0.12327451  0.91663549  1
  O  O196  1  0.00475398  0.37461616  0.16463518  1
  O  O197  1  0.00472994  0.37519925  0.41091998  1
  O  O198  1  -0.01266478  0.37563595  0.66496217  1
  O  O199  1  -0.00125085  0.37487142  0.91900924  1
  O  O200  1  0.00691068  0.62497115  0.16080394  1
  O  O201  1  0.00028870  0.62303397  0.41369035  1
  O  O202  1  -0.01165307  0.62561357  0.66522186  1
  O  O203  1  -0.00050323  0.62378568  0.91905877  1
  O  O204  1  -0.00280146  0.87495493  0.16691426  1
  O  O205  1  0.00491439  0.87319158  0.41336762  1
  O  O206  1  -0.00992335  0.87504560  0.66342721  1
  O  O207  1  0.00524112  0.87356639  0.91670750  1
  O  O208  1  0.24446379  0.12669367  0.16135520  1
  O  O209  1  0.24252588  0.12617752  0.41704698  1
  O  O210  1  0.25061013  0.12384647  0.65556790  1
  O  O211  1  0.23863300  0.12197559  0.91213920  1
  O  O212  1  0.25791721  0.37514108  0.16610076  1
  O  O213  1  0.25140228  0.37389411  0.41721364  1
  O  O214  1  0.24871586  0.37408075  0.65898540  1
  O  O215  1  0.24571138  0.37669982  0.91158085  1
  O  O216  1  0.25006778  0.62299070  0.16614507  1
  O  O217  1  0.24139782  0.62234773  0.41486615  1
  O  O218  1  0.24869400  0.62696332  0.65680893  1
  O  O219  1  0.24768650  0.62616467  0.91395451  1
  O  O220  1  0.24739261  0.87369567  0.16803590  1
  O  O221  1  0.23959676  0.87425339  0.41367931  1
  O  O222  1  0.24998660  0.87549807  0.65612908  1
  O  O223  1  0.24282060  0.87126328  0.91081257  1
  O  O224  1  0.50452022  0.12661368  0.15876514  1
  O  O225  1  0.50916513  0.13097533  0.41367250  1
  O  O226  1  0.51427339  0.12046593  0.65917169  1
  O  O227  1  0.51066492  0.12092081  0.91531627  1
  O  O228  1  0.49126279  0.37432215  0.16412522  1
  O  O229  1  0.50029610  0.37474253  0.41388874  1
  O  O230  1  0.50608072  0.37708712  0.66350129  1
  O  O231  1  0.49894369  0.37686547  0.91212432  1
  O  O232  1  0.49859053  0.62254022  0.16465800  1
  O  O233  1  0.50132320  0.62032066  0.41360091  1
  O  O234  1  0.50991514  0.62693391  0.65455422  1
  O  O235  1  0.49319340  0.62541688  0.91032789  1
  O  O236  1  0.49762156  0.87383126  0.16622414  1
  O  O237  1  0.50325726  0.87545602  0.40617817  1
  O  O238  1  0.51503132  0.87189633  0.65942503  1
  O  O239  1  0.50658866  0.87259253  0.91643355  1
  O  O240  1  0.75149366  0.12383915  0.16353556  1
  O  O241  1  0.74112194  0.13106133  0.40909859  1
  O  O242  1  0.74820374  0.12349658  0.67013971  1
  O  O243  1  0.74305227  0.12167051  0.91724265  1
  O  O244  1  0.74636167  0.37390529  0.16442817  1
  O  O245  1  0.74480173  0.37536318  0.40818990  1
  O  O246  1  0.75804154  0.37791620  0.67045913  1
  O  O247  1  0.75699672  0.37499076  0.91484588  1
  O  O248  1  0.74472305  0.62458566  0.15942769  1
  O  O249  1  0.75728465  0.62122879  0.40795706  1
  O  O250  1  0.75516178  0.62612945  0.66881346  1
  O  O251  1  0.75830651  0.62455127  0.91647004  1
  O  O252  1  0.75885962  0.87504058  0.16393001  1
  O  O253  1  0.75139981  0.87534077  0.40907209  1
  O  O254  1  0.74731405  0.87137712  0.66899164  1
  O  O255  1  0.74571098  0.87354971  0.91737287  1
  O  O256  1  0.12475610  0.12451775  0.04717060  1
  O  O257  1  0.12992849  0.12865115  0.30070374  1
  O  O258  1  0.11616736  0.12709140  0.53187588  1
  O  O259  1  0.11944073  0.12945187  0.79660597  1
  O  O260  1  0.12830216  0.37100072  0.03632726  1
  O  O261  1  0.13021723  0.37515711  0.29988347  1
  O  O262  1  0.11857607  0.36889415  0.53249716  1
  O  O263  1  0.11738843  0.37987238  0.79909401  1
  O  O264  1  0.12808534  0.62744829  0.04879237  1
  O  O265  1  0.12383522  0.62423531  0.30256521  1
  O  O266  1  0.11319335  0.62587153  0.53239573  1
  O  O267  1  0.12138972  0.62523878  0.79745567  1
  O  O268  1  0.12262855  0.87051975  0.03810434  1
  O  O269  1  0.12266401  0.87319874  0.29998836  1
  O  O270  1  0.11386179  0.87542616  0.53109621  1
  O  O271  1  0.12043997  0.87266659  0.79899637  1
  O  O272  1  0.37128309  0.11994757  0.03082653  1
  O  O273  1  0.37384645  0.13576668  0.29284003  1
  O  O274  1  0.38076753  0.12247795  0.52842399  1
  O  O275  1  0.38322518  0.11880598  0.78973610  1
  O  O276  1  0.37347597  0.37614501  0.04729125  1
  O  O277  1  0.37273938  0.37274159  0.30396093  1
  O  O278  1  0.37907828  0.37777089  0.53486354  1
  O  O279  1  0.38030316  0.37509618  0.78095968  1
  O  O280  1  0.37487552  0.62199919  0.04925220  1
  O  O281  1  0.37309508  0.61368816  0.29071789  1
  O  O282  1  0.37186213  0.61927323  0.52671384  1
  O  O283  1  0.37582434  0.62881310  0.79705238  1
  O  O284  1  0.37305950  0.87142144  0.03595045  1
  O  O285  1  0.36895778  0.87878753  0.28523463  1
  O  O286  1  0.37707999  0.88107674  0.53006076  1
  O  O287  1  0.38631882  0.87457902  0.78743311  1
  O  O288  1  0.62655486  0.12450298  0.04770965  1
  O  O289  1  0.62008666  0.13085860  0.29382973  1
  O  O290  1  0.63178896  0.12869633  0.54695754  1
  O  O291  1  0.62715896  0.12407687  0.79833440  1
  O  O292  1  0.62355323  0.36984490  0.03526377  1
  O  O293  1  0.61980487  0.37260845  0.29746931  1
  O  O294  1  0.63797050  0.37677753  0.54020922  1
  O  O295  1  0.63369033  0.37795267  0.78552980  1
  O  O296  1  0.62297209  0.62662844  0.04942274  1
  O  O297  1  0.62269289  0.62234700  0.28199203  1
  O  O298  1  0.63516697  0.62641775  0.54876707  1
  O  O299  1  0.63253107  0.62830609  0.78690335  1
  O  O300  1  0.62593492  0.86711490  0.04642950  1
  O  O301  1  0.62960795  0.86969690  0.27384620  1
  O  O302  1  0.63281576  0.87609114  0.54639365  1
  O  O303  1  0.62581879  0.87300003  0.80144776  1
  O  O304  1  0.87466642  0.12373365  0.04951423  1
  O  O305  1  0.87685158  0.12292126  0.28232513  1
  O  O306  1  0.86835912  0.12392394  0.54779896  1
  O  O307  1  0.87370640  0.11972858  0.79064767  1
  O  O308  1  0.87679183  0.37135463  0.03945138  1
  O  O309  1  0.87713463  0.37335134  0.28043320  1
  O  O310  1  0.86965775  0.37719400  0.54833551  1
  O  O311  1  0.87773121  0.37614501  0.80338315  1
  O  O312  1  0.87566495  0.61832853  0.03291175  1
  O  O313  1  0.87808159  0.62362207  0.29493060  1
  O  O314  1  0.87081021  0.62324116  0.54905621  1
  O  O315  1  0.87799387  0.62442277  0.80743359  1
  O  O316  1  0.87827568  0.87553872  0.05119108  1
  O  O317  1  0.88166682  0.87676427  0.28344717  1
  O  O318  1  0.86939763  0.87493683  0.54769401  1
  O  O319  1  0.87575290  0.88151300  0.78819417  1
