# generated using pymatgen
data_VFe(PbO3)2
_symmetry_space_group_name_H-M   'P 1'
_cell_length_a   15.36872646
_cell_length_b   15.37765369
_cell_length_c   18.54264162
_cell_angle_alpha   90.02343628
_cell_angle_beta   89.97967729
_cell_angle_gamma   89.99488999
_symmetry_Int_Tables_number   1
_chemical_formula_structural   VFe(PbO3)2
_chemical_formula_sum   'V32 Fe32 Pb64 O192'
_cell_volume   4382.27368017
_cell_formula_units_Z   32
loop_
 _symmetry_equiv_pos_site_id
 _symmetry_equiv_pos_as_xyz
  1  'x, y, z'
loop_
 _atom_site_type_symbol
 _atom_site_label
 _atom_site_symmetry_multiplicity
 _atom_site_fract_x
 _atom_site_fract_y
 _atom_site_fract_z
 _atom_site_occupancy
  V  V0  1  0.62538851  0.12716110  0.14101678  1
  V  V1  1  0.62508737  0.37491870  0.89436581  1
  V  V2  1  0.87616484  0.87413476  0.39309041  1
  V  V3  1  0.37460162  0.12617193  0.63888280  1
  V  V4  1  0.62475185  0.12732140  0.63889667  1
  V  V5  1  0.37193489  0.62344564  0.89257460  1
  V  V6  1  0.62772720  0.37580176  0.38429349  1
  V  V7  1  0.62527625  0.87367564  0.39021268  1
  V  V8  1  0.87265728  0.62441048  0.38819288  1
  V  V9  1  0.37660277  0.37782738  0.38742481  1
  V  V10  1  0.37486419  0.37694736  0.89039234  1
  V  V11  1  0.37750947  0.37539857  0.63899674  1
  V  V12  1  0.37378009  0.62927216  0.14026142  1
  V  V13  1  0.62579191  0.87671277  0.88764583  1
  V  V14  1  0.87537853  0.87192974  0.88961150  1
  V  V15  1  0.87592736  0.62969240  0.13668901  1
  V  V16  1  0.37437953  0.12443438  0.13995184  1
  V  V17  1  0.37338963  0.87354279  0.38888406  1
  V  V18  1  0.12446104  0.37467915  0.89250450  1
  V  V19  1  0.87481866  0.62468650  0.63909214  1
  V  V20  1  0.37512116  0.62553780  0.63550076  1
  V  V21  1  0.12123381  0.62652370  0.89273268  1
  V  V22  1  0.12591148  0.62658673  0.39119012  1
  V  V23  1  0.62463315  0.62616870  0.89262901  1
  V  V24  1  0.87272797  0.37373371  0.63572505  1
  V  V25  1  0.87432459  0.37847532  0.89224832  1
  V  V26  1  0.12460790  0.12275776  0.88696610  1
  V  V27  1  0.12408719  0.12747288  0.14083275  1
  V  V28  1  0.37565639  0.37456541  0.14057179  1
  V  V29  1  0.12472855  0.37475367  0.38761767  1
  V  V30  1  0.62337661  0.87619188  0.13950936  1
  V  V31  1  0.87489928  0.37454890  0.14238202  1
  Fe  Fe32  1  0.12774911  0.12412219  0.38853125  1
  Fe  Fe33  1  0.12371319  0.62191598  0.13492549  1
  Fe  Fe34  1  0.87398465  0.12680183  0.62926771  1
  Fe  Fe35  1  0.12647198  0.62131195  0.63394480  1
  Fe  Fe36  1  0.62589970  0.62386832  0.13962072  1
  Fe  Fe37  1  0.62356636  0.37380121  0.13483114  1
  Fe  Fe38  1  0.12568936  0.12751681  0.62899251  1
  Fe  Fe39  1  0.12558756  0.87382200  0.62749578  1
  Fe  Fe40  1  0.12716129  0.37389105  0.13708009  1
  Fe  Fe41  1  0.87578556  0.12618341  0.88737539  1
  Fe  Fe42  1  0.62619801  0.12507326  0.88574823  1
  Fe  Fe43  1  0.12415019  0.87552031  0.88744644  1
  Fe  Fe44  1  0.12419002  0.87365052  0.39359842  1
  Fe  Fe45  1  0.62217858  0.12304036  0.38417263  1
  Fe  Fe46  1  0.12320717  0.37512841  0.63442312  1
  Fe  Fe47  1  0.62644071  0.37485820  0.63581827  1
  Fe  Fe48  1  0.37798841  0.12492996  0.38646576  1
  Fe  Fe49  1  0.62437141  0.87394268  0.63434031  1
  Fe  Fe50  1  0.62336190  0.62680969  0.38447818  1
  Fe  Fe51  1  0.87554533  0.12326159  0.13941491  1
  Fe  Fe52  1  0.37438673  0.12780435  0.88416563  1
  Fe  Fe53  1  0.87665418  0.37942623  0.38260927  1
  Fe  Fe54  1  0.37456411  0.87370793  0.88754696  1
  Fe  Fe55  1  0.37411899  0.62492014  0.38343346  1
  Fe  Fe56  1  0.37647294  0.87846094  0.13387420  1
  Fe  Fe57  1  0.62352251  0.62125363  0.63410988  1
  Fe  Fe58  1  0.87305302  0.12781776  0.38715999  1
  Fe  Fe59  1  0.87416631  0.87716099  0.13700501  1
  Fe  Fe60  1  0.12551768  0.87484407  0.13464534  1
  Fe  Fe61  1  0.37722892  0.87600652  0.63308948  1
  Fe  Fe62  1  0.87477634  0.62359791  0.88635444  1
  Fe  Fe63  1  0.87185428  0.87579460  0.62850380  1
  Pb  Pb64  1  -0.00814433  -0.00150518  0.00362732  1
  Pb  Pb65  1  0.00528091  0.00039633  0.25124627  1
  Pb  Pb66  1  0.00260284  0.00936918  0.49825675  1
  Pb  Pb67  1  -0.00005573  -0.00018739  0.73528798  1
  Pb  Pb68  1  0.00048886  0.25092205  0.00219829  1
  Pb  Pb69  1  -0.00743081  0.24643499  0.25542506  1
  Pb  Pb70  1  -0.00229561  0.24362210  0.49698425  1
  Pb  Pb71  1  -0.00197263  0.24371739  0.74353988  1
  Pb  Pb72  1  0.00822553  0.50142689  0.00562757  1
  Pb  Pb73  1  -0.00166858  0.49559580  0.24842009  1
  Pb  Pb74  1  0.00748608  0.50148051  0.50136185  1
  Pb  Pb75  1  -0.00514526  0.50335994  0.75020330  1
  Pb  Pb76  1  0.00160507  0.76159400  0.00536134  1
  Pb  Pb77  1  0.00910287  0.76064786  0.25087313  1
  Pb  Pb78  1  0.00258269  0.75171302  0.50391370  1
  Pb  Pb79  1  0.00649411  0.75611600  0.74235927  1
  Pb  Pb80  1  0.25197412  -0.00698723  -0.00278234  1
  Pb  Pb81  1  0.24304002  0.00148198  0.25253895  1
  Pb  Pb82  1  0.24414239  0.00234554  0.49788314  1
  Pb  Pb83  1  0.24440123  -0.01099926  0.74657086  1
  Pb  Pb84  1  0.24567798  0.25423566  0.00039381  1
  Pb  Pb85  1  0.24948753  0.23791549  0.25576975  1
  Pb  Pb86  1  0.24370753  0.24978941  0.49899209  1
  Pb  Pb87  1  0.25146725  0.24545775  0.74752929  1
  Pb  Pb88  1  0.24281779  0.50337544  0.00566389  1
  Pb  Pb89  1  0.25343859  0.50304701  0.24930192  1
  Pb  Pb90  1  0.24152012  0.49877755  0.50207667  1
  Pb  Pb91  1  0.24755063  0.49909217  0.74728220  1
  Pb  Pb92  1  0.24751450  0.76018603  0.00472674  1
  Pb  Pb93  1  0.24388129  0.75990781  0.24868429  1
  Pb  Pb94  1  0.25045145  0.75636795  0.50266485  1
  Pb  Pb95  1  0.24614345  0.76231769  0.74947678  1
  Pb  Pb96  1  0.49270874  0.00022734  -0.00517969  1
  Pb  Pb97  1  0.50084748  0.00667636  0.25250891  1
  Pb  Pb98  1  0.49927294  -0.00843567  0.50099507  1
  Pb  Pb99  1  0.49355627  0.00128074  0.75056880  1
  Pb  Pb100  1  0.50256329  0.25157810  -0.00172156  1
  Pb  Pb101  1  0.49888110  0.24123174  0.25304572  1
  Pb  Pb102  1  0.50453552  0.25345926  0.49729396  1
  Pb  Pb103  1  0.50096499  0.24068212  0.75515604  1
  Pb  Pb104  1  0.50735572  0.50133050  0.00663851  1
  Pb  Pb105  1  0.50221304  0.50498525  0.25041365  1
  Pb  Pb106  1  0.50506802  0.50608149  0.49794213  1
  Pb  Pb107  1  0.50361389  0.49835947  0.74857320  1
  Pb  Pb108  1  0.49968559  0.74863884  0.00220616  1
  Pb  Pb109  1  0.49892562  0.74018534  0.25291264  1
  Pb  Pb110  1  0.50113615  0.75329765  0.50043827  1
  Pb  Pb111  1  0.49690187  0.75616486  0.74638090  1
  Pb  Pb112  1  0.75960819  0.00293938  0.00197195  1
  Pb  Pb113  1  0.75305502  0.00659195  0.25183936  1
  Pb  Pb114  1  0.75319128  -0.00190617  0.49971298  1
  Pb  Pb115  1  0.75375982  0.00575387  0.74494293  1
  Pb  Pb116  1  0.75469501  0.24415561  0.00181168  1
  Pb  Pb117  1  0.75874743  0.24729648  0.25493185  1
  Pb  Pb118  1  0.75535896  0.24586848  0.49464892  1
  Pb  Pb119  1  0.74978597  0.24074311  0.75375773  1
  Pb  Pb120  1  0.74142947  0.50062210  0.00625603  1
  Pb  Pb121  1  0.74975444  0.49625703  0.24802426  1
  Pb  Pb122  1  0.73714550  0.49961696  0.50071423  1
  Pb  Pb123  1  0.75362231  0.50345371  0.75062823  1
  Pb  Pb124  1  0.74750068  0.74757069  0.00102159  1
  Pb  Pb125  1  0.74320433  0.74636330  0.25006994  1
  Pb  Pb126  1  0.74777952  0.75616111  0.50398839  1
  Pb  Pb127  1  0.74776918  0.75089136  0.74392749  1
  O  O128  1  0.12714459  0.00663372  0.16423826  1
  O  O129  1  0.12638534  -0.00194151  0.41413233  1
  O  O130  1  0.12723155  0.00146471  0.65635342  1
  O  O131  1  0.12486976  0.00723199  0.90763653  1
  O  O132  1  0.12751083  0.24576337  0.16454832  1
  O  O133  1  0.12714316  0.25843786  0.40835914  1
  O  O134  1  0.12722630  0.25179756  0.66490848  1
  O  O135  1  0.12414397  0.25010622  0.91738577  1
  O  O136  1  0.12586810  0.49828269  0.16807958  1
  O  O137  1  0.12600236  0.50103536  0.41300828  1
  O  O138  1  0.12637923  0.49787265  0.66936072  1
  O  O139  1  0.12594037  0.50140965  0.91774339  1
  O  O140  1  0.12467405  0.74616167  0.16395890  1
  O  O141  1  0.12419287  0.74257405  0.41423533  1
  O  O142  1  0.12589764  0.74604310  0.66058888  1
  O  O143  1  0.12605864  0.74194557  0.91305272  1
  O  O144  1  0.37648840  0.00539585  0.16353755  1
  O  O145  1  0.37934097  -0.00791943  0.41076026  1
  O  O146  1  0.37840458  0.00896806  0.65864659  1
  O  O147  1  0.37395701  0.00131618  0.91329376  1
  O  O148  1  0.37608085  0.24966809  0.16438798  1
  O  O149  1  0.37506726  0.26234800  0.41497727  1
  O  O150  1  0.37755254  0.25164791  0.66412392  1
  O  O151  1  0.37378990  0.25643244  0.91677698  1
  O  O152  1  0.37651819  0.49672418  0.16243733  1
  O  O153  1  0.37162442  0.49341724  0.41318867  1
  O  O154  1  0.37649134  0.49562578  0.66334975  1
  O  O155  1  0.37606362  0.50332521  0.91946860  1
  O  O156  1  0.37741672  0.74527351  0.15839160  1
  O  O157  1  0.37737777  0.75461609  0.41274064  1
  O  O158  1  0.37694878  0.74121394  0.65612383  1
  O  O159  1  0.37540918  0.74017684  0.91636688  1
  O  O160  1  0.62386373  0.00032040  0.16517225  1
  O  O161  1  0.62532821  -0.00842247  0.41220726  1
  O  O162  1  0.62246302  0.00982571  0.66186087  1
  O  O163  1  0.62623397  -0.00826835  0.90950292  1
  O  O164  1  0.62237842  0.24429462  0.15987871  1
  O  O165  1  0.62134641  0.25932742  0.40833189  1
  O  O166  1  0.62291387  0.24672187  0.66415045  1
  O  O167  1  0.62686548  0.25471536  0.91730729  1
  O  O168  1  0.62471055  0.49798556  0.16563583  1
  O  O169  1  0.62336334  0.49521979  0.40916182  1
  O  O170  1  0.62348051  0.49846090  0.67049091  1
  O  O171  1  0.62504155  0.50076906  0.91961803  1
  O  O172  1  0.62493796  0.75525137  0.16288117  1
  O  O173  1  0.62560109  0.75476320  0.41329108  1
  O  O174  1  0.62282557  0.74522063  0.66401244  1
  O  O175  1  0.62640740  0.75222206  0.91774941  1
  O  O176  1  0.87323592  0.00015728  0.16986147  1
  O  O177  1  0.87114656  -0.00829789  0.40818750  1
  O  O178  1  0.87123515  0.00187761  0.65779183  1
  O  O179  1  0.87463532  -0.00677691  0.91315563  1
  O  O180  1  0.87487624  0.25301933  0.16468117  1
  O  O181  1  0.87456804  0.25666154  0.41289955  1
  O  O182  1  0.87211399  0.25678896  0.65853739  1
  O  O183  1  0.87612661  0.25857901  0.91843198  1
  O  O184  1  0.87377843  0.49766447  0.16257192  1
  O  O185  1  0.87853536  0.50759348  0.41121119  1
  O  O186  1  0.87456453  0.49821923  0.66493035  1
  O  O187  1  0.87650646  0.49433220  0.91760676  1
  O  O188  1  0.87234954  0.74496171  0.15866925  1
  O  O189  1  0.87506949  0.74363612  0.41704915  1
  O  O190  1  0.87375803  0.74197771  0.65885930  1
  O  O191  1  0.87424316  0.75394473  0.91398961  1
  O  O192  1  0.00655386  0.12618087  0.16231093  1
  O  O193  1  -0.00049791  0.12557201  0.41127695  1
  O  O194  1  -0.00087416  0.12882056  0.65865543  1
  O  O195  1  0.00612421  0.12878753  0.91363928  1
  O  O196  1  -0.00464886  0.37392106  0.16471111  1
  O  O197  1  0.00771607  0.38014541  0.40837272  1
  O  O198  1  -0.00898944  0.37634424  0.66212726  1
  O  O199  1  -0.00160803  0.37600816  0.91773354  1
  O  O200  1  -0.00909073  0.62028000  0.16136039  1
  O  O201  1  0.00189437  0.62459211  0.41485937  1
  O  O202  1  -0.00597664  0.62045254  0.66286003  1
  O  O203  1  0.00475807  0.62133403  0.91193488  1
  O  O204  1  0.00021069  0.87627074  0.16764871  1
  O  O205  1  -0.00760143  0.86916687  0.41276129  1
  O  O206  1  -0.00194057  0.87238608  0.65661911  1
  O  O207  1  -0.00481533  0.87307021  0.91210772  1
  O  O208  1  0.24896398  0.12651884  0.16505430  1
  O  O209  1  0.25532257  0.12755731  0.41649030  1
  O  O210  1  0.25772849  0.13033337  0.65850683  1
  O  O211  1  0.24201205  0.12988524  0.91322484  1
  O  O212  1  0.25869715  0.37353811  0.16596197  1
  O  O213  1  0.24798353  0.37799353  0.41130409  1
  O  O214  1  0.25963943  0.37417483  0.66495699  1
  O  O215  1  0.24982494  0.37761144  0.91785136  1
  O  O216  1  0.25681785  0.62092963  0.16136424  1
  O  O217  1  0.24452570  0.62397956  0.41208785  1
  O  O218  1  0.25936668  0.61787700  0.66182821  1
  O  O219  1  0.25208048  0.62076497  0.91475463  1
  O  O220  1  0.25168225  0.87484271  0.16375494  1
  O  O221  1  0.25698696  0.87196674  0.41094380  1
  O  O222  1  0.25234546  0.87422585  0.66065413  1
  O  O223  1  0.24861044  0.87215503  0.91669055  1
  O  O224  1  0.50238564  0.12429107  0.16438997  1
  O  O225  1  0.50035634  0.12715340  0.41964037  1
  O  O226  1  0.49923463  0.12934553  0.66493296  1
  O  O227  1  0.50117052  0.12709101  0.91572976  1
  O  O228  1  0.49307194  0.37269333  0.16508249  1
  O  O229  1  0.49820188  0.37871699  0.40783028  1
  O  O230  1  0.49411019  0.37389661  0.66643220  1
  O  O231  1  0.49892014  0.37782307  0.91762261  1
  O  O232  1  0.49436159  0.62284163  0.16381046  1
  O  O233  1  0.49881713  0.62354891  0.41261124  1
  O  O234  1  0.49142119  0.61885604  0.66400238  1
  O  O235  1  0.49827352  0.62427526  0.91881821  1
  O  O236  1  0.50626565  0.87645262  0.16418941  1
  O  O237  1  0.50224954  0.87250721  0.41135667  1
  O  O238  1  0.50003422  0.87671911  0.66760570  1
  O  O239  1  0.50743035  0.87080917  0.91153189  1
  O  O240  1  0.74307121  0.12455398  0.16276370  1
  O  O241  1  0.74601479  0.12564378  0.41291905  1
  O  O242  1  0.74415728  0.12912493  0.65931489  1
  O  O243  1  0.75080427  0.12539318  0.91871698  1
  O  O244  1  0.75441730  0.37346990  0.16386027  1
  O  O245  1  0.74383917  0.37869573  0.40503351  1
  O  O246  1  0.75647664  0.37777579  0.66393693  1
  O  O247  1  0.75471681  0.37718933  0.91610017  1
  O  O248  1  0.75772829  0.62227439  0.16394662  1
  O  O249  1  0.75556755  0.62412672  0.40757856  1
  O  O250  1  0.75514521  0.61975421  0.66289797  1
  O  O251  1  0.74716944  0.62485731  0.91702318  1
  O  O252  1  0.74189988  0.87655221  0.16630962  1
  O  O253  1  0.74924720  0.87000766  0.41355719  1
  O  O254  1  0.74879861  0.87343196  0.66540947  1
  O  O255  1  0.74911028  0.87242988  0.91294842  1
  O  O256  1  0.12665623  0.12642546  0.04996417  1
  O  O257  1  0.13474424  0.12310591  0.28725690  1
  O  O258  1  0.12614589  0.12910795  0.52800763  1
  O  O259  1  0.12494433  0.12889291  0.79602706  1
  O  O260  1  0.12599428  0.37549281  0.03689791  1
  O  O261  1  0.12688887  0.37766142  0.29662834  1
  O  O262  1  0.12741047  0.38133042  0.53465873  1
  O  O263  1  0.12408582  0.37438572  0.80189411  1
  O  O264  1  0.12450061  0.61619710  0.03488233  1
  O  O265  1  0.12358789  0.62438683  0.30008531  1
  O  O266  1  0.12382396  0.61495089  0.53432243  1
  O  O267  1  0.12685691  0.62316521  0.80189261  1
  O  O268  1  0.12181886  0.87107950  0.03324096  1
  O  O269  1  0.12487170  0.86789945  0.29192562  1
  O  O270  1  0.12872505  0.86649295  0.52577307  1
  O  O271  1  0.13126379  0.87147390  0.78703902  1
  O  O272  1  0.37484086  0.12626884  0.04885344  1
  O  O273  1  0.38027217  0.13081154  0.28584868  1
  O  O274  1  0.37921460  0.13047908  0.54834093  1
  O  O275  1  0.37779441  0.13042795  0.78452467  1
  O  O276  1  0.37486025  0.37397848  0.04972643  1
  O  O277  1  0.37417244  0.37658963  0.29658872  1
  O  O278  1  0.37772786  0.37498863  0.54835785  1
  O  O279  1  0.37460414  0.37721462  0.79959132  1
  O  O280  1  0.37591838  0.62492577  0.04905777  1
  O  O281  1  0.37686033  0.62461947  0.28365770  1
  O  O282  1  0.37623010  0.62100391  0.54440330  1
  O  O283  1  0.37458108  0.62244824  0.80229160  1
  O  O284  1  0.37488329  0.87552689  0.03374211  1
  O  O285  1  0.37528424  0.87269429  0.29767812  1
  O  O286  1  0.38190405  0.87228412  0.53333759  1
  O  O287  1  0.37239860  0.87187052  0.78717933  1
  O  O288  1  0.62385082  0.12245210  0.05010108  1
  O  O289  1  0.61638480  0.12220014  0.28407445  1
  O  O290  1  0.62117336  0.12883481  0.54799431  1
  O  O291  1  0.62857871  0.13202349  0.78612072  1
  O  O292  1  0.62384946  0.38073997  0.03496148  1
  O  O293  1  0.62456787  0.37623297  0.29311740  1
  O  O294  1  0.62619895  0.38088841  0.53666020  1
  O  O295  1  0.62488353  0.37671145  0.80339872  1
  O  O296  1  0.62598660  0.62374366  0.03900395  1
  O  O297  1  0.62146888  0.63257359  0.28314549  1
  O  O298  1  0.62531378  0.61228050  0.53395805  1
  O  O299  1  0.62169600  0.62528293  0.80189572  1
  O  O300  1  0.62479707  0.87733961  0.04865419  1
  O  O301  1  0.62691649  0.87239609  0.29933705  1
  O  O302  1  0.62359860  0.87321946  0.53409788  1
  O  O303  1  0.62671808  0.87172833  0.79699114  1
  O  O304  1  0.87446446  0.11904909  0.03835714  1
  O  O305  1  0.87168348  0.13379528  0.28463952  1
  O  O306  1  0.87397027  0.12937591  0.52852629  1
  O  O307  1  0.86841704  0.13168938  0.78784603  1
  O  O308  1  0.87591565  0.37394191  0.05133363  1
  O  O309  1  0.87587186  0.37424196  0.28284050  1
  O  O310  1  0.87237297  0.37753301  0.54475122  1
  O  O311  1  0.87541866  0.37652153  0.80158794  1
  O  O312  1  0.87472086  0.62625610  0.04549267  1
  O  O313  1  0.87789875  0.62846774  0.29745864  1
  O  O314  1  0.87434209  0.62066110  0.54843084  1
  O  O315  1  0.87441760  0.61658759  0.78768401  1
  O  O316  1  0.88105799  0.87986695  0.03678183  1
  O  O317  1  0.87224035  0.86685492  0.30220546  1
  O  O318  1  0.86550910  0.87080856  0.52835049  1
  O  O319  1  0.87350847  0.87287574  0.79913325  1
