# generated using pymatgen
data_VFe(PbO3)2
_symmetry_space_group_name_H-M   'P 1'
_cell_length_a   15.37672478
_cell_length_b   15.37876578
_cell_length_c   18.55843095
_cell_angle_alpha   90.04041060
_cell_angle_beta   90.04575437
_cell_angle_gamma   90.00497606
_symmetry_Int_Tables_number   1
_chemical_formula_structural   VFe(PbO3)2
_chemical_formula_sum   'V32 Fe32 Pb64 O192'
_cell_volume   4388.60335825
_cell_formula_units_Z   32
loop_
 _symmetry_equiv_pos_site_id
 _symmetry_equiv_pos_as_xyz
  1  'x, y, z'
loop_
 _atom_site_type_symbol
 _atom_site_label
 _atom_site_symmetry_multiplicity
 _atom_site_fract_x
 _atom_site_fract_y
 _atom_site_fract_z
 _atom_site_occupancy
  V  V0  1  0.12513238  0.87416623  0.63502237  1
  V  V1  1  0.37386385  0.37637192  0.88537249  1
  V  V2  1  0.87727844  0.12605116  0.14481487  1
  V  V3  1  0.62335083  0.62517164  0.88680229  1
  V  V4  1  0.62798731  0.62361582  0.13834471  1
  V  V5  1  0.37676571  0.12796872  0.39082616  1
  V  V6  1  0.12449268  0.12515067  0.14390111  1
  V  V7  1  0.87588631  0.87580320  0.14513001  1
  V  V8  1  0.87264302  0.37652646  0.63934972  1
  V  V9  1  0.12733331  0.37416133  0.39401829  1
  V  V10  1  0.87814173  0.62026403  0.39194342  1
  V  V11  1  0.62521839  0.87322174  0.89182203  1
  V  V12  1  0.62582958  0.37616694  0.39178060  1
  V  V13  1  0.12303343  0.87633022  0.14144039  1
  V  V14  1  0.87207459  0.12233215  0.88983061  1
  V  V15  1  0.62534552  0.87473539  0.63361225  1
  V  V16  1  0.87660298  0.37788837  0.13629068  1
  V  V17  1  0.37355675  0.12552619  0.14006464  1
  V  V18  1  0.12435766  0.87183056  0.88992017  1
  V  V19  1  0.37537315  0.37722847  0.39668965  1
  V  V20  1  0.62469965  0.62311845  0.39142604  1
  V  V21  1  0.12618304  0.12211609  0.88609602  1
  V  V22  1  0.37500298  0.62260834  0.39299290  1
  V  V23  1  0.12649787  0.12486020  0.38762214  1
  V  V24  1  0.37535581  0.12511590  0.88926442  1
  V  V25  1  0.12741293  0.12184092  0.63952224  1
  V  V26  1  0.12893132  0.87013640  0.38838992  1
  V  V27  1  0.87665460  0.12553501  0.63778293  1
  V  V28  1  0.62674636  0.12419230  0.63991187  1
  V  V29  1  0.12641007  0.62379047  0.88691459  1
  V  V30  1  0.37680464  0.87963252  0.63768071  1
  V  V31  1  0.37402531  0.37674336  0.13694233  1
  Fe  Fe32  1  0.62268366  0.87188510  0.37783154  1
  Fe  Fe33  1  0.62517143  0.37495189  0.13244120  1
  Fe  Fe34  1  0.12207234  0.37270944  0.64154683  1
  Fe  Fe35  1  0.87622393  0.37706735  0.38657527  1
  Fe  Fe36  1  0.62333731  0.12037915  0.88618468  1
  Fe  Fe37  1  0.62558829  0.37436703  0.63839298  1
  Fe  Fe38  1  0.37220409  0.87540689  0.13800811  1
  Fe  Fe39  1  0.12463290  0.37145056  0.13489063  1
  Fe  Fe40  1  0.87682005  0.13027682  0.38346978  1
  Fe  Fe41  1  0.37740759  0.12354611  0.63325334  1
  Fe  Fe42  1  0.37528303  0.62673492  0.89188461  1
  Fe  Fe43  1  0.12298911  0.62210986  0.13513937  1
  Fe  Fe44  1  0.62441833  0.12760262  0.37853803  1
  Fe  Fe45  1  0.62468358  0.37320661  0.88349350  1
  Fe  Fe46  1  0.12449390  0.62720356  0.63039904  1
  Fe  Fe47  1  0.62562293  0.87451988  0.14559527  1
  Fe  Fe48  1  0.87366386  0.87992071  0.63012474  1
  Fe  Fe49  1  0.87549504  0.87747142  0.88758070  1
  Fe  Fe50  1  0.87489924  0.62601541  0.13229720  1
  Fe  Fe51  1  0.37591340  0.37101923  0.63192602  1
  Fe  Fe52  1  0.37467780  0.62737152  0.63410109  1
  Fe  Fe53  1  0.87367199  0.62952085  0.63475736  1
  Fe  Fe54  1  0.37219038  0.87284209  0.38095457  1
  Fe  Fe55  1  0.87428713  0.62945567  0.88801237  1
  Fe  Fe56  1  0.87536196  0.37564957  0.88262793  1
  Fe  Fe57  1  0.37530970  0.62270282  0.12878546  1
  Fe  Fe58  1  0.62592510  0.12594308  0.14297351  1
  Fe  Fe59  1  0.37520524  0.87740897  0.89155293  1
  Fe  Fe60  1  0.12550958  0.62270951  0.39366875  1
  Fe  Fe61  1  0.87586987  0.87293603  0.38649899  1
  Fe  Fe62  1  0.62563471  0.62823888  0.63223147  1
  Fe  Fe63  1  0.12442589  0.37346770  0.87973395  1
  Pb  Pb64  1  0.00154974  0.00414940  -0.00029097  1
  Pb  Pb65  1  -0.00882212  0.00038415  0.25930943  1
  Pb  Pb66  1  -0.00387387  -0.00441920  0.49413055  1
  Pb  Pb67  1  -0.00679894  -0.00509128  0.74911106  1
  Pb  Pb68  1  0.00464019  0.25694374  -0.00446299  1
  Pb  Pb69  1  -0.00942906  0.25344212  0.25483910  1
  Pb  Pb70  1  0.00589933  0.25516937  0.50150988  1
  Pb  Pb71  1  -0.00320698  0.25781541  0.75576749  1
  Pb  Pb72  1  0.00015304  0.50365180  -0.00436532  1
  Pb  Pb73  1  0.00794981  0.50777357  0.25068630  1
  Pb  Pb74  1  0.01109885  0.49730839  0.50757414  1
  Pb  Pb75  1  0.00139279  0.50351391  0.74524230  1
  Pb  Pb76  1  -0.00130946  0.74200637  0.00221691  1
  Pb  Pb77  1  -0.00113422  0.74912499  0.25212194  1
  Pb  Pb78  1  -0.01308857  0.74731922  0.50480327  1
  Pb  Pb79  1  -0.01107500  0.74892939  0.74852466  1
  Pb  Pb80  1  0.25562014  -0.00312757  0.00218312  1
  Pb  Pb81  1  0.25374230  -0.00571480  0.25382788  1
  Pb  Pb82  1  0.25470733  0.00632269  0.49892729  1
  Pb  Pb83  1  0.25621728  -0.00798663  0.75211376  1
  Pb  Pb84  1  0.24589373  0.25524977  -0.00276323  1
  Pb  Pb85  1  0.25044417  0.25166518  0.25063870  1
  Pb  Pb86  1  0.25855762  0.25206071  0.50727230  1
  Pb  Pb87  1  0.25041135  0.25450940  0.74494204  1
  Pb  Pb88  1  0.23709052  0.50280085  0.00205321  1
  Pb  Pb89  1  0.24262064  0.50908912  0.24949437  1
  Pb  Pb90  1  0.25054461  0.50379514  0.50884271  1
  Pb  Pb91  1  0.25047187  0.50227570  0.73854918  1
  Pb  Pb92  1  0.25794599  0.74922355  0.00411090  1
  Pb  Pb93  1  0.25329436  0.74591586  0.24572653  1
  Pb  Pb94  1  0.25130731  0.74137394  0.50288088  1
  Pb  Pb95  1  0.26224385  0.74672553  0.75417300  1
  Pb  Pb96  1  0.51246542  -0.00444677  0.01122602  1
  Pb  Pb97  1  0.50706670  -0.00393740  0.24996637  1
  Pb  Pb98  1  0.50332824  -0.00345943  0.48892212  1
  Pb  Pb99  1  0.50516237  0.00114901  0.75164709  1
  Pb  Pb100  1  0.50834994  0.24916675  -0.00097668  1
  Pb  Pb101  1  0.50625709  0.24890795  0.24873758  1
  Pb  Pb102  1  0.50298871  0.25879442  0.50636766  1
  Pb  Pb103  1  0.50414278  0.25347185  0.74770152  1
  Pb  Pb104  1  0.49986418  0.49822491  -0.00363247  1
  Pb  Pb105  1  0.50185921  0.50220360  0.24665001  1
  Pb  Pb106  1  0.50503962  0.49692876  0.50952369  1
  Pb  Pb107  1  0.49859744  0.50167003  0.74019147  1
  Pb  Pb108  1  0.49296920  0.75477163  0.00391082  1
  Pb  Pb109  1  0.49451684  0.75562967  0.24495554  1
  Pb  Pb110  1  0.49811815  0.74383421  0.49710724  1
  Pb  Pb111  1  0.49293807  0.74674594  0.75038929  1
  Pb  Pb112  1  0.73784570  -0.00092819  0.00971123  1
  Pb  Pb113  1  0.74454017  0.00116454  0.25620672  1
  Pb  Pb114  1  0.75141604  -0.00301779  0.48456400  1
  Pb  Pb115  1  0.74546322  0.00291919  0.74994627  1
  Pb  Pb116  1  0.74125463  0.25219090  -0.00266633  1
  Pb  Pb117  1  0.75316603  0.24841548  0.25102970  1
  Pb  Pb118  1  0.75042702  0.24990277  0.49448693  1
  Pb  Pb119  1  0.74832838  0.25698763  0.75688925  1
  Pb  Pb120  1  0.75424500  0.49649789  -0.00750414  1
  Pb  Pb121  1  0.75772731  0.49362131  0.24832369  1
  Pb  Pb122  1  0.74796255  0.50893951  0.50570493  1
  Pb  Pb123  1  0.74653925  0.50288670  0.74659814  1
  Pb  Pb124  1  0.75350727  0.75018945  0.00024024  1
  Pb  Pb125  1  0.75095282  0.75611058  0.25374682  1
  Pb  Pb126  1  0.75108409  0.74794273  0.49788649  1
  Pb  Pb127  1  0.76127028  0.74983941  0.74888040  1
  O  O128  1  0.12341934  -0.00010680  0.17079563  1
  O  O129  1  0.12786718  0.00024311  0.41078171  1
  O  O130  1  0.12224897  0.00383233  0.66707263  1
  O  O131  1  0.12658599  -0.00061689  0.91584316  1
  O  O132  1  0.12499376  0.24650317  0.16938121  1
  O  O133  1  0.12905653  0.25300888  0.41653907  1
  O  O134  1  0.11866440  0.23753756  0.66388153  1
  O  O135  1  0.12648848  0.24475544  0.91199332  1
  O  O136  1  0.12390460  0.49442172  0.16679980  1
  O  O137  1  0.12731224  0.49244889  0.41880150  1
  O  O138  1  0.12063189  0.50065994  0.66224440  1
  O  O139  1  0.12612935  0.50423212  0.90664807  1
  O  O140  1  0.12220101  0.75850640  0.16151789  1
  O  O141  1  0.12977064  0.75433375  0.40973003  1
  O  O142  1  0.12665412  0.76079149  0.65304264  1
  O  O143  1  0.12484533  0.75289197  0.91133424  1
  O  O144  1  0.36944819  0.00836564  0.16275965  1
  O  O145  1  0.37097992  0.00703271  0.40837850  1
  O  O146  1  0.37480651  -0.00076688  0.66734424  1
  O  O147  1  0.36952101  0.00748642  0.91422416  1
  O  O148  1  0.37369234  0.24916863  0.16554451  1
  O  O149  1  0.37158364  0.24790440  0.41584238  1
  O  O150  1  0.37543378  0.24489194  0.66566678  1
  O  O151  1  0.37332942  0.24809311  0.91357930  1
  O  O152  1  0.37623733  0.49343000  0.15892373  1
  O  O153  1  0.37618056  0.50136275  0.42020259  1
  O  O154  1  0.37532399  0.49923615  0.65738138  1
  O  O155  1  0.37616630  0.49316470  0.90667477  1
  O  O156  1  0.37240117  0.74717270  0.16071161  1
  O  O157  1  0.37330627  0.74251314  0.41030625  1
  O  O158  1  0.37312138  0.75995537  0.66449906  1
  O  O159  1  0.37406815  0.75254384  0.92039050  1
  O  O160  1  0.62742512  0.00174464  0.17052326  1
  O  O161  1  0.62116631  0.00095220  0.40470893  1
  O  O162  1  0.62435604  -0.00076418  0.66663677  1
  O  O163  1  0.62439618  -0.00528283  0.91851177  1
  O  O164  1  0.62454405  0.25258526  0.16470422  1
  O  O165  1  0.62215334  0.25713124  0.41008444  1
  O  O166  1  0.62960313  0.24016417  0.66103460  1
  O  O167  1  0.62296488  0.24590929  0.91286311  1
  O  O168  1  0.62637474  0.50225666  0.16519759  1
  O  O169  1  0.62131242  0.49735877  0.41944779  1
  O  O170  1  0.62762600  0.50118280  0.66261603  1
  O  O171  1  0.62347440  0.50638628  0.90708262  1
  O  O172  1  0.62765339  0.74083084  0.16379702  1
  O  O173  1  0.62302719  0.74360968  0.40959694  1
  O  O174  1  0.62318455  0.76137452  0.65564170  1
  O  O175  1  0.62377498  0.75302798  0.91528596  1
  O  O176  1  0.87955037  -0.00041895  0.16893785  1
  O  O177  1  0.88005863  0.00200223  0.40752602  1
  O  O178  1  0.87405809  0.00564344  0.66327227  1
  O  O179  1  0.87971955  0.00508538  0.91840440  1
  O  O180  1  0.87669918  0.24781813  0.16241258  1
  O  O181  1  0.87549241  0.25430381  0.41787994  1
  O  O182  1  0.87137548  0.24156779  0.66297872  1
  O  O183  1  0.87736099  0.23853006  0.91496793  1
  O  O184  1  0.87378938  0.49429296  0.15638183  1
  O  O185  1  0.87438934  0.50344947  0.41721226  1
  O  O186  1  0.87328236  0.49345042  0.65667469  1
  O  O187  1  0.87406168  0.50274578  0.90928204  1
  O  O188  1  0.87863223  0.75633918  0.16396029  1
  O  O189  1  0.87481012  0.74219622  0.41265032  1
  O  O190  1  0.87497558  0.75808683  0.66223476  1
  O  O191  1  0.87602696  0.75480589  0.92033093  1
  O  O192  1  -0.00107873  0.12460369  0.16991419  1
  O  O193  1  0.00814833  0.12911387  0.41238457  1
  O  O194  1  -0.00568041  0.12186170  0.66116277  1
  O  O195  1  0.00194387  0.12282988  0.91504157  1
  O  O196  1  -0.00728843  0.36995057  0.15927106  1
  O  O197  1  0.00755106  0.37442837  0.41433278  1
  O  O198  1  -0.01063805  0.36749130  0.66474026  1
  O  O199  1  0.00077195  0.37227404  0.91196680  1
  O  O200  1  -0.00225248  0.62489729  0.16705662  1
  O  O201  1  -0.00514929  0.62316979  0.41239522  1
  O  O202  1  -0.00014523  0.62859200  0.66069277  1
  O  O203  1  0.00814045  0.62815867  0.91211731  1
  O  O204  1  0.00218126  0.87839647  0.16948562  1
  O  O205  1  0.01073270  0.87412535  0.41304943  1
  O  O206  1  0.00737681  0.88267479  0.65889083  1
  O  O207  1  0.00857136  0.87794161  0.91665692  1
  O  O208  1  0.25153179  0.12787682  0.16880591  1
  O  O209  1  0.24976679  0.12760995  0.41739941  1
  O  O210  1  0.24273845  0.12226858  0.66081483  1
  O  O211  1  0.25115203  0.12613170  0.91490210  1
  O  O212  1  0.25770736  0.37135600  0.16405037  1
  O  O213  1  0.24869605  0.37527942  0.41935597  1
  O  O214  1  0.24919554  0.36946314  0.66042383  1
  O  O215  1  0.25550122  0.37204449  0.90967912  1
  O  O216  1  0.24947721  0.62202675  0.16166369  1
  O  O217  1  0.25616181  0.62057987  0.41520037  1
  O  O218  1  0.24848010  0.62886436  0.66292835  1
  O  O219  1  0.24261995  0.62701851  0.91158193  1
  O  O220  1  0.24078852  0.87837201  0.16460707  1
  O  O221  1  0.24635734  0.87660922  0.41499127  1
  O  O222  1  0.24548808  0.88430750  0.66119761  1
  O  O223  1  0.24084644  0.87643412  0.91814221  1
  O  O224  1  0.48987183  0.12604398  0.16403343  1
  O  O225  1  0.49343793  0.12859918  0.40761871  1
  O  O226  1  0.50801498  0.12132500  0.66112517  1
  O  O227  1  0.49125294  0.12365378  0.91223597  1
  O  O228  1  0.49273951  0.37326480  0.16294597  1
  O  O229  1  0.50184571  0.37554356  0.41780328  1
  O  O230  1  0.50064495  0.37016972  0.66524764  1
  O  O231  1  0.49243244  0.37149600  0.91187600  1
  O  O232  1  0.50624939  0.62180684  0.16235158  1
  O  O233  1  0.49647511  0.62189661  0.41570560  1
  O  O234  1  0.50066317  0.63099157  0.66356349  1
  O  O235  1  0.50770276  0.62840334  0.91507600  1
  O  O236  1  0.49767980  0.87546064  0.16315826  1
  O  O237  1  0.49649198  0.87349036  0.40887883  1
  O  O238  1  0.50272756  0.88079768  0.66180422  1
  O  O239  1  0.50570399  0.87631448  0.91561532  1
  O  O240  1  0.75990330  0.12373206  0.16386476  1
  O  O241  1  0.74889505  0.12834802  0.40920225  1
  O  O242  1  0.74997032  0.11890612  0.66350594  1
  O  O243  1  0.75621358  0.12110377  0.91197364  1
  O  O244  1  0.75734783  0.37195625  0.16203275  1
  O  O245  1  0.74266215  0.37850203  0.41204793  1
  O  O246  1  0.75607219  0.36867806  0.66375541  1
  O  O247  1  0.75056336  0.37177175  0.91378381  1
  O  O248  1  0.74748053  0.62335186  0.16398513  1
  O  O249  1  0.75103337  0.62130983  0.41439876  1
  O  O250  1  0.74924508  0.62921906  0.66598361  1
  O  O251  1  0.74022845  0.63044095  0.91308603  1
  O  O252  1  0.75913269  0.87591300  0.16610881  1
  O  O253  1  0.74840129  0.87286057  0.40656995  1
  O  O254  1  0.74217232  0.88210282  0.65404137  1
  O  O255  1  0.74439479  0.87634268  0.91520607  1
  O  O256  1  0.12492537  0.12393874  0.05322881  1
  O  O257  1  0.12950855  0.12817797  0.29680713  1
  O  O258  1  0.12546000  0.12044109  0.54841818  1
  O  O259  1  0.12509169  0.12135341  0.79556965  1
  O  O260  1  0.13132823  0.37341256  0.03532693  1
  O  O261  1  0.12955719  0.37393010  0.30306161  1
  O  O262  1  0.11352220  0.37307518  0.54104633  1
  O  O263  1  0.11824968  0.36900126  0.77973042  1
  O  O264  1  0.12238008  0.61636410  0.03506231  1
  O  O265  1  0.12551909  0.61346341  0.29322253  1
  O  O266  1  0.12993911  0.62132639  0.52824282  1
  O  O267  1  0.12445555  0.62643757  0.79623404  1
  O  O268  1  0.12065774  0.88077111  0.05093660  1
  O  O269  1  0.12930734  0.87331256  0.29727663  1
  O  O270  1  0.12655714  0.88107740  0.54442659  1
  O  O271  1  0.12527510  0.87398527  0.79918816  1
  O  O272  1  0.37137867  0.12767938  0.04957336  1
  O  O273  1  0.36989984  0.13166955  0.30006505  1
  O  O274  1  0.36952440  0.12386893  0.53404586  1
  O  O275  1  0.37390863  0.12514321  0.79856236  1
  O  O276  1  0.37306326  0.37368322  0.04609260  1
  O  O277  1  0.37569343  0.37748016  0.30596212  1
  O  O278  1  0.38008428  0.36489456  0.53087131  1
  O  O279  1  0.37444382  0.36994947  0.79471097  1
  O  O280  1  0.37700996  0.62335006  0.02860095  1
  O  O281  1  0.37666230  0.61789840  0.30187323  1
  O  O282  1  0.37179685  0.63378781  0.53398751  1
  O  O283  1  0.37568548  0.63938044  0.79137859  1
  O  O284  1  0.36610913  0.87621824  0.03686549  1
  O  O285  1  0.36505948  0.87246238  0.28110988  1
  O  O286  1  0.37526071  0.87885062  0.54665209  1
  O  O287  1  0.36662941  0.87525678  0.79162562  1
  O  O288  1  0.62360807  0.11581621  0.04108587  1
  O  O289  1  0.62364117  0.12970609  0.27833125  1
  O  O290  1  0.62792789  0.12065888  0.54915588  1
  O  O291  1  0.62610224  0.11233638  0.78674466  1
  O  O292  1  0.62132726  0.37377584  0.03296124  1
  O  O293  1  0.62188195  0.38170593  0.30073154  1
  O  O294  1  0.61832143  0.37185323  0.53798197  1
  O  O295  1  0.62983868  0.36819619  0.78330669  1
  O  O296  1  0.62664879  0.62229114  0.04782441  1
  O  O297  1  0.62401537  0.61540942  0.30078939  1
  O  O298  1  0.62678137  0.62400472  0.53157583  1
  O  O299  1  0.62291446  0.63050394  0.79615183  1
  O  O300  1  0.62724946  0.88471682  0.04447584  1
  O  O301  1  0.62777446  0.86990094  0.27608473  1
  O  O302  1  0.62028160  0.88025952  0.54274767  1
  O  O303  1  0.62472038  0.87435216  0.80108764  1
  O  O304  1  0.88206287  0.12229371  0.05458278  1
  O  O305  1  0.88005948  0.13435209  0.28309020  1
  O  O306  1  0.87434487  0.12588988  0.54713873  1
  O  O307  1  0.87444711  0.11999042  0.79865010  1
  O  O308  1  0.87424745  0.37296655  0.04523816  1
  O  O309  1  0.87439999  0.37478642  0.28706197  1
  O  O310  1  0.87369291  0.37101518  0.54835478  1
  O  O311  1  0.87330164  0.36453704  0.78308140  1
  O  O312  1  0.87772129  0.62991841  0.03256175  1
  O  O313  1  0.87445027  0.61994050  0.30052328  1
  O  O314  1  0.86941079  0.63323378  0.53420033  1
  O  O315  1  0.87457280  0.64009237  0.78751846  1
  O  O316  1  0.87910610  0.87934618  0.05451562  1
  O  O317  1  0.88238909  0.86928343  0.28617710  1
  O  O318  1  0.88227602  0.87452112  0.52981691  1
  O  O319  1  0.88038417  0.87498304  0.78811610  1
