# generated using pymatgen
data_VFe(PbO3)2
_symmetry_space_group_name_H-M   'P 1'
_cell_length_a   15.38671271
_cell_length_b   15.37855704
_cell_length_c   18.54423790
_cell_angle_alpha   89.95453834
_cell_angle_beta   90.02309209
_cell_angle_gamma   90.01963079
_symmetry_Int_Tables_number   1
_chemical_formula_structural   VFe(PbO3)2
_chemical_formula_sum   'V32 Fe32 Pb64 O192'
_cell_volume   4388.03644316
_cell_formula_units_Z   32
loop_
 _symmetry_equiv_pos_site_id
 _symmetry_equiv_pos_as_xyz
  1  'x, y, z'
loop_
 _atom_site_type_symbol
 _atom_site_label
 _atom_site_symmetry_multiplicity
 _atom_site_fract_x
 _atom_site_fract_y
 _atom_site_fract_z
 _atom_site_occupancy
  V  V0  1  0.36463628  0.12404739  0.89046390  1
  V  V1  1  0.62502450  0.12474839  0.38830984  1
  V  V2  1  0.12394097  0.12289302  0.13697366  1
  V  V3  1  0.62350556  0.87392725  0.38888315  1
  V  V4  1  0.86677408  0.12477758  0.63882851  1
  V  V5  1  0.87523523  0.87581184  0.39680790  1
  V  V6  1  0.87758725  0.62438883  0.13931631  1
  V  V7  1  0.87403612  0.62511840  0.39647440  1
  V  V8  1  0.62235713  0.37478225  0.38852848  1
  V  V9  1  0.62610322  0.62486951  0.38782975  1
  V  V10  1  0.62457273  0.37455059  0.64492228  1
  V  V11  1  0.37552585  0.87549051  0.64331457  1
  V  V12  1  0.87488937  0.37764732  0.89000049  1
  V  V13  1  0.12423804  0.62153674  0.88999067  1
  V  V14  1  0.87611634  0.88036731  0.88515728  1
  V  V15  1  0.87739901  0.12851690  0.88781995  1
  V  V16  1  0.37525310  0.37637140  0.38840179  1
  V  V17  1  0.12566821  0.37078782  0.89226693  1
  V  V18  1  0.88017143  0.63000787  0.88588191  1
  V  V19  1  0.12055766  0.12558281  0.38952606  1
  V  V20  1  0.37432714  0.87655957  0.13302793  1
  V  V21  1  0.12772396  0.12724356  0.63962423  1
  V  V22  1  0.62405040  0.87630488  0.64457222  1
  V  V23  1  0.87554078  0.87381426  0.13680513  1
  V  V24  1  0.62658927  0.37590109  0.13314553  1
  V  V25  1  0.62352258  0.12750811  0.89171998  1
  V  V26  1  0.37520544  0.37618214  0.64286497  1
  V  V27  1  0.37738018  0.62626408  0.64254388  1
  V  V28  1  0.12691938  0.62600521  0.39116853  1
  V  V29  1  0.62097851  0.62550219  0.64808285  1
  V  V30  1  0.37831169  0.62441924  0.89304566  1
  V  V31  1  0.37416816  0.12474607  0.38826667  1
  Fe  Fe32  1  0.37204247  0.12445804  0.13069701  1
  Fe  Fe33  1  0.12638399  0.37397742  0.39097079  1
  Fe  Fe34  1  0.37433179  0.37288088  0.12552995  1
  Fe  Fe35  1  0.12989411  0.62388577  0.63364795  1
  Fe  Fe36  1  0.87644917  0.12302827  0.14034256  1
  Fe  Fe37  1  0.62763243  0.87651769  0.89478712  1
  Fe  Fe38  1  0.37709738  0.87524481  0.38328815  1
  Fe  Fe39  1  0.12418912  0.87442656  0.88556697  1
  Fe  Fe40  1  0.37354832  0.62500002  0.12811948  1
  Fe  Fe41  1  0.61878042  0.12512405  0.63784461  1
  Fe  Fe42  1  0.87270619  0.87654872  0.63511081  1
  Fe  Fe43  1  0.62620207  0.12320119  0.13202741  1
  Fe  Fe44  1  0.37468726  0.37536830  0.89580702  1
  Fe  Fe45  1  0.37470746  0.87367679  0.88632952  1
  Fe  Fe46  1  0.87514963  0.37558230  0.13588724  1
  Fe  Fe47  1  0.12552775  0.87674031  0.39423914  1
  Fe  Fe48  1  0.62638194  0.87342979  0.12737128  1
  Fe  Fe49  1  0.37736436  0.62484535  0.38278349  1
  Fe  Fe50  1  0.62689605  0.37265551  0.88589067  1
  Fe  Fe51  1  0.12233518  0.37539109  0.13355218  1
  Fe  Fe52  1  0.63033665  0.62237525  0.88617603  1
  Fe  Fe53  1  0.12343102  0.87499638  0.13559808  1
  Fe  Fe54  1  0.87317146  0.37511609  0.38946816  1
  Fe  Fe55  1  0.12549740  0.87569354  0.62991683  1
  Fe  Fe56  1  0.62806757  0.62483989  0.13063564  1
  Fe  Fe57  1  0.11978714  0.12574005  0.88264089  1
  Fe  Fe58  1  0.12692853  0.37592395  0.62913442  1
  Fe  Fe59  1  0.37762822  0.12401646  0.63814910  1
  Fe  Fe60  1  0.87263905  0.12384152  0.38324431  1
  Fe  Fe61  1  0.87386084  0.37448273  0.63186598  1
  Fe  Fe62  1  0.87305099  0.62612690  0.63293477  1
  Fe  Fe63  1  0.12324398  0.62700587  0.13492959  1
  Pb  Pb64  1  0.00515658  -0.00113253  -0.00127132  1
  Pb  Pb65  1  0.00611270  -0.00440208  0.25272346  1
  Pb  Pb66  1  -0.00090123  -0.00803372  0.50572141  1
  Pb  Pb67  1  0.00782774  0.00029633  0.74720048  1
  Pb  Pb68  1  -0.00310823  0.25882984  0.00536136  1
  Pb  Pb69  1  -0.00422137  0.25342265  0.24944929  1
  Pb  Pb70  1  -0.00556037  0.25839584  0.49687269  1
  Pb  Pb71  1  0.00384651  0.24813540  0.74381086  1
  Pb  Pb72  1  0.00288999  0.49234148  0.00523749  1
  Pb  Pb73  1  0.00670774  0.48514760  0.25381726  1
  Pb  Pb74  1  0.00481199  0.49744307  0.50222073  1
  Pb  Pb75  1  0.00055468  0.49994400  0.73538833  1
  Pb  Pb76  1  0.01042718  0.74897524  0.00169943  1
  Pb  Pb77  1  0.00785471  0.75302399  0.25211296  1
  Pb  Pb78  1  0.00102675  0.74061313  0.50717315  1
  Pb  Pb79  1  0.00275917  0.75387383  0.73702689  1
  Pb  Pb80  1  0.24355621  -0.00960729  -0.00329590  1
  Pb  Pb81  1  0.25023371  -0.01188559  0.25159203  1
  Pb  Pb82  1  0.25099425  -0.00353532  0.49905130  1
  Pb  Pb83  1  0.23998682  -0.00246865  0.75325713  1
  Pb  Pb84  1  0.25595994  0.24969076  0.00521810  1
  Pb  Pb85  1  0.24579971  0.25546993  0.24271147  1
  Pb  Pb86  1  0.25348029  0.24690427  0.49980736  1
  Pb  Pb87  1  0.25225582  0.25014763  0.75184121  1
  Pb  Pb88  1  0.24932171  0.50532882  0.00586153  1
  Pb  Pb89  1  0.24917842  0.49905192  0.23828382  1
  Pb  Pb90  1  0.24161960  0.50281215  0.50285652  1
  Pb  Pb91  1  0.25536475  0.49530052  0.75266962  1
  Pb  Pb92  1  0.24768599  0.74264045  0.00103071  1
  Pb  Pb93  1  0.25469038  0.74845722  0.24592782  1
  Pb  Pb94  1  0.24807838  0.75174638  0.49674860  1
  Pb  Pb95  1  0.24661774  0.75800451  0.75012008  1
  Pb  Pb96  1  0.50619879  0.00076892  -0.00180281  1
  Pb  Pb97  1  0.49900119  -0.00320311  0.24008179  1
  Pb  Pb98  1  0.49950511  0.01038763  0.50255844  1
  Pb  Pb99  1  0.49776776  -0.00572385  0.75732326  1
  Pb  Pb100  1  0.49420971  0.24858359  0.00118537  1
  Pb  Pb101  1  0.49885462  0.24732980  0.23833086  1
  Pb  Pb102  1  0.50028964  0.24105746  0.50452808  1
  Pb  Pb103  1  0.49632273  0.25521013  0.75648695  1
  Pb  Pb104  1  0.50518454  0.49957200  -0.00330892  1
  Pb  Pb105  1  0.49288236  0.50750430  0.23817300  1
  Pb  Pb106  1  0.50227300  0.49989355  0.49873061  1
  Pb  Pb107  1  0.50323886  0.49440075  0.76059344  1
  Pb  Pb108  1  0.50817080  0.75056657  -0.00217459  1
  Pb  Pb109  1  0.49340176  0.74723901  0.24226981  1
  Pb  Pb110  1  0.49616723  0.75000051  0.49701052  1
  Pb  Pb111  1  0.49955806  0.75792762  0.76146490  1
  Pb  Pb112  1  0.75367316  0.01135064  0.00639440  1
  Pb  Pb113  1  0.75090479  0.00427456  0.24579807  1
  Pb  Pb114  1  0.74861605  -0.00297723  0.50156077  1
  Pb  Pb115  1  0.74121399  -0.00513350  0.75627636  1
  Pb  Pb116  1  0.75762687  0.24087706  0.00586701  1
  Pb  Pb117  1  0.75952032  0.24704116  0.24784509  1
  Pb  Pb118  1  0.75174180  0.25176818  0.49881994  1
  Pb  Pb119  1  0.74420093  0.25367845  0.75161955  1
  Pb  Pb120  1  0.75072844  0.49958925  -0.00187954  1
  Pb  Pb121  1  0.75554684  0.49351220  0.24940792  1
  Pb  Pb122  1  0.75795674  0.50015506  0.50461624  1
  Pb  Pb123  1  0.74576538  0.50230548  0.75124416  1
  Pb  Pb124  1  0.74201577  0.74847684  -0.00049580  1
  Pb  Pb125  1  0.74650092  0.74969716  0.24461345  1
  Pb  Pb126  1  0.75508526  0.74892398  0.50710472  1
  Pb  Pb127  1  0.74452096  0.74721518  0.75255172  1
  O  O128  1  0.12277697  0.00236170  0.16563456  1
  O  O129  1  0.12596416  0.00973684  0.41833012  1
  O  O130  1  0.12807787  0.00554009  0.66148759  1
  O  O131  1  0.12037630  0.00127664  0.91431496  1
  O  O132  1  0.12298515  0.24145141  0.16098261  1
  O  O133  1  0.12904906  0.24231037  0.41565148  1
  O  O134  1  0.12926952  0.24740627  0.66191646  1
  O  O135  1  0.12052549  0.25455572  0.91064880  1
  O  O136  1  0.12147856  0.50210835  0.16296401  1
  O  O137  1  0.12512415  0.50620868  0.41372455  1
  O  O138  1  0.13051389  0.49825503  0.66313499  1
  O  O139  1  0.12141850  0.50076574  0.91394398  1
  O  O140  1  0.12240170  0.75174349  0.16815033  1
  O  O141  1  0.12338648  0.74498135  0.41504598  1
  O  O142  1  0.13039891  0.75100311  0.65944248  1
  O  O143  1  0.11959705  0.74198242  0.90993200  1
  O  O144  1  0.37383731  -0.00443955  0.15942697  1
  O  O145  1  0.37878980  0.00459257  0.41267313  1
  O  O146  1  0.37932481  -0.00731384  0.66315217  1
  O  O147  1  0.37773461  0.00843302  0.91188713  1
  O  O148  1  0.37450891  0.24982253  0.16189638  1
  O  O149  1  0.37895830  0.25401298  0.41490668  1
  O  O150  1  0.37699212  0.25759505  0.66607670  1
  O  O151  1  0.37538216  0.24145484  0.91425372  1
  O  O152  1  0.37580639  0.49703630  0.15446589  1
  O  O153  1  0.38043573  0.49402570  0.41202315  1
  O  O154  1  0.37867091  0.49725405  0.66846764  1
  O  O155  1  0.36878247  0.50667002  0.91631301  1
  O  O156  1  0.37391302  0.75730290  0.15674089  1
  O  O157  1  0.37777857  0.74874986  0.41629782  1
  O  O158  1  0.37933148  0.75309171  0.66854706  1
  O  O159  1  0.37094036  0.74202336  0.91278273  1
  O  O160  1  0.62569278  -0.00463848  0.16060559  1
  O  O161  1  0.62353276  -0.00430715  0.41199103  1
  O  O162  1  0.62167974  -0.00478307  0.66717283  1
  O  O163  1  0.63159470  0.00869778  0.91477274  1
  O  O164  1  0.62815154  0.25774536  0.15881273  1
  O  O165  1  0.62119820  0.25402419  0.41081260  1
  O  O166  1  0.62126743  0.25554416  0.66619639  1
  O  O167  1  0.63261034  0.24375540  0.91386510  1
  O  O168  1  0.62753219  0.49502631  0.15988562  1
  O  O169  1  0.62260676  0.49750292  0.41565809  1
  O  O170  1  0.62154435  0.49603663  0.66872168  1
  O  O171  1  0.62932033  0.49807043  0.91548540  1
  O  O172  1  0.62827488  0.75074642  0.16145750  1
  O  O173  1  0.62593642  0.75298831  0.41405631  1
  O  O174  1  0.62228061  0.75474920  0.66900387  1
  O  O175  1  0.62933908  0.74719452  0.91191120  1
  O  O176  1  0.87549179  -0.00925647  0.16142862  1
  O  O177  1  0.87066845  -0.00393338  0.41665505  1
  O  O178  1  0.87423333  0.01010648  0.66536360  1
  O  O179  1  0.87633153  -0.00257102  0.90773228  1
  O  O180  1  0.87428817  0.24981057  0.16388669  1
  O  O181  1  0.87014172  0.24741208  0.41544646  1
  O  O182  1  0.87393985  0.24224866  0.66519065  1
  O  O183  1  0.87763294  0.25498142  0.91217673  1
  O  O184  1  0.87522244  0.50754774  0.16236129  1
  O  O185  1  0.87036537  0.50363747  0.41739318  1
  O  O186  1  0.87061257  0.49936813  0.65944672  1
  O  O187  1  0.87986375  0.49685045  0.91163793  1
  O  O188  1  0.87481778  0.75138681  0.16545487  1
  O  O189  1  0.87073516  0.75462864  0.42107053  1
  O  O190  1  0.87038760  0.75186624  0.66312608  1
  O  O191  1  0.88040886  0.74489594  0.90550139  1
  O  O192  1  0.00648826  0.12174726  0.16416762  1
  O  O193  1  0.00411709  0.12564220  0.41087342  1
  O  O194  1  0.00358293  0.12658931  0.66011114  1
  O  O195  1  -0.00553664  0.12649161  0.91321468  1
  O  O196  1  -0.00084439  0.37385940  0.16783410  1
  O  O197  1  0.00011291  0.37508333  0.41460919  1
  O  O198  1  0.00051187  0.37131941  0.65580075  1
  O  O199  1  0.00033072  0.37606510  0.91559179  1
  O  O200  1  -0.00854465  0.62987750  0.16633548  1
  O  O201  1  0.00089822  0.62661475  0.41817035  1
  O  O202  1  0.00120387  0.62574541  0.65854235  1
  O  O203  1  -0.00182660  0.62037496  0.91422144  1
  O  O204  1  -0.00723319  0.87312306  0.16634479  1
  O  O205  1  -0.00749302  0.87601887  0.41699256  1
  O  O206  1  -0.00023151  0.87954030  0.65707360  1
  O  O207  1  -0.00810504  0.87262049  0.91219102  1
  O  O208  1  0.24201070  0.12205129  0.16205934  1
  O  O209  1  0.25110885  0.12650793  0.41531492  1
  O  O210  1  0.24812488  0.12614208  0.66364845  1
  O  O211  1  0.24961817  0.12587810  0.90907878  1
  O  O212  1  0.24842752  0.37240330  0.15752162  1
  O  O213  1  0.25987921  0.37426288  0.41174232  1
  O  O214  1  0.25751539  0.37550605  0.66323685  1
  O  O215  1  0.24040292  0.37556132  0.91395629  1
  O  O216  1  0.25006308  0.62744275  0.16246603  1
  O  O217  1  0.24629751  0.62493340  0.40938640  1
  O  O218  1  0.25987595  0.62477916  0.66805562  1
  O  O219  1  0.24155656  0.62316312  0.91215819  1
  O  O220  1  0.25409282  0.87659231  0.15993880  1
  O  O221  1  0.25229771  0.87713535  0.41583395  1
  O  O222  1  0.25749324  0.87523172  0.65964720  1
  O  O223  1  0.24962884  0.87492519  0.91344647  1
  O  O224  1  0.49990983  0.12440620  0.16018825  1
  O  O225  1  0.50109950  0.12640034  0.41606651  1
  O  O226  1  0.49830079  0.12596901  0.67398692  1
  O  O227  1  0.50605369  0.12608545  0.90776002  1
  O  O228  1  0.50745448  0.37446594  0.15380560  1
  O  O229  1  0.50146226  0.37540734  0.41755401  1
  O  O230  1  0.49926017  0.37644600  0.66977026  1
  O  O231  1  0.50223742  0.37333003  0.91483429  1
  O  O232  1  0.50077930  0.62635614  0.15594825  1
  O  O233  1  0.50609694  0.62451454  0.41693527  1
  O  O234  1  0.49781723  0.62489211  0.67629707  1
  O  O235  1  0.49652206  0.62255010  0.90662387  1
  O  O236  1  0.49386399  0.87543381  0.15387876  1
  O  O237  1  0.50753404  0.87389105  0.41345563  1
  O  O238  1  0.50182686  0.87372796  0.67088618  1
  O  O239  1  0.49909945  0.87585642  0.91612372  1
  O  O240  1  0.74891718  0.12258427  0.16671672  1
  O  O241  1  0.74321956  0.12350749  0.41319901  1
  O  O242  1  0.75005877  0.12645047  0.66146067  1
  O  O243  1  0.75589797  0.12605281  0.91603030  1
  O  O244  1  0.74578834  0.37821045  0.16253628  1
  O  O245  1  0.73813758  0.37578710  0.41357798  1
  O  O246  1  0.74307969  0.37314879  0.66360234  1
  O  O247  1  0.75886180  0.37557562  0.91072766  1
  O  O248  1  0.75803488  0.62675234  0.16559849  1
  O  O249  1  0.74529100  0.62634399  0.41952072  1
  O  O250  1  0.74294208  0.62556685  0.66628618  1
  O  O251  1  0.76433414  0.62082568  0.91065279  1
  O  O252  1  0.75772654  0.87251466  0.16006855  1
  O  O253  1  0.74474155  0.87544433  0.41765394  1
  O  O254  1  0.74226037  0.87759094  0.66609566  1
  O  O255  1  0.76300426  0.87111050  0.91233190  1
  O  O256  1  0.12194817  0.12062596  0.04562268  1
  O  O257  1  0.12429802  0.12302155  0.29889312  1
  O  O258  1  0.12818696  0.12700714  0.54895357  1
  O  O259  1  0.12348127  0.12283475  0.78301436  1
  O  O260  1  0.11236550  0.37352496  0.03303621  1
  O  O261  1  0.12441744  0.37443155  0.29085498  1
  O  O262  1  0.13259861  0.38003042  0.52855703  1
  O  O263  1  0.12390404  0.37502011  0.80106697  1
  O  O264  1  0.12337871  0.63146564  0.03422849  1
  O  O265  1  0.12089189  0.62768428  0.30049061  1
  O  O266  1  0.13020675  0.62038975  0.53324532  1
  O  O267  1  0.12321925  0.62075322  0.79946820  1
  O  O268  1  0.11707195  0.87709384  0.03521163  1
  O  O269  1  0.12071926  0.88362923  0.29368899  1
  O  O270  1  0.12580969  0.88215244  0.52902993  1
  O  O271  1  0.12866296  0.88020933  0.78493155  1
  O  O272  1  0.37115302  0.13151933  0.03120726  1
  O  O273  1  0.37438853  0.12691832  0.29809378  1
  O  O274  1  0.38362882  0.12889296  0.53817757  1
  O  O275  1  0.36905081  0.12769068  0.79883157  1
  O  O276  1  0.37115480  0.36489475  0.02398323  1
  O  O277  1  0.37854173  0.37394520  0.29796330  1
  O  O278  1  0.37879349  0.37868919  0.55231684  1
  O  O279  1  0.37125289  0.37486526  0.79463023  1
  O  O280  1  0.36387401  0.62651121  0.02775168  1
  O  O281  1  0.38352280  0.62777691  0.28382981  1
  O  O282  1  0.37996650  0.62577318  0.55166896  1
  O  O283  1  0.36940863  0.62271776  0.80214086  1
  O  O284  1  0.37145967  0.87845941  0.04202841  1
  O  O285  1  0.37527990  0.87592625  0.28410585  1
  O  O286  1  0.38276772  0.87122041  0.55251855  1
  O  O287  1  0.37988744  0.87205384  0.78607186  1
  O  O288  1  0.63500772  0.12277431  0.03202015  1
  O  O289  1  0.62205464  0.12434423  0.29760705  1
  O  O290  1  0.61259733  0.12526589  0.53800811  1
  O  O291  1  0.63128033  0.12631083  0.80009476  1
  O  O292  1  0.63101642  0.37746436  0.04187743  1
  O  O293  1  0.61975672  0.37853306  0.29869726  1
  O  O294  1  0.62079528  0.37758700  0.55406543  1
  O  O295  1  0.62617387  0.37282753  0.78558964  1
  O  O296  1  0.63379107  0.62570839  0.03043996  1
  O  O297  1  0.62691706  0.62408640  0.29706238  1
  O  O298  1  0.61716085  0.62423000  0.55728787  1
  O  O299  1  0.63337145  0.62074811  0.78525844  1
  O  O300  1  0.62752072  0.86954706  0.02594947  1
  O  O301  1  0.62546321  0.87250554  0.29839384  1
  O  O302  1  0.62084389  0.87492815  0.55396853  1
  O  O303  1  0.62722151  0.88261699  0.79319978  1
  O  O304  1  0.86710720  0.12353237  0.03912382  1
  O  O305  1  0.86923607  0.12309099  0.28367054  1
  O  O306  1  0.86955573  0.12472728  0.54770199  1
  O  O307  1  0.87416632  0.12789665  0.79677028  1
  O  O308  1  0.88351872  0.37537015  0.03578171  1
  O  O309  1  0.87008846  0.37890636  0.28885104  1
  O  O310  1  0.86442771  0.36954156  0.53171804  1
  O  O311  1  0.87776725  0.37532293  0.79909996  1
  O  O312  1  0.87720498  0.62685149  0.04832747  1
  O  O313  1  0.87313108  0.63008110  0.30597139  1
  O  O314  1  0.86869997  0.63034198  0.53188670  1
  O  O315  1  0.88075145  0.62509177  0.79509566  1
  O  O316  1  0.87861851  0.87134238  0.04589300  1
  O  O317  1  0.87195954  0.87322681  0.30648970  1
  O  O318  1  0.86556010  0.88226607  0.53523939  1
  O  O319  1  0.87435952  0.87942760  0.79393661  1
