# generated using pymatgen
data_VFe(PbO3)2
_symmetry_space_group_name_H-M   'P 1'
_cell_length_a   15.39140813
_cell_length_b   15.38259631
_cell_length_c   18.56094687
_cell_angle_alpha   90.06297625
_cell_angle_beta   89.98909411
_cell_angle_gamma   89.98419041
_symmetry_Int_Tables_number   1
_chemical_formula_structural   VFe(PbO3)2
_chemical_formula_sum   'V32 Fe32 Pb64 O192'
_cell_volume   4394.48349839
_cell_formula_units_Z   32
loop_
 _symmetry_equiv_pos_site_id
 _symmetry_equiv_pos_as_xyz
  1  'x, y, z'
loop_
 _atom_site_type_symbol
 _atom_site_label
 _atom_site_symmetry_multiplicity
 _atom_site_fract_x
 _atom_site_fract_y
 _atom_site_fract_z
 _atom_site_occupancy
  V  V0  1  0.37383765  0.87314535  0.89076613  1
  V  V1  1  0.37421635  0.87576486  0.14664089  1
  V  V2  1  0.38091974  0.12465585  0.63584002  1
  V  V3  1  0.87712528  0.12640692  0.64242044  1
  V  V4  1  0.37687407  0.12217943  0.89031821  1
  V  V5  1  0.62294880  0.37507913  0.14346783  1
  V  V6  1  0.87340624  0.87931114  0.38581625  1
  V  V7  1  0.62312962  0.12560293  0.14178209  1
  V  V8  1  0.87930879  0.87635818  0.63673683  1
  V  V9  1  0.37483026  0.37494554  0.14222328  1
  V  V10  1  0.87698881  0.37892963  0.39075000  1
  V  V11  1  0.12406112  0.62459667  0.89338297  1
  V  V12  1  0.36289588  0.12486083  0.38373215  1
  V  V13  1  0.87583072  0.12901611  0.38717478  1
  V  V14  1  0.12195060  0.87336341  0.89143902  1
  V  V15  1  0.61915978  0.12470193  0.39236634  1
  V  V16  1  0.62434613  0.12375717  0.88930670  1
  V  V17  1  0.12157688  0.37672584  0.13897908  1
  V  V18  1  0.37614159  0.62579075  0.63401720  1
  V  V19  1  0.37440132  0.12735364  0.14131678  1
  V  V20  1  0.12615804  0.61422314  0.38546838  1
  V  V21  1  0.12654190  0.62465760  0.63596203  1
  V  V22  1  0.12217277  0.87287531  0.13888216  1
  V  V23  1  0.62382995  0.62622265  0.88869464  1
  V  V24  1  0.87066490  0.37298689  0.13943311  1
  V  V25  1  0.12314148  0.87736642  0.38617380  1
  V  V26  1  0.87214620  0.62618083  0.89169094  1
  V  V27  1  0.87257119  0.37699570  0.88930961  1
  V  V28  1  0.37444718  0.62487996  0.14571163  1
  V  V29  1  0.87169464  0.87604338  0.13881501  1
  V  V30  1  0.87255687  0.87113991  0.89296017  1
  V  V31  1  0.12772358  0.12345617  0.64298071  1
  Fe  Fe32  1  0.87203614  0.12288913  0.88828106  1
  Fe  Fe33  1  0.37379127  0.87875451  0.38270722  1
  Fe  Fe34  1  0.87683251  0.62309248  0.14060685  1
  Fe  Fe35  1  0.37171296  0.37209023  0.63693386  1
  Fe  Fe36  1  0.87159095  0.12666511  0.13453644  1
  Fe  Fe37  1  0.62550939  0.62679402  0.62328013  1
  Fe  Fe38  1  0.62691380  0.12322735  0.62964701  1
  Fe  Fe39  1  0.62573237  0.62473380  0.38435058  1
  Fe  Fe40  1  0.37637503  0.62860593  0.88331361  1
  Fe  Fe41  1  0.37019522  0.87823526  0.63223153  1
  Fe  Fe42  1  0.62519065  0.62325002  0.14783272  1
  Fe  Fe43  1  0.37167123  0.62530173  0.38310977  1
  Fe  Fe44  1  0.87837454  0.37557892  0.63107506  1
  Fe  Fe45  1  0.62399995  0.87739972  0.63116720  1
  Fe  Fe46  1  0.12336826  0.37438167  0.64284398  1
  Fe  Fe47  1  0.62437077  0.87379820  0.88796672  1
  Fe  Fe48  1  0.87757450  0.62735117  0.62232832  1
  Fe  Fe49  1  0.88164421  0.62777167  0.39705966  1
  Fe  Fe50  1  0.62571603  0.37411659  0.62742371  1
  Fe  Fe51  1  0.12193250  0.37610040  0.88412935  1
  Fe  Fe52  1  0.12675828  0.62459540  0.13683292  1
  Fe  Fe53  1  0.62364962  0.87372485  0.14646232  1
  Fe  Fe54  1  0.62757925  0.37075316  0.39075971  1
  Fe  Fe55  1  0.12425392  0.12376812  0.88974764  1
  Fe  Fe56  1  0.37293701  0.37189778  0.38588304  1
  Fe  Fe57  1  0.12591748  0.12532303  0.13789552  1
  Fe  Fe58  1  0.37665780  0.37808009  0.88352630  1
  Fe  Fe59  1  0.12358477  0.36747280  0.38223807  1
  Fe  Fe60  1  0.62680839  0.87872207  0.37986691  1
  Fe  Fe61  1  0.12614655  0.87633097  0.63786573  1
  Fe  Fe62  1  0.11870996  0.12397654  0.37852249  1
  Fe  Fe63  1  0.62711934  0.37661034  0.88488642  1
  Pb  Pb64  1  0.00033495  0.00827016  0.00295955  1
  Pb  Pb65  1  0.00418773  0.00804295  0.24492425  1
  Pb  Pb66  1  0.00387808  -0.00177977  0.49965777  1
  Pb  Pb67  1  -0.00128186  0.00986874  0.75901674  1
  Pb  Pb68  1  0.00056187  0.24372757  -0.00188892  1
  Pb  Pb69  1  0.00850805  0.24898212  0.24820833  1
  Pb  Pb70  1  0.00354303  0.25483534  0.50242681  1
  Pb  Pb71  1  0.00466031  0.24968652  0.75546059  1
  Pb  Pb72  1  -0.00459248  0.50784342  0.00427800  1
  Pb  Pb73  1  -0.00375612  0.50377606  0.25242727  1
  Pb  Pb74  1  0.00164438  0.48470215  0.50661875  1
  Pb  Pb75  1  -0.00167581  0.49714897  0.74427473  1
  Pb  Pb76  1  -0.00268233  0.74279376  0.00670321  1
  Pb  Pb77  1  -0.00584468  0.74044191  0.25527567  1
  Pb  Pb78  1  0.00298765  0.75224279  0.49971023  1
  Pb  Pb79  1  0.00045351  0.74859293  0.74424658  1
  Pb  Pb80  1  0.24427103  0.00376090  0.00312150  1
  Pb  Pb81  1  0.25186852  -0.00270523  0.25114108  1
  Pb  Pb82  1  0.24680124  -0.00859762  0.50162688  1
  Pb  Pb83  1  0.24625625  0.00267734  0.75042230  1
  Pb  Pb84  1  0.24403216  0.25077341  -0.00392395  1
  Pb  Pb85  1  0.24661702  0.25936916  0.25288637  1
  Pb  Pb86  1  0.24373351  0.26002445  0.50217620  1
  Pb  Pb87  1  0.24757400  0.25883816  0.75356569  1
  Pb  Pb88  1  0.25211992  0.49772834  -0.00480116  1
  Pb  Pb89  1  0.25731334  0.49702124  0.25368882  1
  Pb  Pb90  1  0.25943985  0.48899475  0.49939583  1
  Pb  Pb91  1  0.25906252  0.49851870  0.75086125  1
  Pb  Pb92  1  0.24651916  0.74767038  0.00165502  1
  Pb  Pb93  1  0.25778768  0.74907637  0.25431758  1
  Pb  Pb94  1  0.25288708  0.75931432  0.49586621  1
  Pb  Pb95  1  0.25590865  0.74588735  0.74782348  1
  Pb  Pb96  1  0.50487298  -0.00816812  0.00385846  1
  Pb  Pb97  1  0.49948124  -0.00437952  0.25523776  1
  Pb  Pb98  1  0.50062119  -0.01116196  0.49973301  1
  Pb  Pb99  1  0.50932469  -0.00802720  0.74609066  1
  Pb  Pb100  1  0.49988330  0.25393091  -0.00335220  1
  Pb  Pb101  1  0.49956357  0.26022417  0.25702408  1
  Pb  Pb102  1  0.49918361  0.26030927  0.50186196  1
  Pb  Pb103  1  0.50472017  0.26222427  0.74651322  1
  Pb  Pb104  1  0.50081505  0.50306851  -0.00340469  1
  Pb  Pb105  1  0.50022467  0.50495021  0.25932622  1
  Pb  Pb106  1  0.50351653  0.50001520  0.48920093  1
  Pb  Pb107  1  0.50225754  0.49574017  0.74054101  1
  Pb  Pb108  1  0.50745437  0.75251250  0.00667188  1
  Pb  Pb109  1  0.50694402  0.74957842  0.25657477  1
  Pb  Pb110  1  0.50387735  0.75243781  0.48552762  1
  Pb  Pb111  1  0.50465701  0.75533236  0.74172563  1
  Pb  Pb112  1  0.75240697  -0.00108664  0.00255594  1
  Pb  Pb113  1  0.74587201  -0.00245260  0.25147392  1
  Pb  Pb114  1  0.74258517  -0.00039407  0.50289457  1
  Pb  Pb115  1  0.75355075  0.00072658  0.74884469  1
  Pb  Pb116  1  0.75496750  0.24793865  -0.00028427  1
  Pb  Pb117  1  0.74378404  0.25490434  0.25548973  1
  Pb  Pb118  1  0.74652124  0.24892495  0.50535056  1
  Pb  Pb119  1  0.74299489  0.25821488  0.74428146  1
  Pb  Pb120  1  0.74682218  0.51237675  0.00602036  1
  Pb  Pb121  1  0.74316797  0.50406266  0.25831832  1
  Pb  Pb122  1  0.74311637  0.50418778  0.49615058  1
  Pb  Pb123  1  0.74922098  0.50269988  0.73217956  1
  Pb  Pb124  1  0.73669457  0.74677610  0.01129160  1
  Pb  Pb125  1  0.74793955  0.73899040  0.25505129  1
  Pb  Pb126  1  0.74386614  0.74251510  0.49296529  1
  Pb  Pb127  1  0.74530851  0.74978282  0.73854001  1
  O  O128  1  0.12830056  -0.00726564  0.16264044  1
  O  O129  1  0.12190895  -0.00203711  0.41152879  1
  O  O130  1  0.12290046  0.00529279  0.66879210  1
  O  O131  1  0.12499911  -0.00544420  0.91878128  1
  O  O132  1  0.12640119  0.25648552  0.15995601  1
  O  O133  1  0.11997805  0.24387546  0.41344363  1
  O  O134  1  0.11965244  0.24056922  0.66656045  1
  O  O135  1  0.12340903  0.25111179  0.91638297  1
  O  O136  1  0.12756117  0.49284209  0.16310955  1
  O  O137  1  0.12338881  0.50005935  0.39896059  1
  O  O138  1  0.12464510  0.50855276  0.66318687  1
  O  O139  1  0.12069013  0.50647011  0.91270591  1
  O  O140  1  0.12852909  0.75768512  0.16389563  1
  O  O141  1  0.12662115  0.76197981  0.40963954  1
  O  O142  1  0.12657212  0.74428521  0.66344649  1
  O  O143  1  0.12208580  0.74813026  0.92064686  1
  O  O144  1  0.37723591  0.00669236  0.16537835  1
  O  O145  1  0.37736393  0.01223082  0.41263440  1
  O  O146  1  0.36855392  0.01019087  0.66470131  1
  O  O147  1  0.37679251  0.00141502  0.91944410  1
  O  O148  1  0.37821962  0.24619827  0.16448769  1
  O  O149  1  0.37575791  0.23644633  0.41479280  1
  O  O150  1  0.37052900  0.23882434  0.66495417  1
  O  O151  1  0.37846060  0.24091141  0.91285984  1
  O  O152  1  0.37363336  0.50012033  0.16650324  1
  O  O153  1  0.36964881  0.49906082  0.41218983  1
  O  O154  1  0.37063154  0.50670512  0.65953724  1
  O  O155  1  0.37613592  0.50473472  0.91684020  1
  O  O156  1  0.37329842  0.74685304  0.16652509  1
  O  O157  1  0.36899788  0.75281797  0.40820750  1
  O  O158  1  0.36880780  0.74451724  0.65716706  1
  O  O159  1  0.37355206  0.75288687  0.91834018  1
  O  O160  1  0.62338670  0.00854144  0.16408182  1
  O  O161  1  0.63352406  0.00659010  0.41179413  1
  O  O162  1  0.62757165  0.00089330  0.66490068  1
  O  O163  1  0.62322804  0.00418238  0.91644604  1
  O  O164  1  0.62419015  0.24831460  0.16915652  1
  O  O165  1  0.63562629  0.24068321  0.41574768  1
  O  O166  1  0.62728549  0.24655117  0.66034501  1
  O  O167  1  0.62377140  0.24210488  0.91425838  1
  O  O168  1  0.62481050  0.49300644  0.16957535  1
  O  O169  1  0.62893385  0.49715715  0.40864895  1
  O  O170  1  0.62427968  0.50207387  0.65391620  1
  O  O171  1  0.62696998  0.50792137  0.91276016  1
  O  O172  1  0.62366055  0.74931200  0.17153709  1
  O  O173  1  0.62575463  0.75379523  0.40198536  1
  O  O174  1  0.62348830  0.75126330  0.65893743  1
  O  O175  1  0.62606192  0.74489190  0.91822040  1
  O  O176  1  0.87489359  -0.00542681  0.16278771  1
  O  O177  1  0.87869036  -0.00431054  0.41355306  1
  O  O178  1  0.87846935  -0.00360247  0.66656643  1
  O  O179  1  0.87284794  -0.00989883  0.91727057  1
  O  O180  1  0.87486609  0.25700387  0.16415866  1
  O  O181  1  0.87913717  0.24492096  0.40827842  1
  O  O182  1  0.87854640  0.24173297  0.66113880  1
  O  O183  1  0.87109342  0.25658145  0.91111771  1
  O  O184  1  0.87751768  0.48895445  0.16726725  1
  O  O185  1  0.88216758  0.49438065  0.40998646  1
  O  O186  1  0.87865417  0.50375228  0.65570773  1
  O  O187  1  0.87295519  0.50161526  0.91692636  1
  O  O188  1  0.87878653  0.75893894  0.16452188  1
  O  O189  1  0.88361195  0.76343961  0.41249778  1
  O  O190  1  0.87946515  0.75653367  0.65816647  1
  O  O191  1  0.87543402  0.75172390  0.91957696  1
  O  O192  1  -0.00212474  0.12427597  0.15784031  1
  O  O193  1  -0.00818556  0.11878836  0.41317778  1
  O  O194  1  -0.00156168  0.12010090  0.66819879  1
  O  O195  1  -0.00347026  0.12280678  0.91738236  1
  O  O196  1  0.00163627  0.37381556  0.15716756  1
  O  O197  1  -0.00309528  0.37083329  0.41463395  1
  O  O198  1  -0.00118072  0.37383430  0.66983528  1
  O  O199  1  -0.01014247  0.37768516  0.91517144  1
  O  O200  1  0.00252261  0.62421892  0.16899661  1
  O  O201  1  0.01587010  0.63170644  0.41740058  1
  O  O202  1  0.00638261  0.62845535  0.65804754  1
  O  O203  1  -0.00102851  0.62725702  0.91868571  1
  O  O204  1  0.00328864  0.87776036  0.15743730  1
  O  O205  1  0.00300612  0.87941685  0.41249286  1
  O  O206  1  -0.00289753  0.87546529  0.66651815  1
  O  O207  1  -0.00266690  0.87269636  0.91849474  1
  O  O208  1  0.25810824  0.12574691  0.16106990  1
  O  O209  1  0.24929443  0.12266103  0.39560677  1
  O  O210  1  0.24385913  0.12472263  0.66334800  1
  O  O211  1  0.25812574  0.12191492  0.91284476  1
  O  O212  1  0.25048778  0.37226391  0.16301467  1
  O  O213  1  0.24746728  0.36861734  0.41413314  1
  O  O214  1  0.24821873  0.37220879  0.66726231  1
  O  O215  1  0.25008365  0.37637473  0.91389455  1
  O  O216  1  0.25395332  0.62405073  0.16583889  1
  O  O217  1  0.23757244  0.62840274  0.41440554  1
  O  O218  1  0.24739482  0.62501340  0.66366934  1
  O  O219  1  0.24233222  0.62760560  0.91274828  1
  O  O220  1  0.24887253  0.87676237  0.16768011  1
  O  O221  1  0.24418993  0.88377989  0.40928723  1
  O  O222  1  0.24906270  0.87749760  0.67001752  1
  O  O223  1  0.24830590  0.87337956  0.91891112  1
  O  O224  1  0.50226167  0.12752318  0.16777852  1
  O  O225  1  0.50640655  0.12559109  0.40549488  1
  O  O226  1  0.49573081  0.12281253  0.65240177  1
  O  O227  1  0.50105056  0.12183964  0.91721503  1
  O  O228  1  0.49853560  0.37296979  0.16862671  1
  O  O229  1  0.49898949  0.36719715  0.41053692  1
  O  O230  1  0.49829445  0.37298889  0.65857236  1
  O  O231  1  0.50255267  0.37579419  0.91743158  1
  O  O232  1  0.49220197  0.62235156  0.16931196  1
  O  O233  1  0.49779623  0.62455005  0.40669401  1
  O  O234  1  0.49256054  0.62628640  0.65132759  1
  O  O235  1  0.50705889  0.62734108  0.91150340  1
  O  O236  1  0.49435042  0.87692919  0.16960250  1
  O  O237  1  0.50023429  0.88321496  0.40575466  1
  O  O238  1  0.49486958  0.87733139  0.66078411  1
  O  O239  1  0.49651783  0.87420655  0.92086143  1
  O  O240  1  0.74245118  0.12741739  0.16553402  1
  O  O241  1  0.76249793  0.12157752  0.41566294  1
  O  O242  1  0.75911471  0.11974020  0.66272433  1
  O  O243  1  0.74243229  0.12252212  0.91384460  1
  O  O244  1  0.75272917  0.37308338  0.16481650  1
  O  O245  1  0.76158120  0.37014819  0.41341755  1
  O  O246  1  0.75292301  0.37278387  0.65787645  1
  O  O247  1  0.75431911  0.37808646  0.91600119  1
  O  O248  1  0.75459431  0.62263445  0.17082560  1
  O  O249  1  0.75466543  0.62753527  0.40746798  1
  O  O250  1  0.75242221  0.63010041  0.65374515  1
  O  O251  1  0.74742045  0.62707736  0.91846361  1
  O  O252  1  0.75637026  0.87647097  0.16293008  1
  O  O253  1  0.75783536  0.87801134  0.40476604  1
  O  O254  1  0.76026693  0.87608759  0.65898556  1
  O  O255  1  0.75423193  0.87171144  0.91532898  1
  O  O256  1  0.12964914  0.12099918  0.03697543  1
  O  O257  1  0.11380902  0.12586727  0.27754049  1
  O  O258  1  0.12374048  0.12170623  0.55194501  1
  O  O259  1  0.12002878  0.12115903  0.79030996  1
  O  O260  1  0.12584706  0.37682266  0.04793860  1
  O  O261  1  0.12365636  0.36308996  0.28210542  1
  O  O262  1  0.11837816  0.36998823  0.54084533  1
  O  O263  1  0.12034474  0.37091744  0.78447646  1
  O  O264  1  0.12066770  0.62777473  0.03764128  1
  O  O265  1  0.12413659  0.62753645  0.29413590  1
  O  O266  1  0.13011493  0.62359587  0.54549060  1
  O  O267  1  0.11962726  0.62992581  0.80314890  1
  O  O268  1  0.12816426  0.87272204  0.04789577  1
  O  O269  1  0.12211446  0.87770582  0.29518495  1
  O  O270  1  0.13064930  0.88272449  0.53861025  1
  O  O271  1  0.12284204  0.87121714  0.80093026  1
  O  O272  1  0.37878272  0.12627678  0.05081615  1
  O  O273  1  0.37664301  0.12579772  0.29277269  1
  O  O274  1  0.37184878  0.12544735  0.54525872  1
  O  O275  1  0.38040566  0.11928253  0.80057090  1
  O  O276  1  0.37653666  0.37523575  0.05136242  1
  O  O277  1  0.36834266  0.36825685  0.28454562  1
  O  O278  1  0.36497444  0.36781734  0.53581643  1
  O  O279  1  0.37738458  0.37693220  0.78340692  1
  O  O280  1  0.37589017  0.62457686  0.05481133  1
  O  O281  1  0.36640137  0.62039954  0.28314271  1
  O  O282  1  0.36745931  0.62300860  0.54346046  1
  O  O283  1  0.37093261  0.62654953  0.78473054  1
  O  O284  1  0.37311433  0.87607944  0.05543562  1
  O  O285  1  0.36797598  0.88342736  0.28192843  1
  O  O286  1  0.36636353  0.88481760  0.53194534  1
  O  O287  1  0.37557402  0.87497408  0.80077987  1
  O  O288  1  0.62241424  0.12815556  0.05110696  1
  O  O289  1  0.63123735  0.12638035  0.30091089  1
  O  O290  1  0.63574073  0.12154861  0.52981013  1
  O  O291  1  0.62231583  0.12292231  0.79889164  1
  O  O292  1  0.62389691  0.37367337  0.05255204  1
  O  O293  1  0.62988728  0.36444330  0.28923179  1
  O  O294  1  0.62743873  0.36716818  0.52616713  1
  O  O295  1  0.62365522  0.37040190  0.78572441  1
  O  O296  1  0.62995733  0.62619172  0.04624097  1
  O  O297  1  0.62554306  0.61881609  0.28053481  1
  O  O298  1  0.62930679  0.62792141  0.52279128  1
  O  O299  1  0.62764836  0.62898341  0.79829479  1
  O  O300  1  0.61989015  0.86880593  0.04470277  1
  O  O301  1  0.62647603  0.88687321  0.27811333  1
  O  O302  1  0.62400606  0.88453941  0.53114691  1
  O  O303  1  0.61734803  0.87237553  0.78891923  1
  O  O304  1  0.86424463  0.12572652  0.03452307  1
  O  O305  1  0.87447521  0.12437255  0.29577698  1
  O  O306  1  0.88028311  0.12071784  0.55175394  1
  O  O307  1  0.87493526  0.11439407  0.78907590  1
  O  O308  1  0.86872621  0.37357027  0.04868571  1
  O  O309  1  0.87779512  0.37483211  0.29948464  1
  O  O310  1  0.89051167  0.37259370  0.53134355  1
  O  O311  1  0.87281548  0.38061785  0.79887372  1
  O  O312  1  0.87730534  0.61937611  0.04006427  1
  O  O313  1  0.89190547  0.62880266  0.29453453  1
  O  O314  1  0.88163564  0.63336578  0.52166853  1
  O  O315  1  0.87305686  0.62744924  0.80199201  1
  O  O316  1  0.87094449  0.87621194  0.04786640  1
  O  O317  1  0.87798663  0.87943617  0.29474779  1
  O  O318  1  0.88363975  0.88071955  0.54609883  1
  O  O319  1  0.87509887  0.86987836  0.80259004  1
