# generated using pymatgen
data_VFe(PbO3)2
_symmetry_space_group_name_H-M   'P 1'
_cell_length_a   15.39400543
_cell_length_b   15.38594769
_cell_length_c   18.50642271
_cell_angle_alpha   90.02613008
_cell_angle_beta   89.99743041
_cell_angle_gamma   90.00365335
_symmetry_Int_Tables_number   1
_chemical_formula_structural   VFe(PbO3)2
_chemical_formula_sum   'V32 Fe32 Pb64 O192'
_cell_volume   4383.27096389
_cell_formula_units_Z   32
loop_
 _symmetry_equiv_pos_site_id
 _symmetry_equiv_pos_as_xyz
  1  'x, y, z'
loop_
 _atom_site_type_symbol
 _atom_site_label
 _atom_site_symmetry_multiplicity
 _atom_site_fract_x
 _atom_site_fract_y
 _atom_site_fract_z
 _atom_site_occupancy
  V  V0  1  0.62551248  0.87568976  0.39048284  1
  V  V1  1  0.12613830  0.12390373  0.63746896  1
  V  V2  1  0.87615128  0.37637927  0.88877455  1
  V  V3  1  0.11977599  0.12510115  0.14170288  1
  V  V4  1  0.37787957  0.62330683  0.64330707  1
  V  V5  1  0.61959022  0.12574742  0.13566710  1
  V  V6  1  0.12570689  0.62442404  0.13809753  1
  V  V7  1  0.37639488  0.12202734  0.64851738  1
  V  V8  1  0.12469957  0.62603627  0.39352574  1
  V  V9  1  0.37236630  0.12449871  0.13580263  1
  V  V10  1  0.87464939  0.62440971  0.89565083  1
  V  V11  1  0.37747814  0.37413107  0.63993384  1
  V  V12  1  0.87085739  0.62685560  0.38803071  1
  V  V13  1  0.62842748  0.62493189  0.64524475  1
  V  V14  1  0.38112859  0.87241810  0.65559266  1
  V  V15  1  0.87736270  0.12464548  0.64358351  1
  V  V16  1  0.62683114  0.12728895  0.39199210  1
  V  V17  1  0.12646735  0.87092913  0.64325806  1
  V  V18  1  0.12071202  0.62439942  0.88676505  1
  V  V19  1  0.12446385  0.37717055  0.89080572  1
  V  V20  1  0.37597937  0.87375130  0.39027945  1
  V  V21  1  0.62546200  0.38060314  0.38666255  1
  V  V22  1  0.12139700  0.12711597  0.88414628  1
  V  V23  1  0.62496394  0.37489774  0.64511124  1
  V  V24  1  0.62703137  0.12351511  0.64903471  1
  V  V25  1  0.86805160  0.12505636  0.13745784  1
  V  V26  1  0.37322271  0.87628134  0.13354282  1
  V  V27  1  0.37450218  0.37420905  0.13966286  1
  V  V28  1  0.87845403  0.62344288  0.63926990  1
  V  V29  1  0.37382242  0.37444166  0.88647654  1
  V  V30  1  0.12707355  0.37376587  0.39041178  1
  V  V31  1  0.12589451  0.87439440  0.39040830  1
  Fe  Fe32  1  0.36881917  0.62225628  0.89142933  1
  Fe  Fe33  1  0.87674501  0.87668978  0.13122606  1
  Fe  Fe34  1  0.87827010  0.87539325  0.88459153  1
  Fe  Fe35  1  0.62406015  0.37013737  0.13117669  1
  Fe  Fe36  1  0.37694509  0.62617879  0.38576451  1
  Fe  Fe37  1  0.62305014  0.62663567  0.12482139  1
  Fe  Fe38  1  0.62580744  0.62904955  0.38226511  1
  Fe  Fe39  1  0.87650746  0.62512657  0.12661393  1
  Fe  Fe40  1  0.62465841  0.87553190  0.87942518  1
  Fe  Fe41  1  0.12664862  0.12219192  0.38766163  1
  Fe  Fe42  1  0.12768263  0.37283035  0.13940380  1
  Fe  Fe43  1  0.62439458  0.37654647  0.88645494  1
  Fe  Fe44  1  0.87515615  0.37492150  0.38902958  1
  Fe  Fe45  1  0.87541164  0.12228539  0.38708157  1
  Fe  Fe46  1  0.37755013  0.37483434  0.38589681  1
  Fe  Fe47  1  0.12511885  0.37460127  0.63253478  1
  Fe  Fe48  1  0.37162579  0.62627882  0.12758723  1
  Fe  Fe49  1  0.87800172  0.12938836  0.88046752  1
  Fe  Fe50  1  0.87699747  0.37424307  0.13767558  1
  Fe  Fe51  1  0.62692624  0.12901270  0.87872535  1
  Fe  Fe52  1  0.87502678  0.87282705  0.64446396  1
  Fe  Fe53  1  0.62344115  0.88084573  0.12765792  1
  Fe  Fe54  1  0.87559558  0.87361240  0.38636941  1
  Fe  Fe55  1  0.37059433  0.87622353  0.87539548  1
  Fe  Fe56  1  0.62463351  0.62245421  0.89524403  1
  Fe  Fe57  1  0.12878741  0.87786889  0.13287380  1
  Fe  Fe58  1  0.62584889  0.87263677  0.65229954  1
  Fe  Fe59  1  0.12726452  0.62430566  0.63267931  1
  Fe  Fe60  1  0.37024619  0.12971431  0.87826391  1
  Fe  Fe61  1  0.12277701  0.87346516  0.88469941  1
  Fe  Fe62  1  0.37806386  0.12180222  0.39089633  1
  Fe  Fe63  1  0.87068013  0.37692221  0.63408341  1
  Pb  Pb64  1  -0.00351987  -0.00860844  -0.00294871  1
  Pb  Pb65  1  -0.00545701  -0.00102854  0.25174343  1
  Pb  Pb66  1  -0.00638834  -0.00140767  0.49914778  1
  Pb  Pb67  1  -0.00024748  -0.00878754  0.75590912  1
  Pb  Pb68  1  -0.00043506  0.26035888  0.00466438  1
  Pb  Pb69  1  -0.00549860  0.24830679  0.25513897  1
  Pb  Pb70  1  -0.00171569  0.25329342  0.49765492  1
  Pb  Pb71  1  -0.00455379  0.24900190  0.74621214  1
  Pb  Pb72  1  -0.00796563  0.49720100  0.00756978  1
  Pb  Pb73  1  -0.00441460  0.49428050  0.24633542  1
  Pb  Pb74  1  0.00638124  0.49643387  0.50230735  1
  Pb  Pb75  1  0.00347736  0.49581256  0.74313443  1
  Pb  Pb76  1  -0.00731699  0.75616128  0.00429130  1
  Pb  Pb77  1  -0.00486434  0.75756971  0.24215569  1
  Pb  Pb78  1  -0.00160163  0.74731651  0.50151067  1
  Pb  Pb79  1  0.00135431  0.75880127  0.75557306  1
  Pb  Pb80  1  0.24616566  -0.00407095  -0.00832869  1
  Pb  Pb81  1  0.24867955  0.00917972  0.25282919  1
  Pb  Pb82  1  0.25341350  -0.00015578  0.50205939  1
  Pb  Pb83  1  0.24886415  -0.00532294  0.75435462  1
  Pb  Pb84  1  0.24162491  0.25443650  0.00150942  1
  Pb  Pb85  1  0.25290328  0.24412518  0.25464814  1
  Pb  Pb86  1  0.25053778  0.25028177  0.49825458  1
  Pb  Pb87  1  0.25204100  0.24674190  0.74815095  1
  Pb  Pb88  1  0.24777200  0.50154532  0.00360646  1
  Pb  Pb89  1  0.26114294  0.50169750  0.25168263  1
  Pb  Pb90  1  0.24610160  0.49975110  0.50078214  1
  Pb  Pb91  1  0.25496553  0.50387086  0.74867774  1
  Pb  Pb92  1  0.25114110  0.75307851  -0.00669791  1
  Pb  Pb93  1  0.25641212  0.74545635  0.24679288  1
  Pb  Pb94  1  0.24896013  0.74506853  0.50305577  1
  Pb  Pb95  1  0.25817617  0.74560797  0.75710932  1
  Pb  Pb96  1  0.49915357  0.00015678  -0.01906039  1
  Pb  Pb97  1  0.49341952  0.00394025  0.24695107  1
  Pb  Pb98  1  0.50890956  -0.00811166  0.50818157  1
  Pb  Pb99  1  0.50657842  0.00079399  0.76043437  1
  Pb  Pb100  1  0.50510167  0.24999173  -0.00701352  1
  Pb  Pb101  1  0.48954470  0.25203898  0.25269871  1
  Pb  Pb102  1  0.49943998  0.24881133  0.50105845  1
  Pb  Pb103  1  0.50486257  0.24711319  0.75559685  1
  Pb  Pb104  1  0.50247026  0.50927744  0.00016741  1
  Pb  Pb105  1  0.50404336  0.50947995  0.24230419  1
  Pb  Pb106  1  0.49810473  0.50603419  0.49571191  1
  Pb  Pb107  1  0.50768279  0.50099979  0.76128514  1
  Pb  Pb108  1  0.49979714  0.75243274  -0.01175230  1
  Pb  Pb109  1  0.50575122  0.74173717  0.24090760  1
  Pb  Pb110  1  0.50563249  0.75248179  0.50244560  1
  Pb  Pb111  1  0.50566806  0.73575318  0.76615660  1
  Pb  Pb112  1  0.75127103  -0.00165006  -0.01551914  1
  Pb  Pb113  1  0.75866180  -0.00495113  0.24873967  1
  Pb  Pb114  1  0.75443665  -0.00858110  0.50700085  1
  Pb  Pb115  1  0.75316925  -0.00703449  0.75694254  1
  Pb  Pb116  1  0.74766539  0.25517198  -0.00441958  1
  Pb  Pb117  1  0.75736003  0.25626968  0.25113186  1
  Pb  Pb118  1  0.75641696  0.25283658  0.50204246  1
  Pb  Pb119  1  0.75009847  0.24481082  0.75456998  1
  Pb  Pb120  1  0.74217852  0.49782924  0.00423797  1
  Pb  Pb121  1  0.74589427  0.50460795  0.23529795  1
  Pb  Pb122  1  0.75733897  0.49923250  0.50001710  1
  Pb  Pb123  1  0.74025361  0.50044310  0.75826355  1
  Pb  Pb124  1  0.73668825  0.76130806  -0.00163676  1
  Pb  Pb125  1  0.74740255  0.75039887  0.23353541  1
  Pb  Pb126  1  0.74860274  0.76414715  0.50852518  1
  Pb  Pb127  1  0.74980668  0.75515915  0.75841174  1
  O  O128  1  0.12992665  0.00747914  0.16505117  1
  O  O129  1  0.12735009  -0.00988650  0.41619193  1
  O  O130  1  0.12267480  0.00182699  0.66584780  1
  O  O131  1  0.12215386  0.01048104  0.90293645  1
  O  O132  1  0.12942815  0.24155302  0.16778731  1
  O  O133  1  0.12676595  0.25558253  0.41213992  1
  O  O134  1  0.12493253  0.24531043  0.66092297  1
  O  O135  1  0.12358378  0.25587346  0.91384420  1
  O  O136  1  0.12945416  0.50538706  0.16541229  1
  O  O137  1  0.12557026  0.49844839  0.41474701  1
  O  O138  1  0.12750516  0.50015694  0.66319785  1
  O  O139  1  0.12278986  0.49477911  0.91433823  1
  O  O140  1  0.12993962  0.74483407  0.16172602  1
  O  O141  1  0.12648068  0.75449051  0.41940188  1
  O  O142  1  0.12400829  0.75341275  0.66103239  1
  O  O143  1  0.12415777  0.74021597  0.90516140  1
  O  O144  1  0.37442831  0.00138080  0.16356690  1
  O  O145  1  0.37800190  -0.00700562  0.42295048  1
  O  O146  1  0.37314763  -0.00234351  0.67047916  1
  O  O147  1  0.36876216  0.00407333  0.90226474  1
  O  O148  1  0.37442303  0.24748913  0.16586252  1
  O  O149  1  0.37969570  0.24909758  0.42004639  1
  O  O150  1  0.37840468  0.25511617  0.66394926  1
  O  O151  1  0.36642086  0.25848540  0.91275136  1
  O  O152  1  0.37285812  0.49293872  0.15706262  1
  O  O153  1  0.37816495  0.49953475  0.41647380  1
  O  O154  1  0.37613106  0.49569761  0.66423157  1
  O  O155  1  0.36624625  0.48902569  0.91442771  1
  O  O156  1  0.37174427  0.75814386  0.15314745  1
  O  O157  1  0.37644899  0.75528565  0.41927168  1
  O  O158  1  0.37403887  0.75080641  0.66960821  1
  O  O159  1  0.36669491  0.75073693  0.90809578  1
  O  O160  1  0.62358148  0.01007572  0.16235764  1
  O  O161  1  0.62417193  -0.00505977  0.41897852  1
  O  O162  1  0.62453640  0.00623745  0.66899822  1
  O  O163  1  0.62475798  0.00314949  0.90233417  1
  O  O164  1  0.62443361  0.23936236  0.16526140  1
  O  O165  1  0.62551121  0.24589440  0.41222605  1
  O  O166  1  0.62250021  0.24937579  0.66593808  1
  O  O167  1  0.62580192  0.25276698  0.91183706  1
  O  O168  1  0.62150676  0.49745357  0.15448508  1
  O  O169  1  0.62608342  0.49611985  0.40765833  1
  O  O170  1  0.62150043  0.50408176  0.66908192  1
  O  O171  1  0.62636597  0.49670518  0.91838612  1
  O  O172  1  0.62176983  0.75481662  0.15534282  1
  O  O173  1  0.62482578  0.75768079  0.41508684  1
  O  O174  1  0.62130145  0.73996976  0.67062047  1
  O  O175  1  0.62513530  0.74983643  0.90758224  1
  O  O176  1  0.87850475  0.00837855  0.16239611  1
  O  O177  1  0.87325467  -0.00285194  0.42015173  1
  O  O178  1  0.87327846  0.00707097  0.66545667  1
  O  O179  1  0.88076255  0.00371862  0.90498207  1
  O  O180  1  0.87858430  0.24063065  0.16493997  1
  O  O181  1  0.87160958  0.24846177  0.41847695  1
  O  O182  1  0.87132558  0.24621577  0.66173721  1
  O  O183  1  0.87971751  0.26001429  0.91138209  1
  O  O184  1  0.87839551  0.50177871  0.16196592  1
  O  O185  1  0.87480739  0.50684794  0.41373176  1
  O  O186  1  0.86913576  0.50796171  0.66588137  1
  O  O187  1  0.88286811  0.49579062  0.91609065  1
  O  O188  1  0.87892085  0.74966409  0.15751481  1
  O  O189  1  0.87643945  0.74446609  0.41502616  1
  O  O190  1  0.87239030  0.73817488  0.66734087  1
  O  O191  1  0.88314973  0.74076980  0.91072657  1
  O  O192  1  0.00284893  0.12454764  0.16031847  1
  O  O193  1  0.00209113  0.12313142  0.41834787  1
  O  O194  1  -0.00311637  0.12728960  0.65995823  1
  O  O195  1  0.00742279  0.13490771  0.91154127  1
  O  O196  1  0.00373226  0.37111801  0.16947034  1
  O  O197  1  0.00577338  0.37628095  0.41313241  1
  O  O198  1  -0.00330136  0.37667064  0.66000377  1
  O  O199  1  0.00287748  0.37521106  0.91397414  1
  O  O200  1  0.00966294  0.62500826  0.16149936  1
  O  O201  1  -0.00182124  0.62635750  0.41731537  1
  O  O202  1  -0.00508013  0.62188157  0.65610678  1
  O  O203  1  0.00645398  0.61771429  0.91508231  1
  O  O204  1  0.00438070  0.87884763  0.16297969  1
  O  O205  1  0.00711243  0.87207693  0.41320600  1
  O  O206  1  0.00439656  0.87516934  0.66518598  1
  O  O207  1  0.00167531  0.87305634  0.91500602  1
  O  O208  1  0.25186333  0.12470935  0.16490716  1
  O  O209  1  0.25177939  0.12195512  0.42137977  1
  O  O210  1  0.24894521  0.12527457  0.66486805  1
  O  O211  1  0.23851293  0.13269236  0.91018503  1
  O  O212  1  0.25628217  0.37049963  0.16735710  1
  O  O213  1  0.24640653  0.37602059  0.41302225  1
  O  O214  1  0.25909842  0.37348134  0.66025590  1
  O  O215  1  0.24420691  0.37451181  0.91380603  1
  O  O216  1  0.24810687  0.62456564  0.16556527  1
  O  O217  1  0.24794805  0.62722651  0.41687680  1
  O  O218  1  0.25546871  0.62514898  0.66338446  1
  O  O219  1  0.23674012  0.61685548  0.91457734  1
  O  O220  1  0.25719761  0.87943102  0.16433411  1
  O  O221  1  0.24881698  0.87305721  0.41708437  1
  O  O222  1  0.24245120  0.87726822  0.66598185  1
  O  O223  1  0.24637189  0.87736978  0.90963899  1
  O  O224  1  0.49980556  0.12460372  0.16075825  1
  O  O225  1  0.50959991  0.12004885  0.42237817  1
  O  O226  1  0.50213422  0.12507166  0.66950068  1
  O  O227  1  0.49677614  0.13154005  0.90523042  1
  O  O228  1  0.49295360  0.36810106  0.16032227  1
  O  O229  1  0.51086622  0.37173201  0.41628497  1
  O  O230  1  0.49727704  0.37627218  0.66877520  1
  O  O231  1  0.48977788  0.37418269  0.90537845  1
  O  O232  1  0.49569734  0.62573084  0.15497539  1
  O  O233  1  0.50357783  0.62823657  0.41816144  1
  O  O234  1  0.49970669  0.62378468  0.67067629  1
  O  O235  1  0.49463380  0.62043872  0.91127069  1
  O  O236  1  0.49039718  0.88156574  0.15748933  1
  O  O237  1  0.50327668  0.87514730  0.41878016  1
  O  O238  1  0.49570098  0.87607854  0.66933458  1
  O  O239  1  0.49575843  0.87582130  0.89997379  1
  O  O240  1  0.75137968  0.12465389  0.15592514  1
  O  O241  1  0.74106703  0.12019031  0.41878479  1
  O  O242  1  0.74798213  0.12711798  0.66601171  1
  O  O243  1  0.75300738  0.13058489  0.90877491  1
  O  O244  1  0.74956960  0.36948042  0.16336289  1
  O  O245  1  0.74137171  0.37307396  0.41469968  1
  O  O246  1  0.74501154  0.37723890  0.66748369  1
  O  O247  1  0.75939442  0.37873442  0.90786091  1
  O  O248  1  0.74923977  0.62570169  0.15161960  1
  O  O249  1  0.75473391  0.62596438  0.41067635  1
  O  O250  1  0.74506041  0.62357291  0.66633402  1
  O  O251  1  0.75968849  0.61859301  0.91134050  1
  O  O252  1  0.74980713  0.88135079  0.15850451  1
  O  O253  1  0.74417826  0.87476637  0.41407445  1
  O  O254  1  0.75197181  0.87235075  0.67237517  1
  O  O255  1  0.75269835  0.87337824  0.90342434  1
  O  O256  1  0.12447125  0.12640524  0.05056851  1
  O  O257  1  0.13389223  0.12154328  0.28843957  1
  O  O258  1  0.12729447  0.12164374  0.54635345  1
  O  O259  1  0.12146948  0.13339763  0.79258614  1
  O  O260  1  0.12674721  0.36661148  0.03940001  1
  O  O261  1  0.12724638  0.37632983  0.29942351  1
  O  O262  1  0.12670775  0.37954570  0.53296295  1
  O  O263  1  0.12437952  0.37654788  0.79960758  1
  O  O264  1  0.12853820  0.62256699  0.04697996  1
  O  O265  1  0.12448493  0.62941527  0.30290218  1
  O  O266  1  0.12720895  0.62536608  0.53252961  1
  O  O267  1  0.12122157  0.61840427  0.79516511  1
  O  O268  1  0.12895726  0.88165416  0.03298062  1
  O  O269  1  0.12880137  0.87291815  0.29976109  1
  O  O270  1  0.12592903  0.87494560  0.55202637  1
  O  O271  1  0.11513540  0.87560005  0.78349085  1
  O  O272  1  0.37239317  0.12548040  0.04505262  1
  O  O273  1  0.38000794  0.12128677  0.29077271  1
  O  O274  1  0.37868850  0.12244016  0.55694962  1
  O  O275  1  0.36886128  0.13568323  0.77766465  1
  O  O276  1  0.37017061  0.36864516  0.04874513  1
  O  O277  1  0.37979692  0.37063310  0.28662484  1
  O  O278  1  0.38231417  0.37422680  0.54880379  1
  O  O279  1  0.36790813  0.37476235  0.79506151  1
  O  O280  1  0.36413135  0.62011582  0.02763050  1
  O  O281  1  0.37228227  0.62655316  0.28560525  1
  O  O282  1  0.38120817  0.62500475  0.55203717  1
  O  O283  1  0.36423857  0.62283380  0.78910133  1
  O  O284  1  0.36843115  0.88173102  0.04250020  1
  O  O285  1  0.37760909  0.87624679  0.29941524  1
  O  O286  1  0.37380887  0.87303634  0.56400112  1
  O  O287  1  0.36198718  0.87271952  0.77291018  1
  O  O288  1  0.61926984  0.12852844  0.04469031  1
  O  O289  1  0.62527971  0.12252435  0.30152985  1
  O  O290  1  0.62556542  0.12370463  0.55765187  1
  O  O291  1  0.62485412  0.13333952  0.77741929  1
  O  O292  1  0.62715176  0.36587976  0.03096022  1
  O  O293  1  0.62458203  0.37466672  0.29578506  1
  O  O294  1  0.62354923  0.37818417  0.55402244  1
  O  O295  1  0.62276691  0.38451965  0.78492965  1
  O  O296  1  0.62313047  0.62516866  0.02283531  1
  O  O297  1  0.61782634  0.62913337  0.28287260  1
  O  O298  1  0.62689081  0.62516628  0.55400298  1
  O  O299  1  0.62140876  0.61659451  0.79178568  1
  O  O300  1  0.62561224  0.87726277  0.02767851  1
  O  O301  1  0.62191210  0.87801920  0.30006984  1
  O  O302  1  0.62709790  0.87099076  0.54971269  1
  O  O303  1  0.62514548  0.87460676  0.77631069  1
  O  O304  1  0.87434571  0.12645161  0.04684682  1
  O  O305  1  0.87430473  0.12113546  0.28708331  1
  O  O306  1  0.87236933  0.12317210  0.55214274  1
  O  O307  1  0.87753859  0.13754598  0.78021897  1
  O  O308  1  0.88335670  0.37210616  0.03715667  1
  O  O309  1  0.87690823  0.36556250  0.28906589  1
  O  O310  1  0.86550101  0.37923434  0.53348962  1
  O  O311  1  0.88053049  0.37874095  0.79736737  1
  O  O312  1  0.88760178  0.62096812  0.02674144  1
  O  O313  1  0.87466686  0.62741489  0.29748304  1
  O  O314  1  0.87026508  0.62342145  0.54789831  1
  O  O315  1  0.88077994  0.61977270  0.80452120  1
  O  O316  1  0.88365808  0.87773589  0.03040548  1
  O  O317  1  0.87706182  0.88222087  0.28665523  1
  O  O318  1  0.86730238  0.87136788  0.54296622  1
  O  O319  1  0.88545129  0.87064613  0.78132020  1
