# generated using pymatgen
data_VFe(PbO3)2
_symmetry_space_group_name_H-M   'P 1'
_cell_length_a   15.37664791
_cell_length_b   15.38721701
_cell_length_c   18.53824386
_cell_angle_alpha   89.99416963
_cell_angle_beta   90.02068629
_cell_angle_gamma   90.00094723
_symmetry_Int_Tables_number   1
_chemical_formula_structural   VFe(PbO3)2
_chemical_formula_sum   'V32 Fe32 Pb64 O192'
_cell_volume   4386.21897184
_cell_formula_units_Z   32
loop_
 _symmetry_equiv_pos_site_id
 _symmetry_equiv_pos_as_xyz
  1  'x, y, z'
loop_
 _atom_site_type_symbol
 _atom_site_label
 _atom_site_symmetry_multiplicity
 _atom_site_fract_x
 _atom_site_fract_y
 _atom_site_fract_z
 _atom_site_occupancy
  V  V0  1  0.12610824  0.12285888  0.64201005  1
  V  V1  1  0.12523026  0.61990224  0.13405035  1
  V  V2  1  0.62274807  0.62506707  0.64276893  1
  V  V3  1  0.12915352  0.87458369  0.39497031  1
  V  V4  1  0.87145297  0.62650511  0.63695771  1
  V  V5  1  0.62627303  0.37082587  0.88684326  1
  V  V6  1  0.87410393  0.37572839  0.63551863  1
  V  V7  1  0.12258205  0.37374335  0.14017059  1
  V  V8  1  0.62350956  0.12569601  0.63569449  1
  V  V9  1  0.12552751  0.12419986  0.13797693  1
  V  V10  1  0.12227670  0.37252736  0.88336727  1
  V  V11  1  0.62087933  0.37728985  0.14158721  1
  V  V12  1  0.37646386  0.62763539  0.39360704  1
  V  V13  1  0.37362391  0.87342579  0.38854766  1
  V  V14  1  0.12869193  0.37217079  0.39376520  1
  V  V15  1  0.87236291  0.37531335  0.88873486  1
  V  V16  1  0.87830377  0.87042944  0.38928715  1
  V  V17  1  0.62823207  0.12550257  0.89077100  1
  V  V18  1  0.87419857  0.88242855  0.88993233  1
  V  V19  1  0.37647508  0.37412203  0.64167081  1
  V  V20  1  0.87376638  0.87599399  0.63885183  1
  V  V21  1  0.12474275  0.37168021  0.63935672  1
  V  V22  1  0.37457454  0.12371654  0.38987484  1
  V  V23  1  0.12596974  0.62683736  0.39604755  1
  V  V24  1  0.12292968  0.87600850  0.88662618  1
  V  V25  1  0.37473447  0.87550008  0.64547044  1
  V  V26  1  0.87659197  0.62150173  0.13856970  1
  V  V27  1  0.62325815  0.87311856  0.38834575  1
  V  V28  1  0.87298392  0.37531923  0.15065474  1
  V  V29  1  0.87615629  0.62881241  0.88879374  1
  V  V30  1  0.37550626  0.62047928  0.13146134  1
  V  V31  1  0.87317968  0.62769175  0.39252340  1
  Fe  Fe32  1  0.62823766  0.62130390  0.89031823  1
  Fe  Fe33  1  0.62371663  0.62884957  0.38498869  1
  Fe  Fe34  1  0.12753696  0.12182206  0.38525663  1
  Fe  Fe35  1  0.36948470  0.37853180  0.38585585  1
  Fe  Fe36  1  0.37563270  0.62644711  0.64757240  1
  Fe  Fe37  1  0.62603869  0.87320713  0.12667319  1
  Fe  Fe38  1  0.12339358  0.87194747  0.13020402  1
  Fe  Fe39  1  0.87851264  0.87518850  0.13309724  1
  Fe  Fe40  1  0.87860827  0.12377851  0.38410475  1
  Fe  Fe41  1  0.37595345  0.12415675  0.64064434  1
  Fe  Fe42  1  0.37389701  0.62296137  0.87567677  1
  Fe  Fe43  1  0.12302753  0.62475810  0.64425806  1
  Fe  Fe44  1  0.12029466  0.62321828  0.87954461  1
  Fe  Fe45  1  0.87727379  0.12762972  0.14376181  1
  Fe  Fe46  1  0.62924715  0.87588582  0.88978607  1
  Fe  Fe47  1  0.11972178  0.12590490  0.88449158  1
  Fe  Fe48  1  0.62573053  0.61999409  0.12986378  1
  Fe  Fe49  1  0.62226283  0.37834628  0.38897662  1
  Fe  Fe50  1  0.37664003  0.37335330  0.88168413  1
  Fe  Fe51  1  0.87913819  0.38009185  0.38383407  1
  Fe  Fe52  1  0.37256248  0.37650262  0.13600480  1
  Fe  Fe53  1  0.12382569  0.87745560  0.63665946  1
  Fe  Fe54  1  0.62305356  0.12311495  0.37854349  1
  Fe  Fe55  1  0.62557463  0.37363537  0.63313840  1
  Fe  Fe56  1  0.37578545  0.87596396  0.88940986  1
  Fe  Fe57  1  0.37262562  0.87507198  0.12392942  1
  Fe  Fe58  1  0.62515975  0.87686129  0.64193249  1
  Fe  Fe59  1  0.37255195  0.12687099  0.88576296  1
  Fe  Fe60  1  0.87347495  0.12450656  0.63224258  1
  Fe  Fe61  1  0.37456793  0.12851979  0.13038265  1
  Fe  Fe62  1  0.62642165  0.12689926  0.14163962  1
  Fe  Fe63  1  0.87486869  0.12879125  0.88723029  1
  Pb  Pb64  1  -0.00414621  -0.00540615  0.00351767  1
  Pb  Pb65  1  -0.00051465  0.00497333  0.24958073  1
  Pb  Pb66  1  0.00130158  -0.00004165  0.50012452  1
  Pb  Pb67  1  -0.00130565  0.01250295  0.75272954  1
  Pb  Pb68  1  -0.00585358  0.24140100  0.00224314  1
  Pb  Pb69  1  0.00348038  0.24157714  0.26017627  1
  Pb  Pb70  1  -0.00682041  0.24269147  0.49693156  1
  Pb  Pb71  1  -0.00152417  0.24163706  0.75130767  1
  Pb  Pb72  1  0.00044336  0.49584395  -0.00266129  1
  Pb  Pb73  1  -0.00076269  0.49745068  0.25537339  1
  Pb  Pb74  1  0.00749610  0.50743518  0.50357764  1
  Pb  Pb75  1  0.00118031  0.50041263  0.74762264  1
  Pb  Pb76  1  0.00057603  0.75903660  0.00296235  1
  Pb  Pb77  1  0.00287142  0.75095377  0.24611519  1
  Pb  Pb78  1  0.01111384  0.75246529  0.50905911  1
  Pb  Pb79  1  0.00184707  0.74851649  0.74772128  1
  Pb  Pb80  1  0.25414781  0.00204741  -0.00547539  1
  Pb  Pb81  1  0.25097936  -0.00098189  0.24021889  1
  Pb  Pb82  1  0.25646717  0.00124152  0.50428681  1
  Pb  Pb83  1  0.25890709  0.00099403  0.75706587  1
  Pb  Pb84  1  0.25973610  0.24939478  -0.00268669  1
  Pb  Pb85  1  0.25719180  0.25475030  0.25006145  1
  Pb  Pb86  1  0.25903433  0.24298018  0.50475968  1
  Pb  Pb87  1  0.25596734  0.24855512  0.75473540  1
  Pb  Pb88  1  0.25511388  0.49631673  -0.01057239  1
  Pb  Pb89  1  0.25484274  0.49721400  0.25132346  1
  Pb  Pb90  1  0.25228672  0.51293437  0.51095138  1
  Pb  Pb91  1  0.25172766  0.50276016  0.75035641  1
  Pb  Pb92  1  0.25111703  0.74829231  -0.01229028  1
  Pb  Pb93  1  0.25082019  0.74903592  0.23971902  1
  Pb  Pb94  1  0.25255458  0.74349737  0.51203383  1
  Pb  Pb95  1  0.24781640  0.74496973  0.75043193  1
  Pb  Pb96  1  0.49455765  -0.00272446  -0.00221804  1
  Pb  Pb97  1  0.50094959  -0.00007077  0.23547250  1
  Pb  Pb98  1  0.50360146  -0.00345679  0.50041879  1
  Pb  Pb99  1  0.49486795  -0.00360420  0.75837698  1
  Pb  Pb100  1  0.49201100  0.24761054  0.00226360  1
  Pb  Pb101  1  0.50134822  0.24862440  0.24852829  1
  Pb  Pb102  1  0.50444577  0.25323355  0.49445122  1
  Pb  Pb103  1  0.49180426  0.24981050  0.75141842  1
  Pb  Pb104  1  0.49832232  0.50356967  -0.00752900  1
  Pb  Pb105  1  0.51060680  0.49901112  0.25695435  1
  Pb  Pb106  1  0.50160045  0.49700936  0.50117526  1
  Pb  Pb107  1  0.49870971  0.50480759  0.75329949  1
  Pb  Pb108  1  0.50138513  0.75225499  -0.01118089  1
  Pb  Pb109  1  0.50398899  0.74849400  0.23664190  1
  Pb  Pb110  1  0.49794204  0.75270842  0.50591502  1
  Pb  Pb111  1  0.50105663  0.76301783  0.76166279  1
  Pb  Pb112  1  0.74079507  0.00581954  0.00970450  1
  Pb  Pb113  1  0.74957491  0.00091729  0.24140717  1
  Pb  Pb114  1  0.75149198  0.00679039  0.49447521  1
  Pb  Pb115  1  0.74655660  -0.00162910  0.74919582  1
  Pb  Pb116  1  0.75091376  0.23812267  0.01088124  1
  Pb  Pb117  1  0.74909408  0.24188106  0.25858526  1
  Pb  Pb118  1  0.75126645  0.24911514  0.48722642  1
  Pb  Pb119  1  0.75439523  0.24352808  0.74520948  1
  Pb  Pb120  1  0.74656733  0.49902541  0.00269573  1
  Pb  Pb121  1  0.74481218  0.49513899  0.25890048  1
  Pb  Pb122  1  0.74237486  0.49336648  0.49817359  1
  Pb  Pb123  1  0.74393233  0.50408226  0.75100388  1
  Pb  Pb124  1  0.74147467  0.75221260  0.00199412  1
  Pb  Pb125  1  0.74461804  0.74819575  0.24070528  1
  Pb  Pb126  1  0.74312015  0.76085120  0.50339977  1
  Pb  Pb127  1  0.73885352  0.74977584  0.75689945  1
  O  O128  1  0.12401981  0.00663327  0.15623268  1
  O  O129  1  0.12624711  -0.00559743  0.41695125  1
  O  O130  1  0.12173829  0.00564018  0.66355990  1
  O  O131  1  0.11571955  -0.00755298  0.91046870  1
  O  O132  1  0.12413285  0.25638569  0.16256268  1
  O  O133  1  0.12780520  0.25564052  0.41232444  1
  O  O134  1  0.12261280  0.24864689  0.66526581  1
  O  O135  1  0.11736758  0.25881096  0.90961904  1
  O  O136  1  0.12475359  0.49835792  0.16672446  1
  O  O137  1  0.12772810  0.50410928  0.42079501  1
  O  O138  1  0.12226255  0.49177683  0.66491419  1
  O  O139  1  0.11913368  0.49106122  0.91049149  1
  O  O140  1  0.12474309  0.74106023  0.16087558  1
  O  O141  1  0.12591550  0.75038684  0.42304972  1
  O  O142  1  0.12247231  0.75359415  0.66678169  1
  O  O143  1  0.11771723  0.75448324  0.90726844  1
  O  O144  1  0.37056855  0.00175503  0.15665335  1
  O  O145  1  0.37410739  -0.00125477  0.41584401  1
  O  O146  1  0.37606209  -0.00267876  0.66887245  1
  O  O147  1  0.37504258  0.00325949  0.91263215  1
  O  O148  1  0.37132774  0.25256940  0.16602729  1
  O  O149  1  0.37110609  0.24321907  0.41120638  1
  O  O150  1  0.37314079  0.25269104  0.66556508  1
  O  O151  1  0.37720323  0.25153029  0.91392218  1
  O  O152  1  0.36946774  0.50562866  0.16192786  1
  O  O153  1  0.36972787  0.51044939  0.41388218  1
  O  O154  1  0.37504698  0.49138603  0.66260518  1
  O  O155  1  0.37375879  0.49726285  0.90829139  1
  O  O156  1  0.37102241  0.73913573  0.15546216  1
  O  O157  1  0.37336421  0.75001166  0.42135232  1
  O  O158  1  0.37686294  0.75828483  0.66770974  1
  O  O159  1  0.37302363  0.74767450  0.90642245  1
  O  O160  1  0.62709749  -0.00256963  0.16002622  1
  O  O161  1  0.62249307  -0.00536975  0.41167601  1
  O  O162  1  0.62733456  0.00761376  0.66497394  1
  O  O163  1  0.63328535  0.00840760  0.91076463  1
  O  O164  1  0.63019783  0.26268907  0.16703960  1
  O  O165  1  0.62175392  0.24856361  0.40903142  1
  O  O166  1  0.62721721  0.24475547  0.65942431  1
  O  O167  1  0.63078733  0.25435684  0.91459432  1
  O  O168  1  0.62759372  0.49626329  0.16660338  1
  O  O169  1  0.62223588  0.50725878  0.41828007  1
  O  O170  1  0.62721963  0.50291052  0.66429291  1
  O  O171  1  0.63168298  0.48822891  0.91373199  1
  O  O172  1  0.62592937  0.74451697  0.15682847  1
  O  O173  1  0.62318925  0.75284291  0.41932280  1
  O  O174  1  0.62731059  0.74366809  0.66680651  1
  O  O175  1  0.63219054  0.74783044  0.91192784  1
  O  O176  1  0.87965460  0.00051842  0.16308618  1
  O  O177  1  0.87663331  -0.01210246  0.41013806  1
  O  O178  1  0.87250630  -0.00551107  0.66034343  1
  O  O179  1  0.87648314  -0.00296082  0.90808678  1
  O  O180  1  0.87980519  0.26082125  0.17071663  1
  O  O181  1  0.88010034  0.25318743  0.40887253  1
  O  O182  1  0.87501657  0.25622608  0.65757158  1
  O  O183  1  0.87525358  0.25936983  0.91501582  1
  O  O184  1  0.88099670  0.50221341  0.16977294  1
  O  O185  1  0.88049380  0.51137835  0.41444346  1
  O  O186  1  0.87384190  0.49751551  0.66154480  1
  O  O187  1  0.87533463  0.49407377  0.91582544  1
  O  O188  1  0.87958554  0.73845667  0.16226998  1
  O  O189  1  0.87709040  0.75145410  0.42072973  1
  O  O190  1  0.87181899  0.75060760  0.66354304  1
  O  O191  1  0.87771998  0.74344966  0.90794816  1
  O  O192  1  0.00896177  0.13178781  0.16585598  1
  O  O193  1  0.00384218  0.12202566  0.41648931  1
  O  O194  1  0.00220872  0.12659099  0.66192760  1
  O  O195  1  -0.00278568  0.12723318  0.91968739  1
  O  O196  1  0.00540120  0.37992859  0.16930792  1
  O  O197  1  0.01072005  0.38150395  0.41686406  1
  O  O198  1  -0.00529649  0.37524143  0.66169102  1
  O  O199  1  -0.00433896  0.37633464  0.91274627  1
  O  O200  1  0.00043412  0.62071446  0.16517275  1
  O  O201  1  -0.00002961  0.62993612  0.41970268  1
  O  O202  1  -0.00851855  0.62393252  0.66351804  1
  O  O203  1  -0.00689471  0.61739050  0.91342047  1
  O  O204  1  0.00272293  0.87061711  0.16786475  1
  O  O205  1  -0.00278003  0.87066266  0.41483393  1
  O  O206  1  -0.00990553  0.87384256  0.66268635  1
  O  O207  1  -0.00533750  0.87151903  0.91368508  1
  O  O208  1  0.24184066  0.12929532  0.16107181  1
  O  O209  1  0.25443035  0.12095999  0.41766325  1
  O  O210  1  0.24287061  0.12570099  0.66545506  1
  O  O211  1  0.24432876  0.12604818  0.90862836  1
  O  O212  1  0.24085098  0.37839740  0.16528613  1
  O  O213  1  0.24467428  0.37947658  0.42191576  1
  O  O214  1  0.25051434  0.37212830  0.66435165  1
  O  O215  1  0.24029388  0.37358148  0.90267183  1
  O  O216  1  0.24964788  0.62244219  0.16153896  1
  O  O217  1  0.25196340  0.63044273  0.42299346  1
  O  O218  1  0.24854215  0.62386469  0.66758108  1
  O  O219  1  0.24503811  0.62220173  0.90492269  1
  O  O220  1  0.24816624  0.87212174  0.16031236  1
  O  O221  1  0.25329707  0.87318856  0.41872705  1
  O  O222  1  0.25490160  0.87821299  0.66484303  1
  O  O223  1  0.23999726  0.87566443  0.90500823  1
  O  O224  1  0.49932547  0.13074131  0.16165809  1
  O  O225  1  0.49239203  0.12140256  0.41105320  1
  O  O226  1  0.50732213  0.12602806  0.66034171  1
  O  O227  1  0.51147430  0.12894974  0.91111232  1
  O  O228  1  0.50457412  0.37813169  0.15935844  1
  O  O229  1  0.49262381  0.37810119  0.41615902  1
  O  O230  1  0.49577652  0.37246094  0.66070101  1
  O  O231  1  0.51008267  0.37302126  0.90786833  1
  O  O232  1  0.49247122  0.62087253  0.15214371  1
  O  O233  1  0.49243510  0.63000015  0.41514032  1
  O  O234  1  0.50745802  0.62288271  0.66416230  1
  O  O235  1  0.50060735  0.61994398  0.90852934  1
  O  O236  1  0.49763522  0.87119169  0.15430066  1
  O  O237  1  0.49724374  0.87314937  0.41871372  1
  O  O238  1  0.49729675  0.87695192  0.66981689  1
  O  O239  1  0.50384183  0.87718498  0.91031967  1
  O  O240  1  0.75256095  0.13130356  0.16940819  1
  O  O241  1  0.75058871  0.12150270  0.40669191  1
  O  O242  1  0.74605503  0.12576831  0.66193035  1
  O  O243  1  0.74822557  0.13078353  0.91776636  1
  O  O244  1  0.75490974  0.38115495  0.16705101  1
  O  O245  1  0.75274479  0.38051353  0.41122511  1
  O  O246  1  0.75612044  0.37539524  0.65990319  1
  O  O247  1  0.75363754  0.37477769  0.91292995  1
  O  O248  1  0.75927451  0.61929809  0.15918219  1
  O  O249  1  0.75696088  0.63004016  0.41119644  1
  O  O250  1  0.74911677  0.62319187  0.66703964  1
  O  O251  1  0.76178020  0.61854718  0.91704365  1
  O  O252  1  0.75291834  0.86941800  0.16111002  1
  O  O253  1  0.75288251  0.87080852  0.41170960  1
  O  O254  1  0.75538795  0.87374420  0.66752690  1
  O  O255  1  0.76062794  0.87102770  0.91275586  1
  O  O256  1  0.12235934  0.12959240  0.04700724  1
  O  O257  1  0.12316878  0.12358483  0.28637926  1
  O  O258  1  0.12698550  0.12464950  0.55062290  1
  O  O259  1  0.11040736  0.12566665  0.78433151  1
  O  O260  1  0.12078256  0.37615968  0.04962270  1
  O  O261  1  0.13075418  0.37838212  0.30275376  1
  O  O262  1  0.12475210  0.37114572  0.54816796  1
  O  O263  1  0.11661049  0.37405520  0.79223429  1
  O  O264  1  0.12340544  0.61833298  0.04353978  1
  O  O265  1  0.12856188  0.62694254  0.30521317  1
  O  O266  1  0.12582007  0.62400440  0.54230745  1
  O  O267  1  0.11561636  0.62176127  0.77926606  1
  O  O268  1  0.11424792  0.87287153  0.03096395  1
  O  O269  1  0.12860656  0.87117878  0.30408419  1
  O  O270  1  0.11755350  0.87518434  0.53722755  1
  O  O271  1  0.11750000  0.87717096  0.79547005  1
  O  O272  1  0.37347083  0.13420825  0.02958106  1
  O  O273  1  0.37044364  0.12073284  0.29924318  1
  O  O274  1  0.36756589  0.12362897  0.54101190  1
  O  O275  1  0.37492199  0.12859875  0.78302220  1
  O  O276  1  0.36971553  0.37127621  0.03599816  1
  O  O277  1  0.36395053  0.37866354  0.28611767  1
  O  O278  1  0.37257754  0.37077230  0.55023064  1
  O  O279  1  0.37785788  0.36590415  0.78185653  1
  O  O280  1  0.36958297  0.61715441  0.04054086  1
  O  O281  1  0.37287719  0.63203003  0.30303331  1
  O  O282  1  0.37024623  0.62944224  0.54616400  1
  O  O283  1  0.37721936  0.61770469  0.77371280  1
  O  O284  1  0.37014250  0.87670489  0.02333133  1
  O  O285  1  0.37508451  0.87141898  0.29782589  1
  O  O286  1  0.37913391  0.87717042  0.55396520  1
  O  O287  1  0.37988520  0.88325610  0.78749118  1
  O  O288  1  0.63716878  0.12791022  0.03997866  1
  O  O289  1  0.62228407  0.12849681  0.27870905  1
  O  O290  1  0.62525595  0.12120301  0.54436609  1
  O  O291  1  0.63187390  0.13030479  0.79980008  1
  O  O292  1  0.62762814  0.37799071  0.05068589  1
  O  O293  1  0.62168715  0.38987042  0.28792120  1
  O  O294  1  0.62262882  0.38079138  0.53355286  1
  O  O295  1  0.62940579  0.37123259  0.79570964  1
  O  O296  1  0.63164860  0.61498717  0.02976074  1
  O  O297  1  0.61796656  0.62272271  0.28530889  1
  O  O298  1  0.62570554  0.62684488  0.55164196  1
  O  O299  1  0.63502298  0.61847054  0.78942921  1
  O  O300  1  0.63428618  0.87710348  0.02570920  1
  O  O301  1  0.62000381  0.86713409  0.29763574  1
  O  O302  1  0.62484909  0.87304712  0.54221799  1
  O  O303  1  0.62961415  0.87286559  0.78686379  1
  O  O304  1  0.87454544  0.13784023  0.04250708  1
  O  O305  1  0.88798043  0.12676087  0.28296579  1
  O  O306  1  0.87595816  0.12222064  0.53260432  1
  O  O307  1  0.87763840  0.13152362  0.78645651  1
  O  O308  1  0.87724838  0.37759045  0.05955912  1
  O  O309  1  0.88117429  0.38769095  0.28430427  1
  O  O310  1  0.87580920  0.37839081  0.54457476  1
  O  O311  1  0.87294462  0.37545097  0.79794781  1
  O  O312  1  0.88034819  0.61807514  0.04785686  1
  O  O313  1  0.87853354  0.63099181  0.30192972  1
  O  O314  1  0.86994234  0.62659929  0.54624369  1
  O  O315  1  0.87372071  0.62231110  0.79769532  1
  O  O316  1  0.88616950  0.87278399  0.03284498  1
  O  O317  1  0.87946275  0.86393614  0.29881162  1
  O  O318  1  0.87066528  0.87374814  0.54766652  1
  O  O319  1  0.87530698  0.87633020  0.79896959  1
