# generated using pymatgen
data_VFe(PbO3)2
_symmetry_space_group_name_H-M   'P 1'
_cell_length_a   15.37833950
_cell_length_b   15.37825083
_cell_length_c   18.53782758
_cell_angle_alpha   89.98078819
_cell_angle_beta   89.98467783
_cell_angle_gamma   90.00790731
_symmetry_Int_Tables_number   1
_chemical_formula_structural   VFe(PbO3)2
_chemical_formula_sum   'V32 Fe32 Pb64 O192'
_cell_volume   4384.04677323
_cell_formula_units_Z   32
loop_
 _symmetry_equiv_pos_site_id
 _symmetry_equiv_pos_as_xyz
  1  'x, y, z'
loop_
 _atom_site_type_symbol
 _atom_site_label
 _atom_site_symmetry_multiplicity
 _atom_site_fract_x
 _atom_site_fract_y
 _atom_site_fract_z
 _atom_site_occupancy
  V  V0  1  0.37472313  0.37468919  0.63988173  1
  V  V1  1  0.87617224  0.37488160  0.38868265  1
  V  V2  1  0.87543191  0.12517979  0.14460474  1
  V  V3  1  0.12413188  0.87460098  0.88904764  1
  V  V4  1  0.37864846  0.87178951  0.14057624  1
  V  V5  1  0.12485531  0.37430402  0.14005308  1
  V  V6  1  0.62682497  0.12284304  0.14217313  1
  V  V7  1  0.87589989  0.87113008  0.63198859  1
  V  V8  1  0.12604008  0.62384637  0.89234653  1
  V  V9  1  0.37678793  0.62565850  0.13881093  1
  V  V10  1  0.12692287  0.62360950  0.39263083  1
  V  V11  1  0.87646948  0.87530299  0.88674166  1
  V  V12  1  0.37388504  0.37795859  0.38658224  1
  V  V13  1  0.37499527  0.12308058  0.14067904  1
  V  V14  1  0.37295518  0.12622010  0.63843612  1
  V  V15  1  0.37364279  0.62270820  0.63600785  1
  V  V16  1  0.37423736  0.62572923  0.39024245  1
  V  V17  1  0.62617239  0.62745592  0.14039602  1
  V  V18  1  0.12144671  0.37162320  0.64511547  1
  V  V19  1  0.87580214  0.12356261  0.63839976  1
  V  V20  1  0.87232385  0.37598783  0.13942395  1
  V  V21  1  0.87188471  0.87357292  0.14519249  1
  V  V22  1  0.87163011  0.37158309  0.63566815  1
  V  V23  1  0.12494169  0.37563893  0.38745926  1
  V  V24  1  0.37438193  0.88236973  0.39242078  1
  V  V25  1  0.87877387  0.37537166  0.88809807  1
  V  V26  1  0.12573177  0.12634520  0.89279128  1
  V  V27  1  0.37819451  0.62772694  0.88811807  1
  V  V28  1  0.87388324  0.62572368  0.13919093  1
  V  V29  1  0.37223654  0.37603210  0.89261257  1
  V  V30  1  0.87278349  0.62289879  0.39475915  1
  V  V31  1  0.12799051  0.12410691  0.38859281  1
  Fe  Fe32  1  0.62471752  0.62211445  0.63196469  1
  Fe  Fe33  1  0.62500217  0.37721963  0.38205608  1
  Fe  Fe34  1  0.12586264  0.87271544  0.39066361  1
  Fe  Fe35  1  0.62424016  0.87234273  0.38434165  1
  Fe  Fe36  1  0.37159877  0.87393864  0.87981837  1
  Fe  Fe37  1  0.87731535  0.62074789  0.63057745  1
  Fe  Fe38  1  0.62600906  0.12563846  0.88106075  1
  Fe  Fe39  1  0.12516081  0.12645148  0.63384081  1
  Fe  Fe40  1  0.62285286  0.37378245  0.63951901  1
  Fe  Fe41  1  0.87691892  0.12326657  0.88547248  1
  Fe  Fe42  1  0.12434643  0.12419911  0.13555214  1
  Fe  Fe43  1  0.12448969  0.37564512  0.88497672  1
  Fe  Fe44  1  0.62340644  0.87610923  0.14374802  1
  Fe  Fe45  1  0.12366207  0.87753943  0.63066485  1
  Fe  Fe46  1  0.62697468  0.37781465  0.88363824  1
  Fe  Fe47  1  0.37402986  0.13048684  0.38472662  1
  Fe  Fe48  1  0.87815226  0.62700962  0.88424136  1
  Fe  Fe49  1  0.62806001  0.62463680  0.88357446  1
  Fe  Fe50  1  0.12683149  0.62391173  0.63334696  1
  Fe  Fe51  1  0.87483901  0.12653722  0.38070242  1
  Fe  Fe52  1  0.62641769  0.87576106  0.63766694  1
  Fe  Fe53  1  0.62453799  0.87360238  0.87770384  1
  Fe  Fe54  1  0.12351724  0.62684353  0.13699213  1
  Fe  Fe55  1  0.37320645  0.87519135  0.63461392  1
  Fe  Fe56  1  0.62191582  0.12695990  0.38395430  1
  Fe  Fe57  1  0.62412790  0.12739259  0.63871048  1
  Fe  Fe58  1  0.37621006  0.37513158  0.13447626  1
  Fe  Fe59  1  0.62394779  0.37468771  0.13924471  1
  Fe  Fe60  1  0.87698571  0.87384530  0.38456325  1
  Fe  Fe61  1  0.37515053  0.12329542  0.88302253  1
  Fe  Fe62  1  0.12493122  0.87526623  0.13972008  1
  Fe  Fe63  1  0.62165534  0.62293102  0.39202634  1
  Pb  Pb64  1  0.00762291  -0.00104032  0.00487533  1
  Pb  Pb65  1  -0.00264137  -0.00416737  0.25356527  1
  Pb  Pb66  1  0.00105996  -0.00476805  0.49334937  1
  Pb  Pb67  1  -0.00200072  0.00436153  0.74587354  1
  Pb  Pb68  1  0.00390208  0.24513915  0.00135107  1
  Pb  Pb69  1  -0.00471616  0.24621470  0.25038615  1
  Pb  Pb70  1  0.00453744  0.24373358  0.49908918  1
  Pb  Pb71  1  -0.00587181  0.24668264  0.75380554  1
  Pb  Pb72  1  0.00279656  0.50481886  -0.00021965  1
  Pb  Pb73  1  -0.00427039  0.50260707  0.24928798  1
  Pb  Pb74  1  0.00048424  0.50414689  0.50520673  1
  Pb  Pb75  1  -0.00533330  0.50444942  0.74975354  1
  Pb  Pb76  1  0.00785093  0.75277996  0.00496908  1
  Pb  Pb77  1  0.00090039  0.75852982  0.25416991  1
  Pb  Pb78  1  0.00184183  0.74104329  0.50150691  1
  Pb  Pb79  1  -0.00177764  0.74284365  0.74306768  1
  Pb  Pb80  1  0.24771107  -0.00179001  -0.00161395  1
  Pb  Pb81  1  0.24440443  -0.00253747  0.25025657  1
  Pb  Pb82  1  0.24954369  -0.00829894  0.50556418  1
  Pb  Pb83  1  0.25435478  -0.00172781  0.74656545  1
  Pb  Pb84  1  0.25337295  0.25208377  0.00182404  1
  Pb  Pb85  1  0.25625478  0.24498607  0.24962015  1
  Pb  Pb86  1  0.24531643  0.24629917  0.50130251  1
  Pb  Pb87  1  0.25146290  0.24800638  0.75404569  1
  Pb  Pb88  1  0.25487219  0.49873797  0.00343089  1
  Pb  Pb89  1  0.25130788  0.50187110  0.24734895  1
  Pb  Pb90  1  0.24612400  0.50168621  0.50268028  1
  Pb  Pb91  1  0.24531640  0.49324233  0.75163690  1
  Pb  Pb92  1  0.24209988  0.74969383  0.00268633  1
  Pb  Pb93  1  0.24404346  0.75606467  0.25258251  1
  Pb  Pb94  1  0.25055688  0.75837529  0.50700157  1
  Pb  Pb95  1  0.25007853  0.75619280  0.74313337  1
  Pb  Pb96  1  0.50180399  -0.00225312  -0.01167251  1
  Pb  Pb97  1  0.50073225  0.00937219  0.25570223  1
  Pb  Pb98  1  0.51205901  0.00626843  0.50029093  1
  Pb  Pb99  1  0.50040058  -0.00722576  0.74641080  1
  Pb  Pb100  1  0.50507426  0.25394598  -0.00358847  1
  Pb  Pb101  1  0.50127479  0.24712289  0.25128197  1
  Pb  Pb102  1  0.50988458  0.24836861  0.50056730  1
  Pb  Pb103  1  0.50151159  0.24103366  0.75329567  1
  Pb  Pb104  1  0.50472949  0.49195969  0.00276732  1
  Pb  Pb105  1  0.50750166  0.49783223  0.25123518  1
  Pb  Pb106  1  0.51079213  0.49620676  0.50351779  1
  Pb  Pb107  1  0.50917815  0.49925569  0.75139259  1
  Pb  Pb108  1  0.51009045  0.76219374  -0.00223510  1
  Pb  Pb109  1  0.50979532  0.74790431  0.25811019  1
  Pb  Pb110  1  0.50651892  0.75872890  0.50702772  1
  Pb  Pb111  1  0.50389529  0.75722537  0.74519189  1
  Pb  Pb112  1  0.74368124  -0.00131254  -0.00565576  1
  Pb  Pb113  1  0.75566177  -0.00022920  0.25783661  1
  Pb  Pb114  1  0.74695344  -0.00079981  0.48934949  1
  Pb  Pb115  1  0.74193475  0.00234805  0.74759332  1
  Pb  Pb116  1  0.74568371  0.25105672  -0.00509475  1
  Pb  Pb117  1  0.74303375  0.24657404  0.25295296  1
  Pb  Pb118  1  0.73869188  0.24414749  0.49761384  1
  Pb  Pb119  1  0.74047534  0.24878650  0.75259344  1
  Pb  Pb120  1  0.74616430  0.49978841  -0.00413490  1
  Pb  Pb121  1  0.74025562  0.50096920  0.25350524  1
  Pb  Pb122  1  0.74102782  0.49867269  0.50432283  1
  Pb  Pb123  1  0.74176954  0.50503733  0.74869898  1
  Pb  Pb124  1  0.74653636  0.75190020  -0.00520583  1
  Pb  Pb125  1  0.74502127  0.75437176  0.25691724  1
  Pb  Pb126  1  0.73831980  0.75501957  0.50019977  1
  Pb  Pb127  1  0.74109920  0.74046624  0.74360346  1
  O  O128  1  0.12640461  0.00036724  0.16736877  1
  O  O129  1  0.12969470  0.00715451  0.40770173  1
  O  O130  1  0.12371192  0.00285647  0.66251521  1
  O  O131  1  0.12460931  0.00193811  0.91525915  1
  O  O132  1  0.12392878  0.25599510  0.16443467  1
  O  O133  1  0.12543563  0.25096628  0.41386939  1
  O  O134  1  0.12724428  0.25353777  0.66857014  1
  O  O135  1  0.12470006  0.24625869  0.91482405  1
  O  O136  1  0.12458538  0.49581658  0.16381072  1
  O  O137  1  0.12528887  0.49936430  0.41635900  1
  O  O138  1  0.12675174  0.49143877  0.66453599  1
  O  O139  1  0.12462466  0.50510953  0.91453243  1
  O  O140  1  0.12567765  0.75014671  0.16947901  1
  O  O141  1  0.12838804  0.74004258  0.41162927  1
  O  O142  1  0.12391846  0.75063999  0.65903240  1
  O  O143  1  0.12453556  0.74763827  0.91623671  1
  O  O144  1  0.37584727  0.00147861  0.16402766  1
  O  O145  1  0.37191950  -0.00261366  0.40878921  1
  O  O146  1  0.37267889  0.00842752  0.65609273  1
  O  O147  1  0.37049969  -0.00172763  0.91280024  1
  O  O148  1  0.37546062  0.24405181  0.16166077  1
  O  O149  1  0.36918557  0.26195962  0.41007501  1
  O  O150  1  0.37160868  0.25433370  0.66527741  1
  O  O151  1  0.37146321  0.25756372  0.91272747  1
  O  O152  1  0.37395790  0.50804367  0.16150582  1
  O  O153  1  0.36524786  0.49651715  0.41580373  1
  O  O154  1  0.37080961  0.49479257  0.66357429  1
  O  O155  1  0.36915457  0.50324277  0.91645421  1
  O  O156  1  0.37693270  0.75188514  0.16387205  1
  O  O157  1  0.36907348  0.73981434  0.41208833  1
  O  O158  1  0.37225206  0.74008545  0.65560684  1
  O  O159  1  0.36795484  0.74204660  0.91063418  1
  O  O160  1  0.62360952  0.00615478  0.16702943  1
  O  O161  1  0.62031560  -0.00141643  0.40856389  1
  O  O162  1  0.62717164  0.00228846  0.66152763  1
  O  O163  1  0.62740794  -0.00221777  0.90912480  1
  O  O164  1  0.62410001  0.24254685  0.16285287  1
  O  O165  1  0.62305533  0.25534850  0.41272195  1
  O  O166  1  0.62495906  0.25098613  0.66749702  1
  O  O167  1  0.62581401  0.25326643  0.91241027  1
  O  O168  1  0.62502955  0.50654075  0.16503781  1
  O  O169  1  0.62588778  0.49722691  0.41765911  1
  O  O170  1  0.62321674  0.49858413  0.66489639  1
  O  O171  1  0.62469844  0.50094206  0.91671967  1
  O  O172  1  0.62318827  0.74638798  0.16902780  1
  O  O173  1  0.62023617  0.74743077  0.41636883  1
  O  O174  1  0.62539039  0.74734030  0.65953225  1
  O  O175  1  0.62664993  0.74969780  0.91302486  1
  O  O176  1  0.87258181  -0.00269715  0.16785029  1
  O  O177  1  0.87725756  0.00213920  0.41162074  1
  O  O178  1  0.87696518  0.00588335  0.65694027  1
  O  O179  1  0.87959703  -0.00785425  0.91588606  1
  O  O180  1  0.87542128  0.25206110  0.16787972  1
  O  O181  1  0.88112029  0.25770662  0.40849055  1
  O  O182  1  0.87969449  0.25365612  0.66511892  1
  O  O183  1  0.87848994  0.25631233  0.91418232  1
  O  O184  1  0.87583566  0.50059361  0.16704133  1
  O  O185  1  0.88283085  0.49732037  0.41651818  1
  O  O186  1  0.88334298  0.48796841  0.65792972  1
  O  O187  1  0.88051244  0.49452693  0.91384052  1
  O  O188  1  0.87371928  0.75252517  0.16604123  1
  O  O189  1  0.88132475  0.73925127  0.41201665  1
  O  O190  1  0.87905306  0.75509505  0.65093596  1
  O  O191  1  0.88106654  0.75833569  0.91323377  1
  O  O192  1  -0.00257597  0.12537679  0.16681433  1
  O  O193  1  0.00787872  0.12832051  0.40894587  1
  O  O194  1  -0.00460979  0.12996910  0.66472202  1
  O  O195  1  0.00480764  0.12416070  0.91787603  1
  O  O196  1  0.00240651  0.37583308  0.16611224  1
  O  O197  1  0.00278090  0.37562785  0.41521897  1
  O  O198  1  0.00310954  0.37030314  0.66290801  1
  O  O199  1  -0.00187234  0.37487151  0.91567962  1
  O  O200  1  -0.00530403  0.62597856  0.16798911  1
  O  O201  1  0.00632596  0.62029716  0.41389468  1
  O  O202  1  0.00173321  0.62112581  0.66478815  1
  O  O203  1  0.00609593  0.62629684  0.91648733  1
  O  O204  1  -0.00667687  0.87526429  0.16607818  1
  O  O205  1  0.00178896  0.87262425  0.41434436  1
  O  O206  1  -0.00826955  0.88037110  0.65899462  1
  O  O207  1  0.00205561  0.87562171  0.91701620  1
  O  O208  1  0.25504512  0.12560197  0.16274906  1
  O  O209  1  0.24621545  0.13072025  0.41358965  1
  O  O210  1  0.25456483  0.12992952  0.66329878  1
  O  O211  1  0.24416700  0.12591287  0.91510472  1
  O  O212  1  0.24493846  0.37570192  0.16287094  1
  O  O213  1  0.24553032  0.37630697  0.41662886  1
  O  O214  1  0.25144101  0.37332578  0.66684622  1
  O  O215  1  0.25142644  0.37756060  0.91864527  1
  O  O216  1  0.25749571  0.62813263  0.16312927  1
  O  O217  1  0.24819889  0.61804507  0.41619560  1
  O  O218  1  0.25521581  0.61933965  0.66382921  1
  O  O219  1  0.24646774  0.62452022  0.91589843  1
  O  O220  1  0.25998199  0.87559879  0.16614008  1
  O  O221  1  0.25579451  0.87076140  0.41650920  1
  O  O222  1  0.24896148  0.87609142  0.66311181  1
  O  O223  1  0.24393277  0.87289701  0.91415361  1
  O  O224  1  0.49886581  0.12384341  0.16340911  1
  O  O225  1  0.49554670  0.12802144  0.41705666  1
  O  O226  1  0.49066359  0.13083063  0.66128944  1
  O  O227  1  0.49984818  0.12722762  0.91216119  1
  O  O228  1  0.49834675  0.37684678  0.16520510  1
  O  O229  1  0.48973772  0.38173722  0.40267252  1
  O  O230  1  0.48989379  0.37445191  0.66433397  1
  O  O231  1  0.49208496  0.37970604  0.91173025  1
  O  O232  1  0.49593097  0.62701611  0.16420843  1
  O  O233  1  0.48789908  0.61664560  0.41171463  1
  O  O234  1  0.48955125  0.61866620  0.65984080  1
  O  O235  1  0.49197246  0.62289641  0.90873570  1
  O  O236  1  0.49205596  0.87692593  0.16861376  1
  O  O237  1  0.48970870  0.86911774  0.41461514  1
  O  O238  1  0.49771151  0.87489993  0.66060428  1
  O  O239  1  0.49744320  0.87134520  0.90826296  1
  O  O240  1  0.74647765  0.12461931  0.16622972  1
  O  O241  1  0.74996401  0.12885284  0.41018176  1
  O  O242  1  0.75977314  0.13051227  0.66018345  1
  O  O243  1  0.75276681  0.12466529  0.91590505  1
  O  O244  1  0.75354498  0.37535673  0.16472933  1
  O  O245  1  0.76054188  0.37825467  0.40850069  1
  O  O246  1  0.75799929  0.37286525  0.65758479  1
  O  O247  1  0.75908722  0.37700396  0.91211492  1
  O  O248  1  0.75119526  0.62708220  0.16646710  1
  O  O249  1  0.75727516  0.61951503  0.41086901  1
  O  O250  1  0.75320657  0.62072658  0.65528715  1
  O  O251  1  0.75459232  0.62553495  0.91487051  1
  O  O252  1  0.75347322  0.87480650  0.16809396  1
  O  O253  1  0.75121291  0.87056277  0.41118945  1
  O  O254  1  0.76189444  0.87818371  0.66027123  1
  O  O255  1  0.75827647  0.87400693  0.90764202  1
  O  O256  1  0.12152515  0.12319086  0.03634716  1
  O  O257  1  0.13041567  0.12946246  0.29729416  1
  O  O258  1  0.12471954  0.13469743  0.53444529  1
  O  O259  1  0.12375725  0.12432343  0.80179693  1
  O  O260  1  0.12308406  0.37389339  0.04889156  1
  O  O261  1  0.12657114  0.37608320  0.29664940  1
  O  O262  1  0.12513014  0.36950333  0.55395606  1
  O  O263  1  0.13094067  0.37601029  0.78656695  1
  O  O264  1  0.12225635  0.63172403  0.03773467  1
  O  O265  1  0.12894120  0.61987722  0.30138639  1
  O  O266  1  0.12278443  0.61801114  0.53375971  1
  O  O267  1  0.12534394  0.62678793  0.80144998  1
  O  O268  1  0.12322661  0.87197635  0.03902872  1
  O  O269  1  0.13037239  0.87134512  0.28943903  1
  O  O270  1  0.13368010  0.87842114  0.52917575  1
  O  O271  1  0.12196225  0.87392344  0.79830947  1
  O  O272  1  0.37610965  0.12325091  0.05002447  1
  O  O273  1  0.37803328  0.13061685  0.28487121  1
  O  O274  1  0.37092103  0.13228686  0.54729490  1
  O  O275  1  0.37223856  0.12959334  0.78379491  1
  O  O276  1  0.37272258  0.37857660  0.03487590  1
  O  O277  1  0.36505699  0.38059457  0.29508301  1
  O  O278  1  0.37382765  0.37340026  0.54920102  1
  O  O279  1  0.36906310  0.37956207  0.80164048  1
  O  O280  1  0.37805876  0.62784854  0.04825163  1
  O  O281  1  0.37084026  0.62237937  0.29903273  1
  O  O282  1  0.37115434  0.61748393  0.54505581  1
  O  O283  1  0.37355822  0.62422521  0.79759525  1
  O  O284  1  0.37872854  0.87214592  0.04981071  1
  O  O285  1  0.37350847  0.87378923  0.30141207  1
  O  O286  1  0.36591359  0.87341342  0.53344806  1
  O  O287  1  0.37073132  0.87430299  0.77942489  1
  O  O288  1  0.62816803  0.12173901  0.05119180  1
  O  O289  1  0.61748426  0.13156318  0.28334056  1
  O  O290  1  0.62003495  0.13331300  0.53676471  1
  O  O291  1  0.62949071  0.12961129  0.77987171  1
  O  O292  1  0.62101806  0.37737617  0.03866619  1
  O  O293  1  0.62827951  0.38213380  0.28131095  1
  O  O294  1  0.62245044  0.37742323  0.53787291  1
  O  O295  1  0.62836296  0.38234281  0.78320000  1
  O  O296  1  0.62664797  0.62889056  0.04913768  1
  O  O297  1  0.62099823  0.62290818  0.29064619  1
  O  O298  1  0.62117129  0.61667816  0.53035478  1
  O  O299  1  0.63111754  0.62088956  0.78295907  1
  O  O300  1  0.62124516  0.86999423  0.04398077  1
  O  O301  1  0.62312558  0.86396847  0.28298484  1
  O  O302  1  0.62427818  0.86901181  0.53553301  1
  O  O303  1  0.62478312  0.87251908  0.77681898  1
  O  O304  1  0.87339979  0.12454822  0.05368375  1
  O  O305  1  0.87295361  0.12493915  0.28047838  1
  O  O306  1  0.87966381  0.12933890  0.54752631  1
  O  O307  1  0.88298657  0.12504963  0.78640161  1
  O  O308  1  0.87604450  0.37577876  0.04889001  1
  O  O309  1  0.88028744  0.37979720  0.29760826  1
  O  O310  1  0.87516879  0.36775057  0.54482058  1
  O  O311  1  0.87938351  0.37469627  0.79696590  1
  O  O312  1  0.87588948  0.62520422  0.04842224  1
  O  O313  1  0.87960463  0.61898315  0.30359379  1
  O  O314  1  0.88824513  0.62025342  0.53012273  1
  O  O315  1  0.88548039  0.62464192  0.78472746  1
  O  O316  1  0.87258654  0.87542117  0.05458255  1
  O  O317  1  0.87729018  0.87540655  0.28409733  1
  O  O318  1  0.87566274  0.87754536  0.54091268  1
  O  O319  1  0.88020382  0.87771896  0.79626970  1
