# generated using pymatgen
data_VFe(PbO3)2
_symmetry_space_group_name_H-M   'P 1'
_cell_length_a   15.38291238
_cell_length_b   15.38947048
_cell_length_c   18.53347181
_cell_angle_alpha   89.96214367
_cell_angle_beta   90.00390478
_cell_angle_gamma   90.01951144
_symmetry_Int_Tables_number   1
_chemical_formula_structural   VFe(PbO3)2
_chemical_formula_sum   'V32 Fe32 Pb64 O192'
_cell_volume   4387.51792776
_cell_formula_units_Z   32
loop_
 _symmetry_equiv_pos_site_id
 _symmetry_equiv_pos_as_xyz
  1  'x, y, z'
loop_
 _atom_site_type_symbol
 _atom_site_label
 _atom_site_symmetry_multiplicity
 _atom_site_fract_x
 _atom_site_fract_y
 _atom_site_fract_z
 _atom_site_occupancy
  V  V0  1  0.37714077  0.87663167  0.14164693  1
  V  V1  1  0.12374954  0.87376985  0.39532327  1
  V  V2  1  0.62398420  0.12501432  0.88672346  1
  V  V3  1  0.12178372  0.87653556  0.13771150  1
  V  V4  1  0.62722297  0.37688686  0.14447702  1
  V  V5  1  0.87560576  0.12468367  0.88238335  1
  V  V6  1  0.62662364  0.87639345  0.88729350  1
  V  V7  1  0.37552565  0.62657912  0.88813927  1
  V  V8  1  0.12450914  0.37470958  0.39029410  1
  V  V9  1  0.12469546  0.12311120  0.39420840  1
  V  V10  1  0.87333246  0.37585969  0.63646895  1
  V  V11  1  0.12639369  0.62640699  0.88685433  1
  V  V12  1  0.37475689  0.12416944  0.88638834  1
  V  V13  1  0.62425141  0.12504653  0.14640780  1
  V  V14  1  0.37661709  0.86788837  0.63880418  1
  V  V15  1  0.62591247  0.62495336  0.38938725  1
  V  V16  1  0.87559699  0.37546009  0.39158758  1
  V  V17  1  0.37509440  0.12505427  0.14201467  1
  V  V18  1  0.37814601  0.62363232  0.13921918  1
  V  V19  1  0.37664705  0.36709784  0.63539926  1
  V  V20  1  0.62359739  0.87431740  0.63557800  1
  V  V21  1  0.62832477  0.87578714  0.14088455  1
  V  V22  1  0.87301343  0.87769085  0.13904732  1
  V  V23  1  0.37737215  0.11737700  0.63470735  1
  V  V24  1  0.62143123  0.62263136  0.64429854  1
  V  V25  1  0.37654270  0.61762894  0.64007382  1
  V  V26  1  0.87505147  0.37218608  0.13825382  1
  V  V27  1  0.87337323  0.87287767  0.39827589  1
  V  V28  1  0.37361502  0.12319588  0.38956306  1
  V  V29  1  0.37345303  0.62497919  0.38738226  1
  V  V30  1  0.62328913  0.87142403  0.39262193  1
  V  V31  1  0.12323204  0.62547245  0.39163479  1
  Fe  Fe32  1  0.12416865  0.37334598  0.13278939  1
  Fe  Fe33  1  0.87337180  0.62627356  0.87743090  1
  Fe  Fe34  1  0.62517037  0.12172480  0.39524684  1
  Fe  Fe35  1  0.62616413  0.37358319  0.88152759  1
  Fe  Fe36  1  0.62284257  0.62582876  0.87927696  1
  Fe  Fe37  1  0.87470642  0.62390863  0.63725479  1
  Fe  Fe38  1  0.62260743  0.37600473  0.63189864  1
  Fe  Fe39  1  0.87343996  0.37445091  0.88017376  1
  Fe  Fe40  1  0.12670516  0.37910699  0.63695335  1
  Fe  Fe41  1  0.12570779  0.62737495  0.13282744  1
  Fe  Fe42  1  0.12608774  0.12572897  0.87858408  1
  Fe  Fe43  1  0.62107067  0.12433213  0.62811764  1
  Fe  Fe44  1  0.87391405  0.12741523  0.62706765  1
  Fe  Fe45  1  0.87147918  0.12546013  0.13819166  1
  Fe  Fe46  1  0.12290316  0.12269660  0.13552914  1
  Fe  Fe47  1  0.37862883  0.37302365  0.13716508  1
  Fe  Fe48  1  0.37758196  0.37467688  0.89024303  1
  Fe  Fe49  1  0.37216140  0.37533395  0.38437196  1
  Fe  Fe50  1  0.12472003  0.37431620  0.88739054  1
  Fe  Fe51  1  0.62534606  0.37642785  0.39252065  1
  Fe  Fe52  1  0.87838704  0.12452799  0.39941502  1
  Fe  Fe53  1  0.87703167  0.62413590  0.39369214  1
  Fe  Fe54  1  0.62360201  0.62818063  0.13641714  1
  Fe  Fe55  1  0.12718347  0.12796168  0.63952657  1
  Fe  Fe56  1  0.12763252  0.87326570  0.63684835  1
  Fe  Fe57  1  0.37652528  0.87603998  0.88633528  1
  Fe  Fe58  1  0.87337262  0.87404573  0.63824843  1
  Fe  Fe59  1  0.12606045  0.87687765  0.88031097  1
  Fe  Fe60  1  0.12834325  0.62333445  0.63621631  1
  Fe  Fe61  1  0.87314435  0.62571374  0.13428377  1
  Fe  Fe62  1  0.37108969  0.87355802  0.38705076  1
  Fe  Fe63  1  0.87504614  0.87703416  0.87653364  1
  Pb  Pb64  1  0.00395251  0.00404250  -0.00762721  1
  Pb  Pb65  1  -0.00716431  0.00629719  0.25304936  1
  Pb  Pb66  1  -0.00186017  -0.00812029  0.51276771  1
  Pb  Pb67  1  0.00072868  -0.00303571  0.73910018  1
  Pb  Pb68  1  0.00974895  0.24952461  -0.00371743  1
  Pb  Pb69  1  -0.00424102  0.24317761  0.24897424  1
  Pb  Pb70  1  0.00534048  0.24422741  0.50676349  1
  Pb  Pb71  1  0.00445764  0.25048983  0.74340856  1
  Pb  Pb72  1  -0.00447438  0.50130291  -0.00857837  1
  Pb  Pb73  1  -0.00022889  0.50602158  0.24423434  1
  Pb  Pb74  1  0.00872186  0.50063217  0.50577758  1
  Pb  Pb75  1  -0.00394325  0.49956488  0.74631987  1
  Pb  Pb76  1  -0.00523589  0.74839590  -0.00954723  1
  Pb  Pb77  1  -0.00495389  0.74500472  0.24856272  1
  Pb  Pb78  1  -0.00061260  0.75551206  0.51234967  1
  Pb  Pb79  1  -0.00473631  0.75128806  0.74084620  1
  Pb  Pb80  1  0.24317745  0.00255490  -0.00523201  1
  Pb  Pb81  1  0.25370940  -0.00587541  0.25126850  1
  Pb  Pb82  1  0.24052150  -0.00027912  0.50516874  1
  Pb  Pb83  1  0.23969133  -0.00073092  0.75014869  1
  Pb  Pb84  1  0.24485792  0.25954414  -0.00009074  1
  Pb  Pb85  1  0.24817697  0.25490324  0.24542358  1
  Pb  Pb86  1  0.24188811  0.24902252  0.50340359  1
  Pb  Pb87  1  0.23944661  0.25364481  0.75590590  1
  Pb  Pb88  1  0.24467176  0.49708890  0.00093413  1
  Pb  Pb89  1  0.24949235  0.49571916  0.24317411  1
  Pb  Pb90  1  0.24235106  0.50025843  0.50214809  1
  Pb  Pb91  1  0.24629997  0.48936863  0.75553516  1
  Pb  Pb92  1  0.24596510  0.74927753  -0.00184891  1
  Pb  Pb93  1  0.25256853  0.75461681  0.24941487  1
  Pb  Pb94  1  0.24048894  0.74646505  0.50371058  1
  Pb  Pb95  1  0.24411538  0.75655794  0.75141863  1
  Pb  Pb96  1  0.50202247  0.00078420  -0.00059360  1
  Pb  Pb97  1  0.50616703  0.00397492  0.25584776  1
  Pb  Pb98  1  0.50012046  0.00296893  0.50036269  1
  Pb  Pb99  1  0.49407908  -0.00601912  0.75017700  1
  Pb  Pb100  1  0.49740208  0.25737793  0.00201262  1
  Pb  Pb101  1  0.50423548  0.25807195  0.26128259  1
  Pb  Pb102  1  0.50833715  0.25383199  0.49837759  1
  Pb  Pb103  1  0.50183143  0.25741234  0.74836472  1
  Pb  Pb104  1  0.50408408  0.49797183  -0.00402959  1
  Pb  Pb105  1  0.50135622  0.48850356  0.25700116  1
  Pb  Pb106  1  0.50125294  0.49155166  0.49948473  1
  Pb  Pb107  1  0.50056689  0.48825155  0.75737299  1
  Pb  Pb108  1  0.50646153  0.74561440  -0.00016798  1
  Pb  Pb109  1  0.49673866  0.75490579  0.25071623  1
  Pb  Pb110  1  0.49745334  0.74560514  0.50003947  1
  Pb  Pb111  1  0.50224792  0.74818787  0.75436858  1
  Pb  Pb112  1  0.75756292  0.00522769  -0.00054280  1
  Pb  Pb113  1  0.75168713  0.01303811  0.26240423  1
  Pb  Pb114  1  0.75499333  0.00357600  0.50501313  1
  Pb  Pb115  1  0.75672038  0.00164589  0.74021072  1
  Pb  Pb116  1  0.75610210  0.24752558  -0.00311640  1
  Pb  Pb117  1  0.74215137  0.24746417  0.25995243  1
  Pb  Pb118  1  0.74715886  0.24403660  0.49877193  1
  Pb  Pb119  1  0.74424606  0.25497559  0.73920286  1
  Pb  Pb120  1  0.74885395  0.50527143  -0.01149486  1
  Pb  Pb121  1  0.75397375  0.50490720  0.25065884  1
  Pb  Pb122  1  0.75776982  0.50328962  0.50448012  1
  Pb  Pb123  1  0.75753874  0.49662815  0.75422134  1
  Pb  Pb124  1  0.75508629  0.73836037  -0.00432671  1
  Pb  Pb125  1  0.75558314  0.74434658  0.25101020  1
  Pb  Pb126  1  0.76075044  0.74738403  0.50927445  1
  Pb  Pb127  1  0.75392255  0.74287201  0.75137006  1
  O  O128  1  0.12432267  -0.00549247  0.16781284  1
  O  O129  1  0.12486071  0.00217994  0.41757015  1
  O  O130  1  0.13252849  0.00090465  0.65844430  1
  O  O131  1  0.12576853  0.00332301  0.91168924  1
  O  O132  1  0.12485037  0.24819462  0.16700891  1
  O  O133  1  0.12704198  0.24702876  0.41471395  1
  O  O134  1  0.13078791  0.25516937  0.66425167  1
  O  O135  1  0.12563443  0.24627105  0.91237827  1
  O  O136  1  0.12572857  0.50034371  0.16348106  1
  O  O137  1  0.12652469  0.50278174  0.41351533  1
  O  O138  1  0.13235521  0.50095430  0.66930152  1
  O  O139  1  0.12918864  0.50802924  0.91125852  1
  O  O140  1  0.12431647  0.75658660  0.16597458  1
  O  O141  1  0.12483584  0.74518063  0.41528518  1
  O  O142  1  0.13230570  0.74774795  0.66432640  1
  O  O143  1  0.12970439  0.74512245  0.90999667  1
  O  O144  1  0.37679758  0.00195369  0.16918969  1
  O  O145  1  0.36917149  0.00279153  0.41627860  1
  O  O146  1  0.37899553  -0.00109791  0.65633539  1
  O  O147  1  0.38011619  0.00737535  0.91710926  1
  O  O148  1  0.37912605  0.24101327  0.16424606  1
  O  O149  1  0.37139300  0.24022548  0.41103402  1
  O  O150  1  0.38102168  0.25277219  0.65108075  1
  O  O151  1  0.38177279  0.23918907  0.91295985  1
  O  O152  1  0.37800199  0.50671724  0.15960410  1
  O  O153  1  0.37478997  0.50665811  0.41197681  1
  O  O154  1  0.38087055  0.50378145  0.65892837  1
  O  O155  1  0.37673107  0.50948442  0.91494158  1
  O  O156  1  0.37584108  0.75072703  0.16682524  1
  O  O157  1  0.37321893  0.74507839  0.41691279  1
  O  O158  1  0.37889642  0.75332658  0.66187649  1
  O  O159  1  0.37530841  0.74519733  0.91423470  1
  O  O160  1  0.62553001  -0.00160684  0.17151979  1
  O  O161  1  0.62669041  -0.01313467  0.41735194  1
  O  O162  1  0.61711653  -0.00747477  0.65714739  1
  O  O163  1  0.62468336  0.00258218  0.91651557  1
  O  O164  1  0.62556002  0.25087177  0.17235890  1
  O  O165  1  0.62382638  0.24928212  0.41316370  1
  O  O166  1  0.61788394  0.25056203  0.65626311  1
  O  O167  1  0.62461325  0.23964750  0.91052309  1
  O  O168  1  0.62456337  0.49461527  0.16319667  1
  O  O169  1  0.62379583  0.50937770  0.41230227  1
  O  O170  1  0.61530396  0.50709829  0.65790604  1
  O  O171  1  0.62165070  0.50056146  0.90733431  1
  O  O172  1  0.62477861  0.75629401  0.16872992  1
  O  O173  1  0.62647728  0.75093649  0.41817984  1
  O  O174  1  0.61707479  0.75599857  0.66525303  1
  O  O175  1  0.62142130  0.75977067  0.90764523  1
  O  O176  1  0.87296692  -0.00617704  0.16678810  1
  O  O177  1  0.87895736  -0.00949484  0.41996118  1
  O  O178  1  0.87213107  0.00168209  0.65615681  1
  O  O179  1  0.86933965  0.00658197  0.91023038  1
  O  O180  1  0.86935766  0.25628363  0.16820384  1
  O  O181  1  0.87990531  0.25916937  0.41650432  1
  O  O182  1  0.87279952  0.25781666  0.65688858  1
  O  O183  1  0.86896191  0.24010125  0.90800797  1
  O  O184  1  0.87005449  0.49167159  0.16226335  1
  O  O185  1  0.87742640  0.49432572  0.41870053  1
  O  O186  1  0.86958708  0.49561128  0.66191247  1
  O  O187  1  0.87471981  0.50213514  0.91008725  1
  O  O188  1  0.87418309  0.75783632  0.16463520  1
  O  O189  1  0.87688928  0.75304646  0.42007058  1
  O  O190  1  0.86969322  0.74856914  0.66052650  1
  O  O191  1  0.87426351  0.75205936  0.90640561  1
  O  O192  1  -0.00340286  0.12352032  0.16827369  1
  O  O193  1  0.00936693  0.12535153  0.41782195  1
  O  O194  1  -0.00136079  0.13006642  0.65831291  1
  O  O195  1  -0.00798879  0.12344995  0.89972625  1
  O  O196  1  -0.00876942  0.37366268  0.15979835  1
  O  O197  1  0.00245725  0.37664752  0.41800070  1
  O  O198  1  -0.00588494  0.37883364  0.65774277  1
  O  O199  1  -0.00189261  0.37402521  0.91175830  1
  O  O200  1  -0.00151021  0.62640290  0.16467339  1
  O  O201  1  0.00733306  0.62324765  0.41518659  1
  O  O202  1  0.00111517  0.62249537  0.65882687  1
  O  O203  1  0.00738227  0.62670714  0.90313093  1
  O  O204  1  -0.00576690  0.87586292  0.16406055  1
  O  O205  1  0.00016571  0.87198107  0.42163244  1
  O  O206  1  0.00136088  0.87421549  0.65872841  1
  O  O207  1  0.00007417  0.87755785  0.90831391  1
  O  O208  1  0.25764536  0.12173294  0.16355947  1
  O  O209  1  0.24759700  0.12281922  0.41740576  1
  O  O210  1  0.26569081  0.12886321  0.66263398  1
  O  O211  1  0.25906633  0.12341872  0.90588113  1
  O  O212  1  0.25259050  0.37373638  0.16301450  1
  O  O213  1  0.24560784  0.37491631  0.41186949  1
  O  O214  1  0.26331584  0.37930322  0.66153797  1
  O  O215  1  0.25271710  0.37493457  0.91548634  1
  O  O216  1  0.25856015  0.62841137  0.16409032  1
  O  O217  1  0.24635053  0.62544322  0.41275389  1
  O  O218  1  0.26392322  0.62796761  0.66523062  1
  O  O219  1  0.25341632  0.62638623  0.91455547  1
  O  O220  1  0.25046462  0.87587133  0.16486086  1
  O  O221  1  0.24459819  0.87337951  0.41723677  1
  O  O222  1  0.26111769  0.87567070  0.65949628  1
  O  O223  1  0.25171811  0.87734245  0.91576703  1
  O  O224  1  0.49854677  0.12112352  0.17147643  1
  O  O225  1  0.49139051  0.11806056  0.40979532  1
  O  O226  1  0.49207061  0.12450356  0.66273429  1
  O  O227  1  0.50470662  0.12094299  0.91312910  1
  O  O228  1  0.50649823  0.37250694  0.16796380  1
  O  O229  1  0.49555785  0.37632570  0.41541368  1
  O  O230  1  0.49289589  0.37958643  0.66346773  1
  O  O231  1  0.50293167  0.37217231  0.91884192  1
  O  O232  1  0.49490590  0.62977345  0.16673767  1
  O  O233  1  0.50394264  0.62994768  0.41196413  1
  O  O234  1  0.49515349  0.63170724  0.66890440  1
  O  O235  1  0.49493100  0.62935694  0.91177386  1
  O  O236  1  0.50098306  0.87675736  0.16771830  1
  O  O237  1  0.50424902  0.87110614  0.41122931  1
  O  O238  1  0.49759281  0.87531989  0.66533387  1
  O  O239  1  0.50642857  0.88017061  0.91775860  1
  O  O240  1  0.74631720  0.12452453  0.17316010  1
  O  O241  1  0.75162999  0.12138667  0.41779024  1
  O  O242  1  0.74641646  0.12637884  0.65293386  1
  O  O243  1  0.74514808  0.12181690  0.91131040  1
  O  O244  1  0.74721472  0.37296933  0.16830716  1
  O  O245  1  0.75747747  0.37642745  0.41285363  1
  O  O246  1  0.75047881  0.37734443  0.65706855  1
  O  O247  1  0.74895170  0.37167067  0.91354843  1
  O  O248  1  0.74876420  0.62551511  0.16806073  1
  O  O249  1  0.74283153  0.62755513  0.41537224  1
  O  O250  1  0.73726052  0.62870568  0.65963827  1
  O  O251  1  0.74715224  0.62903518  0.90770391  1
  O  O252  1  0.75411237  0.87525083  0.16639052  1
  O  O253  1  0.75211841  0.87166199  0.41735397  1
  O  O254  1  0.73852338  0.87434372  0.65541540  1
  O  O255  1  0.74214285  0.88006638  0.90927303  1
  O  O256  1  0.11969887  0.12083548  0.03606035  1
  O  O257  1  0.12605762  0.12263164  0.30329326  1
  O  O258  1  0.13308919  0.13260050  0.53773666  1
  O  O259  1  0.13359007  0.12957375  0.77766952  1
  O  O260  1  0.12640066  0.36892104  0.03230703  1
  O  O261  1  0.12189323  0.37464008  0.29925842  1
  O  O262  1  0.13081232  0.38253740  0.53589561  1
  O  O263  1  0.13454203  0.37426073  0.78588747  1
  O  O264  1  0.12925752  0.62951370  0.03406261  1
  O  O265  1  0.12344692  0.62549038  0.30054275  1
  O  O266  1  0.13434777  0.61920329  0.53529853  1
  O  O267  1  0.13520652  0.62616494  0.79620330  1
  O  O268  1  0.12195293  0.87759562  0.04664853  1
  O  O269  1  0.11996837  0.87480907  0.30449470  1
  O  O270  1  0.12507777  0.86957953  0.53462438  1
  O  O271  1  0.13498601  0.87757807  0.77970970  1
  O  O272  1  0.37917307  0.12132346  0.05159414  1
  O  O273  1  0.36893526  0.12009841  0.29867304  1
  O  O274  1  0.37742408  0.11907822  0.54332738  1
  O  O275  1  0.37966934  0.12133674  0.79543560  1
  O  O276  1  0.38273422  0.36909003  0.03725803  1
  O  O277  1  0.38187074  0.37590241  0.28411592  1
  O  O278  1  0.37768920  0.37652338  0.54412450  1
  O  O279  1  0.38368198  0.37636344  0.78963638  1
  O  O280  1  0.37948671  0.62944220  0.04854009  1
  O  O281  1  0.37450654  0.62748833  0.29628903  1
  O  O282  1  0.37857063  0.62441613  0.54871884  1
  O  O283  1  0.37384204  0.62556383  0.79736380  1
  O  O284  1  0.37789535  0.87670482  0.05104803  1
  O  O285  1  0.36844721  0.87281026  0.28754430  1
  O  O286  1  0.37983177  0.86827657  0.54759801  1
  O  O287  1  0.38264029  0.87975506  0.78721725  1
  O  O288  1  0.62482318  0.12627232  0.05568748  1
  O  O289  1  0.62824831  0.11632227  0.29351116  1
  O  O290  1  0.61613298  0.11948922  0.52648299  1
  O  O291  1  0.62343225  0.12206326  0.79607666  1
  O  O292  1  0.62646604  0.37061683  0.05391916  1
  O  O293  1  0.61812521  0.37583849  0.29118707  1
  O  O294  1  0.61504966  0.37810616  0.53070063  1
  O  O295  1  0.61588568  0.37080856  0.78070439  1
  O  O296  1  0.62264500  0.63382866  0.03712721  1
  O  O297  1  0.62607840  0.62797130  0.29843776  1
  O  O298  1  0.61576612  0.63097707  0.55312763  1
  O  O299  1  0.62207566  0.63408019  0.77934625  1
  O  O300  1  0.62818178  0.87680111  0.05022609  1
  O  O301  1  0.62833469  0.87158477  0.30201619  1
  O  O302  1  0.61767029  0.86965162  0.54457774  1
  O  O303  1  0.62167585  0.88189447  0.79630822  1
  O  O304  1  0.86599686  0.12477186  0.03893389  1
  O  O305  1  0.87903275  0.11929541  0.29748199  1
  O  O306  1  0.87885734  0.12695476  0.52516285  1
  O  O307  1  0.86757299  0.12322109  0.79161042  1
  O  O308  1  0.87012845  0.36838740  0.04772373  1
  O  O309  1  0.87815603  0.37678856  0.30071953  1
  O  O310  1  0.87312986  0.37947805  0.54534643  1
  O  O311  1  0.86804755  0.37916343  0.78017000  1
  O  O312  1  0.87271085  0.63202382  0.03476119  1
  O  O313  1  0.87425948  0.62577964  0.29338778  1
  O  O314  1  0.86426473  0.62156205  0.53459559  1
  O  O315  1  0.86586621  0.62133744  0.77612455  1
  O  O316  1  0.87205554  0.87901064  0.04831303  1
  O  O317  1  0.87555783  0.87324797  0.30740512  1
  O  O318  1  0.87827374  0.87021313  0.53591648  1
  O  O319  1  0.86991581  0.88084477  0.77630074  1
