# generated using pymatgen
data_VFe(PbO3)2
_symmetry_space_group_name_H-M   'P 1'
_cell_length_a   15.38862071
_cell_length_b   15.37863071
_cell_length_c   18.50977736
_cell_angle_alpha   89.98289160
_cell_angle_beta   89.99957790
_cell_angle_gamma   90.00100257
_symmetry_Int_Tables_number   1
_chemical_formula_structural   VFe(PbO3)2
_chemical_formula_sum   'V32 Fe32 Pb64 O192'
_cell_volume   4380.44810301
_cell_formula_units_Z   32
loop_
 _symmetry_equiv_pos_site_id
 _symmetry_equiv_pos_as_xyz
  1  'x, y, z'
loop_
 _atom_site_type_symbol
 _atom_site_label
 _atom_site_symmetry_multiplicity
 _atom_site_fract_x
 _atom_site_fract_y
 _atom_site_fract_z
 _atom_site_occupancy
  V  V0  1  0.62604825  0.37298275  0.63506953  1
  V  V1  1  0.12082783  0.12564397  0.88503110  1
  V  V2  1  0.36815199  0.62627263  0.40343828  1
  V  V3  1  0.37641223  0.62349966  0.88435964  1
  V  V4  1  0.62287127  0.62374450  0.39029256  1
  V  V5  1  0.12783617  0.12258442  0.14444797  1
  V  V6  1  0.87827649  0.62430911  0.88926463  1
  V  V7  1  0.62755075  0.37546277  0.14064476  1
  V  V8  1  0.62337076  0.37471356  0.88825692  1
  V  V9  1  0.12749103  0.87420128  0.39146829  1
  V  V10  1  0.12852884  0.62513033  0.14175795  1
  V  V11  1  0.62291312  0.12537346  0.39051191  1
  V  V12  1  0.87489432  0.37488417  0.39496725  1
  V  V13  1  0.37422654  0.12449837  0.38960864  1
  V  V14  1  0.12756236  0.62404849  0.88523209  1
  V  V15  1  0.87596115  0.37465182  0.88900377  1
  V  V16  1  0.12392443  0.87150151  0.14329880  1
  V  V17  1  0.62769214  0.87501617  0.38869736  1
  V  V18  1  0.37485433  0.12437961  0.63340809  1
  V  V19  1  0.37305254  0.62333587  0.14226985  1
  V  V20  1  0.87159922  0.87462395  0.63710413  1
  V  V21  1  0.37399567  0.37489767  0.14192529  1
  V  V22  1  0.11840456  0.62098302  0.40483644  1
  V  V23  1  0.62620506  0.37410873  0.39095195  1
  V  V24  1  0.37374200  0.12617292  0.88888266  1
  V  V25  1  0.62526004  0.87533086  0.88868685  1
  V  V26  1  0.62520592  0.87695556  0.63712580  1
  V  V27  1  0.87551015  0.87437017  0.38979475  1
  V  V28  1  0.37846463  0.37525298  0.39946900  1
  V  V29  1  0.62204210  0.12474352  0.13801616  1
  V  V30  1  0.12597679  0.37458251  0.14437301  1
  V  V31  1  0.62652475  0.87337411  0.13859023  1
  Fe  Fe32  1  0.87314086  0.62553206  0.62694480  1
  Fe  Fe33  1  0.62123231  0.62460624  0.13614367  1
  Fe  Fe34  1  0.87879738  0.37382880  0.13856600  1
  Fe  Fe35  1  0.87253441  0.12451164  0.62884779  1
  Fe  Fe36  1  0.86980260  0.37510476  0.62787573  1
  Fe  Fe37  1  0.62381338  0.12246257  0.63933182  1
  Fe  Fe38  1  0.37390450  0.12770332  0.13785375  1
  Fe  Fe39  1  0.37880601  0.87445501  0.39829044  1
  Fe  Fe40  1  0.12565623  0.87588563  0.87997589  1
  Fe  Fe41  1  0.62787767  0.62437187  0.88474201  1
  Fe  Fe42  1  0.12377975  0.87730476  0.63448296  1
  Fe  Fe43  1  0.87638939  0.12724447  0.13779672  1
  Fe  Fe44  1  0.37838324  0.87759390  0.62498016  1
  Fe  Fe45  1  0.62416516  0.12546835  0.88335740  1
  Fe  Fe46  1  0.37356939  0.37672454  0.87960738  1
  Fe  Fe47  1  0.87167456  0.12327768  0.39540869  1
  Fe  Fe48  1  0.87708756  0.87619246  0.13651865  1
  Fe  Fe49  1  0.62538593  0.62679606  0.63935322  1
  Fe  Fe50  1  0.87699468  0.62372823  0.13762044  1
  Fe  Fe51  1  0.12619665  0.37480776  0.39954603  1
  Fe  Fe52  1  0.12395558  0.37306116  0.62417720  1
  Fe  Fe53  1  0.37596605  0.87334616  0.88567511  1
  Fe  Fe54  1  0.37986517  0.37279463  0.63235658  1
  Fe  Fe55  1  0.12497958  0.12232232  0.62672403  1
  Fe  Fe56  1  0.87155473  0.62697935  0.39770565  1
  Fe  Fe57  1  0.12402752  0.37363459  0.88168188  1
  Fe  Fe58  1  0.12462802  0.12332413  0.39384577  1
  Fe  Fe59  1  0.37661630  0.62619567  0.62566423  1
  Fe  Fe60  1  0.87656009  0.87457316  0.88353521  1
  Fe  Fe61  1  0.12361262  0.62692027  0.62347969  1
  Fe  Fe62  1  0.37318162  0.87546323  0.13775465  1
  Fe  Fe63  1  0.87354763  0.12562594  0.88400173  1
  Pb  Pb64  1  -0.00785802  -0.00546591  -0.00339626  1
  Pb  Pb65  1  -0.00089634  0.01050507  0.25560756  1
  Pb  Pb66  1  0.00073079  0.00395271  0.50147303  1
  Pb  Pb67  1  -0.00241695  0.00036347  0.74335838  1
  Pb  Pb68  1  -0.00787593  0.24973166  0.00230673  1
  Pb  Pb69  1  0.00491891  0.24504729  0.25928955  1
  Pb  Pb70  1  0.00127681  0.24367709  0.50010071  1
  Pb  Pb71  1  0.00002813  0.24989844  0.73212951  1
  Pb  Pb72  1  -0.00710344  0.49959164  0.00290863  1
  Pb  Pb73  1  0.00222510  0.49842028  0.25436490  1
  Pb  Pb74  1  -0.01134771  0.49285287  0.50799034  1
  Pb  Pb75  1  0.00312897  0.49726094  0.73133777  1
  Pb  Pb76  1  -0.00468851  0.75306094  -0.00083330  1
  Pb  Pb77  1  -0.00739543  0.74267345  0.25473666  1
  Pb  Pb78  1  0.00508878  0.75383370  0.50557573  1
  Pb  Pb79  1  0.00239314  0.75472753  0.74231004  1
  Pb  Pb80  1  0.25507555  -0.00215397  -0.00133359  1
  Pb  Pb81  1  0.25326373  -0.00020918  0.25396160  1
  Pb  Pb82  1  0.24164736  -0.00668981  0.50581327  1
  Pb  Pb83  1  0.24817759  -0.00924567  0.74263762  1
  Pb  Pb84  1  0.25115852  0.24867206  -0.00370908  1
  Pb  Pb85  1  0.23706899  0.25250869  0.26177382  1
  Pb  Pb86  1  0.24257113  0.24893501  0.50284928  1
  Pb  Pb87  1  0.24506809  0.26351313  0.74193820  1
  Pb  Pb88  1  0.24835158  0.49701481  -0.00673432  1
  Pb  Pb89  1  0.24333332  0.49431791  0.26021788  1
  Pb  Pb90  1  0.25163446  0.48931504  0.51141691  1
  Pb  Pb91  1  0.24989439  0.49636268  0.73297420  1
  Pb  Pb92  1  0.25399856  0.75668342  -0.00322655  1
  Pb  Pb93  1  0.25634569  0.75467944  0.25780603  1
  Pb  Pb94  1  0.24247428  0.75301747  0.50899155  1
  Pb  Pb95  1  0.25036307  0.75372720  0.73373841  1
  Pb  Pb96  1  0.49226766  -0.00157853  0.00070669  1
  Pb  Pb97  1  0.49378682  -0.00527878  0.24987672  1
  Pb  Pb98  1  0.50112503  0.00007481  0.50132992  1
  Pb  Pb99  1  0.49398326  -0.00480141  0.74991164  1
  Pb  Pb100  1  0.49440519  0.24547013  -0.00118636  1
  Pb  Pb101  1  0.49916323  0.25083323  0.24955211  1
  Pb  Pb102  1  0.49952347  0.25030828  0.50466575  1
  Pb  Pb103  1  0.50359787  0.24444153  0.74796014  1
  Pb  Pb104  1  0.50710732  0.50334206  -0.00134100  1
  Pb  Pb105  1  0.49775234  0.50077913  0.25247379  1
  Pb  Pb106  1  0.49873883  0.50381559  0.50724894  1
  Pb  Pb107  1  0.49727819  0.50228612  0.74243594  1
  Pb  Pb108  1  0.50553598  0.74619115  -0.00077893  1
  Pb  Pb109  1  0.49308529  0.75691276  0.25382282  1
  Pb  Pb110  1  0.50159381  0.74335960  0.50538969  1
  Pb  Pb111  1  0.49289264  0.74992748  0.74349167  1
  Pb  Pb112  1  0.75607148  0.00265536  -0.00385987  1
  Pb  Pb113  1  0.75603288  0.00554141  0.24811170  1
  Pb  Pb114  1  0.74489863  0.00875016  0.50514387  1
  Pb  Pb115  1  0.75838189  0.00375741  0.75218147  1
  Pb  Pb116  1  0.75666019  0.24755567  0.00034835  1
  Pb  Pb117  1  0.76186863  0.24475628  0.25377972  1
  Pb  Pb118  1  0.75127147  0.24428295  0.50616572  1
  Pb  Pb119  1  0.75470104  0.23829798  0.74628321  1
  Pb  Pb120  1  0.75573048  0.50340053  0.00288937  1
  Pb  Pb121  1  0.75978605  0.50789478  0.25127209  1
  Pb  Pb122  1  0.75064681  0.50292227  0.50446501  1
  Pb  Pb123  1  0.74830416  0.50582536  0.74419070  1
  Pb  Pb124  1  0.75549085  0.74775970  0.00018085  1
  Pb  Pb125  1  0.75644515  0.74255806  0.24901710  1
  Pb  Pb126  1  0.74401073  0.74276647  0.50429095  1
  Pb  Pb127  1  0.74998231  0.74847645  0.74931499  1
  O  O128  1  0.12660580  0.00135116  0.16620822  1
  O  O129  1  0.12475723  -0.00809668  0.41319260  1
  O  O130  1  0.12475314  0.00123122  0.66145622  1
  O  O131  1  0.12874550  0.00914590  0.91079906  1
  O  O132  1  0.12752163  0.24809491  0.16984603  1
  O  O133  1  0.12639325  0.24872768  0.41651667  1
  O  O134  1  0.12650765  0.24707498  0.65177395  1
  O  O135  1  0.12820020  0.24310394  0.91378976  1
  O  O136  1  0.12823089  0.50094134  0.17156734  1
  O  O137  1  0.12738078  0.50640947  0.41784867  1
  O  O138  1  0.12512172  0.50082172  0.64756592  1
  O  O139  1  0.12349159  0.50653553  0.91370572  1
  O  O140  1  0.12733015  0.75309746  0.16750712  1
  O  O141  1  0.12296856  0.75611140  0.41674202  1
  O  O142  1  0.12298499  0.75146851  0.65778719  1
  O  O143  1  0.12476459  0.73931702  0.91166798  1
  O  O144  1  0.37340468  0.00095622  0.16860356  1
  O  O145  1  0.38162292  0.00829645  0.41053843  1
  O  O146  1  0.38032655  0.00463073  0.66038455  1
  O  O147  1  0.37565494  0.00533465  0.91351014  1
  O  O148  1  0.37459628  0.25536923  0.16802827  1
  O  O149  1  0.38185246  0.24579446  0.41704854  1
  O  O150  1  0.37853740  0.24191568  0.65682506  1
  O  O151  1  0.37541524  0.24724828  0.91221586  1
  O  O152  1  0.37257745  0.49891704  0.17331039  1
  O  O153  1  0.38041077  0.50289160  0.42045023  1
  O  O154  1  0.37861973  0.50009969  0.65511869  1
  O  O155  1  0.37391643  0.50639768  0.91141068  1
  O  O156  1  0.37288032  0.74739454  0.16909314  1
  O  O157  1  0.38114357  0.74395491  0.41654267  1
  O  O158  1  0.37976575  0.75296785  0.65327707  1
  O  O159  1  0.37395255  0.74041330  0.91223058  1
  O  O160  1  0.62289459  -0.00143358  0.16311582  1
  O  O161  1  0.62564179  -0.00346357  0.41103261  1
  O  O162  1  0.62671081  -0.00853531  0.66459461  1
  O  O163  1  0.62350557  -0.00606241  0.91199325  1
  O  O164  1  0.61977922  0.25469025  0.16464495  1
  O  O165  1  0.62321795  0.25447751  0.41322700  1
  O  O166  1  0.62372973  0.25463916  0.66028133  1
  O  O167  1  0.62588669  0.25922731  0.91510145  1
  O  O168  1  0.62069579  0.49272535  0.16629849  1
  O  O169  1  0.62430681  0.50096077  0.41183507  1
  O  O170  1  0.62460182  0.49341017  0.65910647  1
  O  O171  1  0.62754506  0.49398687  0.91592576  1
  O  O172  1  0.62199820  0.75646439  0.16197817  1
  O  O173  1  0.62515687  0.74949649  0.41153731  1
  O  O174  1  0.62655993  0.76040503  0.66438770  1
  O  O175  1  0.62505636  0.75273429  0.91542418  1
  O  O176  1  0.87605650  0.00127901  0.16645774  1
  O  O177  1  0.86909321  -0.01072942  0.41522075  1
  O  O178  1  0.86992850  -0.00642055  0.66039229  1
  O  O179  1  0.87478754  0.00014894  0.91377227  1
  O  O180  1  0.87651818  0.25072873  0.17184346  1
  O  O181  1  0.86855136  0.25688575  0.41504317  1
  O  O182  1  0.87047609  0.25071347  0.65475599  1
  O  O183  1  0.87542401  0.25628878  0.91228979  1
  O  O184  1  0.87762044  0.49809254  0.17038329  1
  O  O185  1  0.86862728  0.49533794  0.41435694  1
  O  O186  1  0.87098098  0.50006338  0.65748761  1
  O  O187  1  0.87696186  0.49954559  0.91484648  1
  O  O188  1  0.87752865  0.75115134  0.16787901  1
  O  O189  1  0.87181209  0.75962915  0.41720849  1
  O  O190  1  0.87145335  0.75609041  0.65873528  1
  O  O191  1  0.87610334  0.74301586  0.91185051  1
  O  O192  1  0.00810467  0.12642837  0.16875524  1
  O  O193  1  -0.00307815  0.12204559  0.41498090  1
  O  O194  1  -0.00219003  0.12151518  0.65157603  1
  O  O195  1  0.00554067  0.12730245  0.90727302  1
  O  O196  1  0.00734862  0.37493786  0.17091820  1
  O  O197  1  -0.00782683  0.37774387  0.41143099  1
  O  O198  1  -0.00195637  0.37436296  0.65129444  1
  O  O199  1  -0.00484942  0.37607141  0.91181329  1
  O  O200  1  0.00786005  0.62482373  0.17014453  1
  O  O201  1  0.00173700  0.62763781  0.41487138  1
  O  O202  1  -0.00220145  0.62747197  0.65282123  1
  O  O203  1  -0.00153043  0.62239032  0.91189367  1
  O  O204  1  0.00943584  0.87662440  0.16862273  1
  O  O205  1  -0.00355425  0.87534759  0.41141937  1
  O  O206  1  -0.00883028  0.87618456  0.65669603  1
  O  O207  1  0.00375139  0.87318260  0.91457464  1
  O  O208  1  0.24489762  0.12575369  0.16822393  1
  O  O209  1  0.25977437  0.12557213  0.41085117  1
  O  O210  1  0.25898992  0.12101830  0.65430148  1
  O  O211  1  0.25352356  0.12658883  0.91248557  1
  O  O212  1  0.24969853  0.37587691  0.17245487  1
  O  O213  1  0.25848901  0.37700942  0.41905455  1
  O  O214  1  0.25172741  0.37300186  0.65149349  1
  O  O215  1  0.24922617  0.37598287  0.91517733  1
  O  O216  1  0.24952398  0.62555416  0.17443100  1
  O  O217  1  0.25272063  0.62752699  0.41936928  1
  O  O218  1  0.25064673  0.62768710  0.65001692  1
  O  O219  1  0.24948888  0.62260828  0.90894542  1
  O  O220  1  0.24290408  0.87595070  0.17108853  1
  O  O221  1  0.24556348  0.87343259  0.41164665  1
  O  O222  1  0.25346361  0.87852771  0.65307634  1
  O  O223  1  0.24915949  0.87330296  0.91467688  1
  O  O224  1  0.50308584  0.12666322  0.16790758  1
  O  O225  1  0.50135662  0.12616398  0.41667264  1
  O  O226  1  0.49529546  0.12372291  0.66423137  1
  O  O227  1  0.49552323  0.12694669  0.91389738  1
  O  O228  1  0.49874412  0.37631207  0.16924613  1
  O  O229  1  0.50738792  0.37686723  0.41850084  1
  O  O230  1  0.50777528  0.37315173  0.66202180  1
  O  O231  1  0.50464906  0.37712554  0.90915113  1
  O  O232  1  0.49439362  0.62323067  0.16943280  1
  O  O233  1  0.50788936  0.62501050  0.41536202  1
  O  O234  1  0.50056978  0.62645167  0.66304654  1
  O  O235  1  0.49472957  0.62300973  0.90887852  1
  O  O236  1  0.50426842  0.87581487  0.16571445  1
  O  O237  1  0.51182082  0.87402088  0.41516492  1
  O  O238  1  0.50668776  0.87730951  0.65786832  1
  O  O239  1  0.50487047  0.87245822  0.91495669  1
  O  O240  1  0.74297412  0.12739345  0.16492861  1
  O  O241  1  0.74170377  0.12598122  0.41564121  1
  O  O242  1  0.74882915  0.12239487  0.66250973  1
  O  O243  1  0.74744161  0.12744971  0.91578789  1
  O  O244  1  0.74245154  0.37391448  0.16178413  1
  O  O245  1  0.74231532  0.37646604  0.41504026  1
  O  O246  1  0.74158673  0.37458816  0.66078014  1
  O  O247  1  0.75397181  0.37744021  0.91391044  1
  O  O248  1  0.74732760  0.62420577  0.16450278  1
  O  O249  1  0.74025545  0.62607674  0.41469240  1
  O  O250  1  0.75073995  0.62841971  0.66440659  1
  O  O251  1  0.75805845  0.62193073  0.91330175  1
  O  O252  1  0.74342491  0.87651947  0.16120722  1
  O  O253  1  0.74463605  0.87297094  0.41395956  1
  O  O254  1  0.74914892  0.87476336  0.66355373  1
  O  O255  1  0.74418034  0.87240213  0.91397083  1
  O  O256  1  0.12637242  0.12515888  0.05393991  1
  O  O257  1  0.12359154  0.12699278  0.29191387  1
  O  O258  1  0.12925831  0.11668153  0.52424619  1
  O  O259  1  0.12593586  0.12688015  0.79435788  1
  O  O260  1  0.12626790  0.37508063  0.05340414  1
  O  O261  1  0.13283285  0.37633797  0.29698287  1
  O  O262  1  0.12693576  0.37525705  0.52148846  1
  O  O263  1  0.12796964  0.37201478  0.78269009  1
  O  O264  1  0.12877357  0.62484641  0.05102509  1
  O  O265  1  0.12870494  0.62835959  0.31339170  1
  O  O266  1  0.12462511  0.63802060  0.52036523  1
  O  O267  1  0.12591338  0.62332944  0.79492843  1
  O  O268  1  0.12615467  0.87235406  0.05232065  1
  O  O269  1  0.12473229  0.87284567  0.30026291  1
  O  O270  1  0.12477786  0.87589391  0.53213156  1
  O  O271  1  0.12367071  0.87524373  0.77998598  1
  O  O272  1  0.37708506  0.12807533  0.03817408  1
  O  O273  1  0.37781859  0.12836629  0.29814906  1
  O  O274  1  0.38035395  0.12180668  0.54192292  1
  O  O275  1  0.37414532  0.12438123  0.79849611  1
  O  O276  1  0.37438968  0.37834189  0.05092470  1
  O  O277  1  0.38052546  0.37550479  0.30790966  1
  O  O278  1  0.38526548  0.37412022  0.53096018  1
  O  O279  1  0.36912228  0.37548673  0.78073494  1
  O  O280  1  0.37199059  0.62208276  0.05135989  1
  O  O281  1  0.37422256  0.62250620  0.31153580  1
  O  O282  1  0.38754494  0.62514488  0.52361469  1
  O  O283  1  0.37503546  0.62463532  0.79366889  1
  O  O284  1  0.37011762  0.87629373  0.03765902  1
  O  O285  1  0.37933777  0.87094909  0.29602304  1
  O  O286  1  0.38071992  0.88289382  0.52296817  1
  O  O287  1  0.38065705  0.87868386  0.78633259  1
  O  O288  1  0.62031847  0.12670483  0.04685378  1
  O  O289  1  0.62171652  0.12614300  0.29929480  1
  O  O290  1  0.62595783  0.12035906  0.53797233  1
  O  O291  1  0.62231852  0.13218510  0.78376186  1
  O  O292  1  0.62217718  0.37645616  0.04959697  1
  O  O293  1  0.62506862  0.37472906  0.30027100  1
  O  O294  1  0.62517786  0.37242248  0.54345760  1
  O  O295  1  0.62711571  0.37485845  0.79786366  1
  O  O296  1  0.61647098  0.62176699  0.03608397  1
  O  O297  1  0.62212908  0.62453343  0.29889568  1
  O  O298  1  0.62593705  0.63226273  0.53803613  1
  O  O299  1  0.63051206  0.62337738  0.78545054  1
  O  O300  1  0.62349079  0.87415176  0.04762642  1
  O  O301  1  0.62731416  0.87420252  0.29767512  1
  O  O302  1  0.62886070  0.87678898  0.54558059  1
  O  O303  1  0.62473699  0.87320973  0.79793548  1
  O  O304  1  0.87837854  0.13468450  0.03742600  1
  O  O305  1  0.86872532  0.12342642  0.29349013  1
  O  O306  1  0.86406486  0.12245131  0.52591304  1
  O  O307  1  0.86855453  0.12376125  0.78422713  1
  O  O308  1  0.88263137  0.37409215  0.03839398  1
  O  O309  1  0.86908220  0.37414794  0.30310815  1
  O  O310  1  0.86834634  0.38135442  0.52690724  1
  O  O311  1  0.87418394  0.37680780  0.79877874  1
  O  O312  1  0.87883017  0.61909765  0.03724756  1
  O  O313  1  0.86972293  0.63040051  0.29598662  1
  O  O314  1  0.86536909  0.62333371  0.52425523  1
  O  O315  1  0.87831972  0.62243927  0.79879201  1
  O  O316  1  0.88131171  0.87225429  0.03631035  1
  O  O317  1  0.87354153  0.87380433  0.29822652  1
  O  O318  1  0.86763769  0.87622924  0.54609853  1
  O  O319  1  0.87603425  0.87555606  0.78429402  1
