# generated using pymatgen
data_VFe(PbO3)2
_symmetry_space_group_name_H-M   'P 1'
_cell_length_a   15.39603429
_cell_length_b   15.38554242
_cell_length_c   18.45856257
_cell_angle_alpha   89.98048182
_cell_angle_beta   89.98019886
_cell_angle_gamma   89.99716633
_symmetry_Int_Tables_number   1
_chemical_formula_structural   VFe(PbO3)2
_chemical_formula_sum   'V32 Fe32 Pb64 O192'
_cell_volume   4372.39619693
_cell_formula_units_Z   32
loop_
 _symmetry_equiv_pos_site_id
 _symmetry_equiv_pos_as_xyz
  1  'x, y, z'
loop_
 _atom_site_type_symbol
 _atom_site_label
 _atom_site_symmetry_multiplicity
 _atom_site_fract_x
 _atom_site_fract_y
 _atom_site_fract_z
 _atom_site_occupancy
  V  V0  1  0.37875945  0.87612114  0.38409759  1
  V  V1  1  0.62797497  0.87563760  0.14045825  1
  V  V2  1  0.37793285  0.87531543  0.89386229  1
  V  V3  1  0.88102107  0.87778236  0.89042621  1
  V  V4  1  0.62735882  0.12540244  0.13975509  1
  V  V5  1  0.62803984  0.37235400  0.13856558  1
  V  V6  1  0.62787375  0.62251443  0.13630731  1
  V  V7  1  0.62219882  0.12388204  0.39280852  1
  V  V8  1  0.87025866  0.87527908  0.63402969  1
  V  V9  1  0.12573056  0.62337205  0.63782254  1
  V  V10  1  0.88114391  0.12958707  0.88515090  1
  V  V11  1  0.62397631  0.62631479  0.39550898  1
  V  V12  1  0.12749243  0.87484507  0.89843531  1
  V  V13  1  0.12346959  0.62513510  0.89490749  1
  V  V14  1  0.37578365  0.62364474  0.38850741  1
  V  V15  1  0.87288087  0.37470164  0.14223199  1
  V  V16  1  0.61270885  0.87485388  0.63832589  1
  V  V17  1  0.87992317  0.62815660  0.88614121  1
  V  V18  1  0.37431005  0.37532893  0.13559598  1
  V  V19  1  0.87303315  0.12717222  0.14592830  1
  V  V20  1  0.12551422  0.62600972  0.38717121  1
  V  V21  1  0.36492746  0.87573373  0.63840385  1
  V  V22  1  0.12199491  0.87402800  0.63497791  1
  V  V23  1  0.37106641  0.37499170  0.63809109  1
  V  V24  1  0.12334095  0.37011919  0.89006874  1
  V  V25  1  0.87125560  0.37408381  0.39505828  1
  V  V26  1  0.87176510  0.87505381  0.14333708  1
  V  V27  1  0.37843895  0.37305311  0.38966501  1
  V  V28  1  0.87053686  0.87429972  0.38986188  1
  V  V29  1  0.87355776  0.62352357  0.39570370  1
  V  V30  1  0.87820868  0.37568166  0.63512150  1
  V  V31  1  0.87123080  0.62284936  0.14202371  1
  Fe  Fe32  1  0.12360940  0.37487148  0.13700079  1
  Fe  Fe33  1  0.87600078  0.12238944  0.62513523  1
  Fe  Fe34  1  0.88132753  0.37728599  0.87805259  1
  Fe  Fe35  1  0.87864579  0.62872223  0.63387635  1
  Fe  Fe36  1  0.12684471  0.87069144  0.37964229  1
  Fe  Fe37  1  0.37862487  0.62218199  0.13189707  1
  Fe  Fe38  1  0.12669483  0.12429742  0.62884508  1
  Fe  Fe39  1  0.62220141  0.37649606  0.40089789  1
  Fe  Fe40  1  0.37819540  0.12602331  0.37748522  1
  Fe  Fe41  1  0.37480677  0.12261641  0.64064095  1
  Fe  Fe42  1  0.37262089  0.62847327  0.64420251  1
  Fe  Fe43  1  0.62503789  0.12312774  0.64075367  1
  Fe  Fe44  1  0.12343102  0.62161889  0.13546908  1
  Fe  Fe45  1  0.62738864  0.37412275  0.87499189  1
  Fe  Fe46  1  0.37202030  0.62537725  0.88524374  1
  Fe  Fe47  1  0.62764034  0.87542969  0.88328185  1
  Fe  Fe48  1  0.62641886  0.12096700  0.87961493  1
  Fe  Fe49  1  0.87110530  0.12593823  0.39573957  1
  Fe  Fe50  1  0.37246924  0.37458489  0.88204863  1
  Fe  Fe51  1  0.12616995  0.37886908  0.39716285  1
  Fe  Fe52  1  0.12162831  0.12781205  0.14040553  1
  Fe  Fe53  1  0.62596459  0.62784157  0.64414028  1
  Fe  Fe54  1  0.62206656  0.87302590  0.38782356  1
  Fe  Fe55  1  0.37672587  0.12688261  0.14413219  1
  Fe  Fe56  1  0.12639332  0.12318507  0.38523886  1
  Fe  Fe57  1  0.12239168  0.87381552  0.14163333  1
  Fe  Fe58  1  0.37122755  0.12440402  0.88256682  1
  Fe  Fe59  1  0.62629642  0.62855250  0.87736875  1
  Fe  Fe60  1  0.12278421  0.12102701  0.89147712  1
  Fe  Fe61  1  0.37781298  0.87382983  0.13119047  1
  Fe  Fe62  1  0.12755482  0.37534560  0.62433176  1
  Fe  Fe63  1  0.62363167  0.37583713  0.63620960  1
  Pb  Pb64  1  0.01060553  -0.00084922  0.01258906  1
  Pb  Pb65  1  0.00779789  0.00565957  0.25653302  1
  Pb  Pb66  1  0.00301654  0.00522270  0.49286503  1
  Pb  Pb67  1  0.00557539  0.01004493  0.74592224  1
  Pb  Pb68  1  0.01201660  0.25162388  0.00756512  1
  Pb  Pb69  1  0.00937681  0.24892458  0.26090591  1
  Pb  Pb70  1  0.00635863  0.24459556  0.49636273  1
  Pb  Pb71  1  0.00390950  0.24960731  0.73817911  1
  Pb  Pb72  1  0.00724904  0.49872476  0.00521576  1
  Pb  Pb73  1  0.00618191  0.49321744  0.25603220  1
  Pb  Pb74  1  -0.00264055  0.50070860  0.50312236  1
  Pb  Pb75  1  -0.00231041  0.49244976  0.74755919  1
  Pb  Pb76  1  0.00773615  0.75000385  0.01033702  1
  Pb  Pb77  1  0.00340358  0.75170304  0.25112804  1
  Pb  Pb78  1  -0.00516323  0.74813157  0.49879420  1
  Pb  Pb79  1  0.00187048  0.75451915  0.74970722  1
  Pb  Pb80  1  0.25836268  0.00509908  0.01152814  1
  Pb  Pb81  1  0.24563380  -0.00080618  0.24170626  1
  Pb  Pb82  1  0.24760678  0.00839174  0.49165944  1
  Pb  Pb83  1  0.24547454  0.01345607  0.75459098  1
  Pb  Pb84  1  0.25635973  0.23594660  0.00212777  1
  Pb  Pb85  1  0.24126768  0.24121680  0.25222956  1
  Pb  Pb86  1  0.24455704  0.24320295  0.49606543  1
  Pb  Pb87  1  0.24946816  0.24732852  0.74490072  1
  Pb  Pb88  1  0.24992463  0.50363589  0.00014034  1
  Pb  Pb89  1  0.24604643  0.49687279  0.24636130  1
  Pb  Pb90  1  0.25468162  0.50069325  0.50194910  1
  Pb  Pb91  1  0.26153591  0.49646886  0.75425713  1
  Pb  Pb92  1  0.25625041  0.75013389  0.00973003  1
  Pb  Pb93  1  0.25102443  0.74982158  0.23859841  1
  Pb  Pb94  1  0.25769434  0.74669650  0.49798990  1
  Pb  Pb95  1  0.25308965  0.74855468  0.75609903  1
  Pb  Pb96  1  0.49456357  0.00536382  -0.00178049  1
  Pb  Pb97  1  0.49541821  0.00029867  0.24816846  1
  Pb  Pb98  1  0.49506337  0.00894479  0.50482705  1
  Pb  Pb99  1  0.49919818  0.01105160  0.75471746  1
  Pb  Pb100  1  0.49806570  0.24733868  -0.01335515  1
  Pb  Pb101  1  0.50048645  0.25115973  0.25222995  1
  Pb  Pb102  1  0.49788276  0.23732237  0.51032452  1
  Pb  Pb103  1  0.50180557  0.25423239  0.74724171  1
  Pb  Pb104  1  0.49889713  0.50159056  -0.01546798  1
  Pb  Pb105  1  0.50757271  0.49166716  0.25068452  1
  Pb  Pb106  1  0.50324634  0.50346160  0.51067554  1
  Pb  Pb107  1  0.50139499  0.49708162  0.74755873  1
  Pb  Pb108  1  0.49488501  0.74461644  -0.00371807  1
  Pb  Pb109  1  0.50262085  0.75133841  0.24520802  1
  Pb  Pb110  1  0.49671118  0.73965710  0.50696884  1
  Pb  Pb111  1  0.50124415  0.74188170  0.75442944  1
  Pb  Pb112  1  0.75045124  -0.00003098  -0.00348627  1
  Pb  Pb113  1  0.75350512  0.00598423  0.25863090  1
  Pb  Pb114  1  0.74642689  0.00605124  0.50313505  1
  Pb  Pb115  1  0.74470449  0.00081818  0.74868732  1
  Pb  Pb116  1  0.74959406  0.25387211  -0.01167302  1
  Pb  Pb117  1  0.75287218  0.24712497  0.26015873  1
  Pb  Pb118  1  0.73683286  0.25087641  0.50862967  1
  Pb  Pb119  1  0.74697598  0.25028904  0.74151680  1
  Pb  Pb120  1  0.74901119  0.49846838  -0.01346514  1
  Pb  Pb121  1  0.74379070  0.49176537  0.25666994  1
  Pb  Pb122  1  0.74006990  0.50334829  0.51206813  1
  Pb  Pb123  1  0.74613910  0.50099681  0.74358362  1
  Pb  Pb124  1  0.74880977  0.74902967  -0.00479097  1
  Pb  Pb125  1  0.74345875  0.75366316  0.25492575  1
  Pb  Pb126  1  0.74617307  0.74317720  0.50690927  1
  Pb  Pb127  1  0.74502718  0.75198974  0.75103803  1
  O  O128  1  0.11798175  0.00116800  0.16394352  1
  O  O129  1  0.12651606  -0.00645175  0.40766669  1
  O  O130  1  0.12698442  -0.01014598  0.65906122  1
  O  O131  1  0.11867929  -0.00902692  0.92024507  1
  O  O132  1  0.11969331  0.25404661  0.16978356  1
  O  O133  1  0.12670131  0.25133712  0.41170472  1
  O  O134  1  0.12614854  0.25128462  0.65352297  1
  O  O135  1  0.11867262  0.25361324  0.90901726  1
  O  O136  1  0.12008108  0.49771374  0.16943304  1
  O  O137  1  0.12519065  0.51160000  0.41652640  1
  O  O138  1  0.12485861  0.50789805  0.65313925  1
  O  O139  1  0.12100781  0.50492910  0.91382986  1
  O  O140  1  0.11827817  0.74548774  0.16430421  1
  O  O141  1  0.12465176  0.74378162  0.41108482  1
  O  O142  1  0.12656509  0.75641417  0.66616892  1
  O  O143  1  0.11989596  0.75030782  0.91985975  1
  O  O144  1  0.38069174  -0.00144333  0.16389905  1
  O  O145  1  0.37959610  -0.00715157  0.40148109  1
  O  O146  1  0.37583893  -0.01192021  0.66459667  1
  O  O147  1  0.36927438  -0.00673580  0.91658389  1
  O  O148  1  0.38258682  0.26088903  0.16428011  1
  O  O149  1  0.37833103  0.25689983  0.40566608  1
  O  O150  1  0.37194208  0.25605886  0.65973352  1
  O  O151  1  0.37062114  0.25001290  0.91194271  1
  O  O152  1  0.38197666  0.49146951  0.16213663  1
  O  O153  1  0.37576336  0.50532009  0.41865218  1
  O  O154  1  0.37110012  0.49749667  0.66219550  1
  O  O155  1  0.36898040  0.50013659  0.91177295  1
  O  O156  1  0.38097031  0.74784746  0.16118729  1
  O  O157  1  0.37599405  0.74594493  0.41375416  1
  O  O158  1  0.37243793  0.76133089  0.67056598  1
  O  O159  1  0.36880221  0.75600225  0.91472674  1
  O  O160  1  0.62955067  0.00533070  0.16314104  1
  O  O161  1  0.62167751  0.00348122  0.41313786  1
  O  O162  1  0.62808545  -0.01039784  0.66205630  1
  O  O163  1  0.63034488  -0.00170970  0.91717876  1
  O  O164  1  0.62968330  0.24702467  0.16630842  1
  O  O165  1  0.62186828  0.24501628  0.41809444  1
  O  O166  1  0.62606461  0.25096967  0.65896123  1
  O  O167  1  0.63133058  0.24615062  0.90735940  1
  O  O168  1  0.63041334  0.49706917  0.16546469  1
  O  O169  1  0.62375631  0.50867324  0.42284529  1
  O  O170  1  0.62597043  0.50015050  0.66136961  1
  O  O171  1  0.63025267  0.50269934  0.90512842  1
  O  O172  1  0.63041568  0.74876488  0.16299685  1
  O  O173  1  0.62338363  0.74406015  0.41820764  1
  O  O174  1  0.62814022  0.76074205  0.66502928  1
  O  O175  1  0.62891102  0.75161195  0.91483469  1
  O  O176  1  0.86824783  -0.00269068  0.16773283  1
  O  O177  1  0.86934268  -0.00940398  0.41121839  1
  O  O178  1  0.88026580  -0.01000920  0.65791988  1
  O  O179  1  0.87966611  -0.00697844  0.91296619  1
  O  O180  1  0.86759633  0.25473421  0.16970500  1
  O  O181  1  0.87159346  0.25834767  0.41500208  1
  O  O182  1  0.88038080  0.25502126  0.65358750  1
  O  O183  1  0.87867271  0.24473922  0.90230302  1
  O  O184  1  0.86753851  0.49401667  0.16569177  1
  O  O185  1  0.87264179  0.50197333  0.42119209  1
  O  O186  1  0.88170444  0.49842551  0.65902644  1
  O  O187  1  0.87957739  0.50991470  0.90694673  1
  O  O188  1  0.86851760  0.75273569  0.16508159  1
  O  O189  1  0.87188871  0.74921684  0.41673420  1
  O  O190  1  0.88259937  0.75978596  0.66503563  1
  O  O191  1  0.87995569  0.74868597  0.91541737  1
  O  O192  1  -0.00980395  0.12764108  0.16918161  1
  O  O193  1  -0.00133490  0.12340571  0.40964773  1
  O  O194  1  0.00052173  0.12015461  0.65721535  1
  O  O195  1  -0.00745170  0.11939610  0.91785660  1
  O  O196  1  -0.01247347  0.37492897  0.16608082  1
  O  O197  1  -0.00982888  0.38089807  0.41682678  1
  O  O198  1  0.00099814  0.37801125  0.65767379  1
  O  O199  1  0.00455698  0.37941591  0.91561942  1
  O  O200  1  -0.01229254  0.62198199  0.16727699  1
  O  O201  1  0.00314646  0.62654920  0.41296718  1
  O  O202  1  0.00923191  0.63262629  0.66441884  1
  O  O203  1  -0.00067641  0.62825371  0.91807317  1
  O  O204  1  -0.01376744  0.87476772  0.16692607  1
  O  O205  1  -0.00935109  0.86996860  0.40921625  1
  O  O206  1  0.00585043  0.87376301  0.65798348  1
  O  O207  1  -0.00282614  0.87056732  0.92056871  1
  O  O208  1  0.24956317  0.12887199  0.16371672  1
  O  O209  1  0.25561584  0.12403820  0.40639438  1
  O  O210  1  0.24908987  0.12027897  0.66305635  1
  O  O211  1  0.24673527  0.12077961  0.91798337  1
  O  O212  1  0.25733281  0.37685297  0.15636067  1
  O  O213  1  0.26136029  0.38228955  0.41369892  1
  O  O214  1  0.25154667  0.37796456  0.66036619  1
  O  O215  1  0.23764931  0.37837016  0.91352043  1
  O  O216  1  0.25157897  0.61986616  0.16093001  1
  O  O217  1  0.24693005  0.62636695  0.40979774  1
  O  O218  1  0.24029879  0.63193982  0.66751921  1
  O  O219  1  0.24030973  0.62880590  0.91423876  1
  O  O220  1  0.25090817  0.87350214  0.15903554  1
  O  O221  1  0.26030448  0.86858168  0.40557095  1
  O  O222  1  0.24843063  0.87323847  0.66142837  1
  O  O223  1  0.24311413  0.87238117  0.91679398  1
  O  O224  1  0.51204922  0.12761982  0.16245535  1
  O  O225  1  0.50160795  0.12491121  0.41527914  1
  O  O226  1  0.49900931  0.12129725  0.66811224  1
  O  O227  1  0.49901866  0.11996454  0.90780130  1
  O  O228  1  0.50563181  0.37531373  0.16348251  1
  O  O229  1  0.49146322  0.38278817  0.42046375  1
  O  O230  1  0.49165577  0.37680563  0.65921361  1
  O  O231  1  0.50141095  0.37464520  0.90701748  1
  O  O232  1  0.50970621  0.62130500  0.16143418  1
  O  O233  1  0.50198959  0.62539616  0.41707450  1
  O  O234  1  0.49767683  0.63095833  0.66673626  1
  O  O235  1  0.49939820  0.62910591  0.90504303  1
  O  O236  1  0.50885094  0.87459092  0.16098696  1
  O  O237  1  0.49256511  0.86768929  0.41561723  1
  O  O238  1  0.49867632  0.87288811  0.65626679  1
  O  O239  1  0.49517450  0.87521526  0.90912949  1
  O  O240  1  0.74669548  0.12627699  0.17310827  1
  O  O241  1  0.73999411  0.12482338  0.41820894  1
  O  O242  1  0.75448732  0.12135953  0.65795709  1
  O  O243  1  0.76473073  0.11901091  0.91079412  1
  O  O244  1  0.75000033  0.37366818  0.17168556  1
  O  O245  1  0.75460710  0.37940039  0.42238518  1
  O  O246  1  0.75984761  0.37690566  0.65552984  1
  O  O247  1  0.75639339  0.37547401  0.90810055  1
  O  O248  1  0.74934932  0.62305942  0.17219387  1
  O  O249  1  0.74510234  0.62597065  0.41812464  1
  O  O250  1  0.75592242  0.62995928  0.66222792  1
  O  O251  1  0.76078264  0.62947497  0.90642931  1
  O  O252  1  0.75093807  0.87548003  0.17187805  1
  O  O253  1  0.75186429  0.87008777  0.41714639  1
  O  O254  1  0.75594480  0.87344667  0.65324966  1
  O  O255  1  0.76225779  0.87206229  0.91415883  1
  O  O256  1  0.11551162  0.13136186  0.03775153  1
  O  O257  1  0.12172420  0.12963095  0.28254865  1
  O  O258  1  0.13163920  0.11940343  0.52712070  1
  O  O259  1  0.12320994  0.11340775  0.79034869  1
  O  O260  1  0.11299227  0.37520548  0.03687189  1
  O  O261  1  0.12011041  0.38294417  0.29523428  1
  O  O262  1  0.12834094  0.37892745  0.52323607  1
  O  O263  1  0.12154678  0.37655112  0.79833988  1
  O  O264  1  0.11759558  0.61918547  0.03496359  1
  O  O265  1  0.12296033  0.62222737  0.29564199  1
  O  O266  1  0.12716065  0.63274204  0.54658109  1
  O  O267  1  0.11938902  0.62764602  0.80377934  1
  O  O268  1  0.11233770  0.87288126  0.04002410  1
  O  O269  1  0.11843034  0.87016959  0.27928519  1
  O  O270  1  0.12572497  0.87117254  0.54378217  1
  O  O271  1  0.12246859  0.87483537  0.80710119  1
  O  O272  1  0.37350558  0.12392555  0.04138295  1
  O  O273  1  0.38764827  0.13066546  0.27668061  1
  O  O274  1  0.38353725  0.12102039  0.53826776  1
  O  O275  1  0.36830731  0.11854423  0.78128510  1
  O  O276  1  0.37878467  0.37480242  0.04427750  1
  O  O277  1  0.38300629  0.38123231  0.29808947  1
  O  O278  1  0.37008034  0.37717541  0.54655682  1
  O  O279  1  0.36713762  0.37749243  0.78178395  1
  O  O280  1  0.37447972  0.62802149  0.03108419  1
  O  O281  1  0.37871581  0.62121251  0.29745302  1
  O  O282  1  0.36964352  0.63511017  0.54283714  1
  O  O283  1  0.36423266  0.62968733  0.78323923  1
  O  O284  1  0.37516466  0.87415596  0.03032761  1
  O  O285  1  0.38524557  0.86931234  0.29262639  1
  O  O286  1  0.36659342  0.87260322  0.54673882  1
  O  O287  1  0.36942317  0.87639626  0.80283607  1
  O  O288  1  0.63291452  0.12635165  0.04877405  1
  O  O289  1  0.62342397  0.12674320  0.30116629  1
  O  O290  1  0.61391676  0.12090352  0.53835370  1
  O  O291  1  0.63165228  0.11441555  0.77862636  1
  O  O292  1  0.63360906  0.37117074  0.04745352  1
  O  O293  1  0.62459336  0.38345838  0.29979547  1
  O  O294  1  0.62639160  0.37914958  0.53219784  1
  O  O295  1  0.62655338  0.37266020  0.77418981  1
  O  O296  1  0.63266128  0.62220254  0.04502681  1
  O  O297  1  0.62430329  0.62364313  0.30421005  1
  O  O298  1  0.62248842  0.63049895  0.54155354  1
  O  O299  1  0.63044374  0.63554144  0.77608940  1
  O  O300  1  0.63503250  0.87654844  0.04940803  1
  O  O301  1  0.62499793  0.86690316  0.28832848  1
  O  O302  1  0.61978165  0.87305508  0.54658008  1
  O  O303  1  0.63366597  0.87702627  0.78358932  1
  O  O304  1  0.87101846  0.12827757  0.05478154  1
  O  O305  1  0.86084308  0.12575476  0.29394297  1
  O  O306  1  0.87298894  0.11744456  0.52370408  1
  O  O307  1  0.88452173  0.12029209  0.79367425  1
  O  O308  1  0.87144190  0.37298678  0.05097205  1
  O  O309  1  0.86848401  0.37823448  0.30322439  1
  O  O310  1  0.87983495  0.37893738  0.54374486  1
  O  O311  1  0.88739159  0.37701813  0.77873518  1
  O  O312  1  0.87012585  0.62262610  0.05080693  1
  O  O313  1  0.87283108  0.62283777  0.30443559  1
  O  O314  1  0.88091938  0.63284077  0.53337854  1
  O  O315  1  0.88681362  0.63308361  0.79498887  1
  O  O316  1  0.86984589  0.87610745  0.05210663  1
  O  O317  1  0.86692864  0.87083854  0.29827860  1
  O  O318  1  0.87633327  0.87152131  0.54252076  1
  O  O319  1  0.88337825  0.87569554  0.79905521  1
