# generated using pymatgen
data_VFe(PbO3)2
_symmetry_space_group_name_H-M   'P 1'
_cell_length_a   15.39063318
_cell_length_b   15.41387838
_cell_length_c   18.50005569
_cell_angle_alpha   89.92973980
_cell_angle_beta   90.00864376
_cell_angle_gamma   90.00970642
_symmetry_Int_Tables_number   1
_chemical_formula_structural   VFe(PbO3)2
_chemical_formula_sum   'V32 Fe32 Pb64 O192'
_cell_volume   4388.75273593
_cell_formula_units_Z   32
loop_
 _symmetry_equiv_pos_site_id
 _symmetry_equiv_pos_as_xyz
  1  'x, y, z'
loop_
 _atom_site_type_symbol
 _atom_site_label
 _atom_site_symmetry_multiplicity
 _atom_site_fract_x
 _atom_site_fract_y
 _atom_site_fract_z
 _atom_site_occupancy
  V  V0  1  0.13126843  0.87810273  0.38819310  1
  V  V1  1  0.87490804  0.37639863  0.88684966  1
  V  V2  1  0.87680076  0.13106461  0.88922007  1
  V  V3  1  0.37009247  0.12083986  0.39082439  1
  V  V4  1  0.87504216  0.12809258  0.14215772  1
  V  V5  1  0.12418851  0.61701042  0.15028405  1
  V  V6  1  0.62645672  0.37690306  0.88703182  1
  V  V7  1  0.12414174  0.37519065  0.88704963  1
  V  V8  1  0.12581124  0.61245823  0.88686560  1
  V  V9  1  0.87505781  0.37501488  0.15243238  1
  V  V10  1  0.12400867  0.87464950  0.63835205  1
  V  V11  1  0.12478392  0.37122212  0.15358042  1
  V  V12  1  0.12621644  0.13028207  0.88850225  1
  V  V13  1  0.61817844  0.11739663  0.38695153  1
  V  V14  1  0.12279932  0.85542053  0.88720916  1
  V  V15  1  0.62511808  0.63000943  0.38590057  1
  V  V16  1  0.37568450  0.37535243  0.88905313  1
  V  V17  1  0.12439916  0.86875669  0.13807199  1
  V  V18  1  0.37781617  0.12849977  0.13899636  1
  V  V19  1  0.62392572  0.87522583  0.64473461  1
  V  V20  1  0.38154372  0.87760933  0.38467712  1
  V  V21  1  0.37461711  0.87460836  0.64015655  1
  V  V22  1  0.86667806  0.12038394  0.38873649  1
  V  V23  1  0.62455631  0.11901316  0.63933070  1
  V  V24  1  0.62524202  0.87684013  0.13323999  1
  V  V25  1  0.12439411  0.12622801  0.14085930  1
  V  V26  1  0.87907219  0.62259927  0.89173723  1
  V  V27  1  0.11666987  0.12102454  0.39989049  1
  V  V28  1  0.62377881  0.12709434  0.89463387  1
  V  V29  1  0.62382978  0.37368743  0.14425341  1
  V  V30  1  0.87386312  0.11894410  0.63816442  1
  V  V31  1  0.87658244  0.87522117  0.38656369  1
  Fe  Fe32  1  0.37672545  0.62717412  0.62901108  1
  Fe  Fe33  1  0.37068853  0.87845532  0.13184996  1
  Fe  Fe34  1  0.62415122  0.37598506  0.39670837  1
  Fe  Fe35  1  0.87340723  0.62712130  0.38151150  1
  Fe  Fe36  1  0.12512627  0.37340745  0.39281920  1
  Fe  Fe37  1  0.37088311  0.62248859  0.88523465  1
  Fe  Fe38  1  0.87382887  0.37314149  0.39232409  1
  Fe  Fe39  1  0.87323019  0.62916459  0.62818728  1
  Fe  Fe40  1  0.87844036  0.87743271  0.13035004  1
  Fe  Fe41  1  0.62679381  0.87691823  0.38105452  1
  Fe  Fe42  1  0.37724921  0.37381133  0.62456238  1
  Fe  Fe43  1  0.62604408  0.87361161  0.88733244  1
  Fe  Fe44  1  0.37645472  0.12017376  0.63650826  1
  Fe  Fe45  1  0.62465186  0.37404806  0.62469372  1
  Fe  Fe46  1  0.37556837  0.62521463  0.14445305  1
  Fe  Fe47  1  0.62641035  0.13018707  0.13407320  1
  Fe  Fe48  1  0.87265194  0.87600518  0.63805679  1
  Fe  Fe49  1  0.37309846  0.37377879  0.14956410  1
  Fe  Fe50  1  0.12598797  0.37386457  0.62139038  1
  Fe  Fe51  1  0.12469549  0.63052618  0.38725280  1
  Fe  Fe52  1  0.37581982  0.37470653  0.38584233  1
  Fe  Fe53  1  0.37294205  0.13013169  0.88251091  1
  Fe  Fe54  1  0.62530725  0.62688631  0.63312244  1
  Fe  Fe55  1  0.87223431  0.37591089  0.62437464  1
  Fe  Fe56  1  0.87860344  0.87557664  0.89720636  1
  Fe  Fe57  1  0.37301901  0.87609569  0.89346672  1
  Fe  Fe58  1  0.87579143  0.62399806  0.15061462  1
  Fe  Fe59  1  0.62417543  0.62177930  0.88812189  1
  Fe  Fe60  1  0.12537702  0.62853276  0.62670214  1
  Fe  Fe61  1  0.62705726  0.62133542  0.13346753  1
  Fe  Fe62  1  0.37642477  0.63072897  0.38518329  1
  Fe  Fe63  1  0.12509923  0.11893024  0.62816831  1
  Pb  Pb64  1  -0.00017703  0.00067062  0.00096526  1
  Pb  Pb65  1  0.00137411  0.00149525  0.24828554  1
  Pb  Pb66  1  -0.00341411  -0.00754576  0.50513519  1
  Pb  Pb67  1  -0.00267192  -0.00855123  0.75439369  1
  Pb  Pb68  1  -0.00032468  0.25536278  0.00040390  1
  Pb  Pb69  1  -0.00127255  0.25808698  0.26464226  1
  Pb  Pb70  1  0.00036835  0.25862440  0.50324824  1
  Pb  Pb71  1  0.00470104  0.25134104  0.73530970  1
  Pb  Pb72  1  -0.00370560  0.50273775  0.00714858  1
  Pb  Pb73  1  0.00979898  0.49648609  0.26862373  1
  Pb  Pb74  1  0.00194609  0.50400525  0.49007119  1
  Pb  Pb75  1  0.00072523  0.49880209  0.72865162  1
  Pb  Pb76  1  -0.01571452  0.73957058  0.01546598  1
  Pb  Pb77  1  -0.00023403  0.74298272  0.25587724  1
  Pb  Pb78  1  -0.00428889  0.74167313  0.49961743  1
  Pb  Pb79  1  -0.00783065  0.74828419  0.74507846  1
  Pb  Pb80  1  0.25223577  -0.00035970  -0.00100305  1
  Pb  Pb81  1  0.24761642  0.00412830  0.24792801  1
  Pb  Pb82  1  0.25108332  0.00717338  0.50765558  1
  Pb  Pb83  1  0.25883494  0.00075084  0.75274871  1
  Pb  Pb84  1  0.25743792  0.25963859  0.00339182  1
  Pb  Pb85  1  0.24870362  0.25601890  0.26144553  1
  Pb  Pb86  1  0.25220893  0.25802365  0.50243351  1
  Pb  Pb87  1  0.25167358  0.24652194  0.73397146  1
  Pb  Pb88  1  0.26214789  0.49591790  0.00997218  1
  Pb  Pb89  1  0.25984138  0.50231022  0.26340452  1
  Pb  Pb90  1  0.25010171  0.49991848  0.48859922  1
  Pb  Pb91  1  0.25347626  0.50037509  0.73047980  1
  Pb  Pb92  1  0.26663555  0.74042126  0.00849212  1
  Pb  Pb93  1  0.25301858  0.74342393  0.25510865  1
  Pb  Pb94  1  0.25173883  0.74005176  0.50027154  1
  Pb  Pb95  1  0.26045168  0.74421135  0.74930462  1
  Pb  Pb96  1  0.49393394  -0.00260940  -0.00268153  1
  Pb  Pb97  1  0.50567040  -0.00442080  0.24485337  1
  Pb  Pb98  1  0.49421287  0.00244070  0.50346032  1
  Pb  Pb99  1  0.49628004  -0.01328795  0.76013076  1
  Pb  Pb100  1  0.50319961  0.25251016  0.00304790  1
  Pb  Pb101  1  0.50642542  0.26571199  0.26333909  1
  Pb  Pb102  1  0.49621893  0.25743883  0.50213903  1
  Pb  Pb103  1  0.49452179  0.24833998  0.74126670  1
  Pb  Pb104  1  0.49820832  0.50686106  0.00164296  1
  Pb  Pb105  1  0.49583000  0.50200338  0.25274768  1
  Pb  Pb106  1  0.49300755  0.50110201  0.49324575  1
  Pb  Pb107  1  0.50022201  0.50314145  0.73680592  1
  Pb  Pb108  1  0.50061597  0.74365626  -0.00530481  1
  Pb  Pb109  1  0.49733646  0.74825747  0.24187660  1
  Pb  Pb110  1  0.50604456  0.74027731  0.50358120  1
  Pb  Pb111  1  0.50137774  0.73573399  0.75727533  1
  Pb  Pb112  1  0.75263604  -0.00172971  -0.00088722  1
  Pb  Pb113  1  0.74412889  -0.00615451  0.24590177  1
  Pb  Pb114  1  0.75411153  -0.01084192  0.50306122  1
  Pb  Pb115  1  0.74961983  -0.01117246  0.75984141  1
  Pb  Pb116  1  0.74611848  0.25016866  0.00325013  1
  Pb  Pb117  1  0.74809919  0.26050125  0.26350648  1
  Pb  Pb118  1  0.74762034  0.25647987  0.50165204  1
  Pb  Pb119  1  0.74960250  0.25064946  0.74184037  1
  Pb  Pb120  1  0.74882544  0.50597182  0.00380006  1
  Pb  Pb121  1  0.75429863  0.49969856  0.25796481  1
  Pb  Pb122  1  0.75477502  0.50290171  0.49398730  1
  Pb  Pb123  1  0.74585173  0.50324255  0.73546178  1
  Pb  Pb124  1  0.74587496  0.74640743  -0.00079605  1
  Pb  Pb125  1  0.75446313  0.74907029  0.24319934  1
  Pb  Pb126  1  0.74851103  0.74290792  0.50191479  1
  Pb  Pb127  1  0.74527443  0.74734606  0.75168318  1
  O  O128  1  0.12280621  0.00299723  0.16266451  1
  O  O129  1  0.12346449  -0.00520481  0.42000511  1
  O  O130  1  0.12761162  -0.00935151  0.66498095  1
  O  O131  1  0.12171840  0.01931103  0.91205102  1
  O  O132  1  0.12243878  0.25196967  0.17244742  1
  O  O133  1  0.12716241  0.23584894  0.41259338  1
  O  O134  1  0.12184498  0.24535411  0.65330415  1
  O  O135  1  0.12281418  0.25596476  0.91991058  1
  O  O136  1  0.12234155  0.49759085  0.17407176  1
  O  O137  1  0.12452623  0.50241684  0.40574696  1
  O  O138  1  0.12500039  0.50043589  0.65007307  1
  O  O139  1  0.12326781  0.49382742  0.92004279  1
  O  O140  1  0.12374217  0.75345966  0.16145527  1
  O  O141  1  0.12159633  0.76507350  0.41172488  1
  O  O142  1  0.12699931  0.76027794  0.66536967  1
  O  O143  1  0.12084031  0.74331733  0.89822959  1
  O  O144  1  0.36786565  0.00882516  0.16158828  1
  O  O145  1  0.37336500  -0.00520497  0.41849651  1
  O  O146  1  0.37679750  -0.00828668  0.66666809  1
  O  O147  1  0.36876058  0.00706736  0.91616810  1
  O  O148  1  0.36935355  0.24102906  0.16870679  1
  O  O149  1  0.37636418  0.23517570  0.40786261  1
  O  O150  1  0.37822451  0.24653792  0.65705308  1
  O  O151  1  0.37593741  0.25717941  0.91620368  1
  O  O152  1  0.37266832  0.49945433  0.17269884  1
  O  O153  1  0.37701947  0.50294894  0.40376489  1
  O  O154  1  0.37756457  0.50027061  0.65157046  1
  O  O155  1  0.37156340  0.49184962  0.91572256  1
  O  O156  1  0.37239129  0.75507029  0.16174206  1
  O  O157  1  0.37278597  0.76486095  0.40724223  1
  O  O158  1  0.37865414  0.75934157  0.66435260  1
  O  O159  1  0.36861625  0.74842009  0.91641799  1
  O  O160  1  0.62638144  0.00143436  0.15976039  1
  O  O161  1  0.62587937  0.00294317  0.41682635  1
  O  O162  1  0.62677862  0.00072366  0.67103974  1
  O  O163  1  0.62740749  0.01069400  0.91392450  1
  O  O164  1  0.62823123  0.25453249  0.16901597  1
  O  O165  1  0.62353984  0.22972330  0.41345188  1
  O  O166  1  0.62808922  0.23722506  0.65971880  1
  O  O167  1  0.62615587  0.25414939  0.91982395  1
  O  O168  1  0.62894889  0.48970828  0.16677751  1
  O  O169  1  0.62419726  0.51037897  0.40843357  1
  O  O170  1  0.62598424  0.49911716  0.65292770  1
  O  O171  1  0.62714199  0.49414513  0.91742631  1
  O  O172  1  0.62657105  0.76035859  0.15299594  1
  O  O173  1  0.62606285  0.75136571  0.40900611  1
  O  O174  1  0.62418247  0.76000454  0.66463995  1
  O  O175  1  0.62806185  0.74741606  0.91577509  1
  O  O176  1  0.88053276  0.00806567  0.15992896  1
  O  O177  1  0.87701447  0.00269380  0.41831760  1
  O  O178  1  0.87276531  0.00310884  0.67010581  1
  O  O179  1  0.88090169  0.01032656  0.91800781  1
  O  O180  1  0.87830634  0.24951433  0.17156253  1
  O  O181  1  0.87582904  0.23305847  0.41366298  1
  O  O182  1  0.87241576  0.23740249  0.65860881  1
  O  O183  1  0.87471958  0.25429821  0.91847940  1
  O  O184  1  0.87641678  0.49083017  0.17286067  1
  O  O185  1  0.87177924  0.50181897  0.40592047  1
  O  O186  1  0.87250780  0.50090302  0.65246083  1
  O  O187  1  0.87869087  0.50076726  0.91770115  1
  O  O188  1  0.87762037  0.75522667  0.16236898  1
  O  O189  1  0.87444402  0.76107434  0.40302321  1
  O  O190  1  0.87354334  0.75337061  0.66630159  1
  O  O191  1  0.88296566  0.74084180  0.91674902  1
  O  O192  1  -0.00038777  0.12882377  0.17037362  1
  O  O193  1  -0.00009897  0.11756957  0.41478600  1
  O  O194  1  -0.00710830  0.11840418  0.65736992  1
  O  O195  1  0.00118943  0.13681407  0.91798147  1
  O  O196  1  -0.00012788  0.37334880  0.17453169  1
  O  O197  1  -0.00103972  0.36732433  0.41254507  1
  O  O198  1  -0.00221933  0.37045898  0.65162974  1
  O  O199  1  -0.00182129  0.37508288  0.91659890  1
  O  O200  1  0.00738543  0.62456744  0.17268959  1
  O  O201  1  -0.00224778  0.63221124  0.40887608  1
  O  O202  1  0.00072632  0.63036937  0.65800347  1
  O  O203  1  0.00194970  0.61841978  0.92103488  1
  O  O204  1  0.00771562  0.87973287  0.16362434  1
  O  O205  1  -0.00361977  0.88253406  0.41124569  1
  O  O206  1  0.00537147  0.87750618  0.66216357  1
  O  O207  1  0.01390524  0.87975463  0.91878615  1
  O  O208  1  0.24525728  0.12785030  0.16971102  1
  O  O209  1  0.25335215  0.11426882  0.41342904  1
  O  O210  1  0.24923055  0.11900254  0.65980869  1
  O  O211  1  0.24249090  0.13773376  0.90925220  1
  O  O212  1  0.24154103  0.37370891  0.17409342  1
  O  O213  1  0.25204798  0.36752956  0.40765270  1
  O  O214  1  0.25068313  0.37170050  0.65299896  1
  O  O215  1  0.25254091  0.37301930  0.91314636  1
  O  O216  1  0.24146298  0.62535782  0.17078487  1
  O  O217  1  0.25099859  0.63419927  0.40938835  1
  O  O218  1  0.25087586  0.63187867  0.65759701  1
  O  O219  1  0.24140531  0.62028239  0.91544929  1
  O  O220  1  0.24034579  0.88010843  0.16335725  1
  O  O221  1  0.24708874  0.88112728  0.40685340  1
  O  O222  1  0.25424545  0.87489781  0.65997007  1
  O  O223  1  0.23203567  0.87881666  0.91689202  1
  O  O224  1  0.49335438  0.12491544  0.15519950  1
  O  O225  1  0.49825279  0.11292939  0.40891779  1
  O  O226  1  0.50881612  0.11854085  0.66185120  1
  O  O227  1  0.50490792  0.13158385  0.91343941  1
  O  O228  1  0.50612791  0.37148376  0.16476337  1
  O  O229  1  0.49927466  0.36831341  0.41227574  1
  O  O230  1  0.50287280  0.36954049  0.65715297  1
  O  O231  1  0.49718543  0.37591446  0.91335592  1
  O  O232  1  0.50447821  0.62452725  0.16473480  1
  O  O233  1  0.50535971  0.63292977  0.41015845  1
  O  O234  1  0.50051936  0.63085101  0.66211712  1
  O  O235  1  0.49662794  0.62014193  0.91485962  1
  O  O236  1  0.50406231  0.88278869  0.15417270  1
  O  O237  1  0.49586433  0.88201499  0.40556880  1
  O  O238  1  0.50184939  0.87991087  0.66529585  1
  O  O239  1  0.50079319  0.87857654  0.91702034  1
  O  O240  1  0.75893686  0.12763925  0.16099168  1
  O  O241  1  0.75099550  0.11626126  0.40681016  1
  O  O242  1  0.74977004  0.11916290  0.66778178  1
  O  O243  1  0.75085879  0.13146088  0.91705317  1
  O  O244  1  0.75273810  0.37104719  0.17091725  1
  O  O245  1  0.74835023  0.36753986  0.41376490  1
  O  O246  1  0.74896596  0.36805045  0.65700417  1
  O  O247  1  0.75186597  0.37639376  0.91494267  1
  O  O248  1  0.74761802  0.62333990  0.16800951  1
  O  O249  1  0.74452951  0.63127107  0.40865431  1
  O  O250  1  0.74911830  0.63067001  0.66395921  1
  O  O251  1  0.76168784  0.62161624  0.91335426  1
  O  O252  1  0.74756200  0.88233760  0.15557777  1
  O  O253  1  0.75719576  0.88373506  0.40804856  1
  O  O254  1  0.74347953  0.87922117  0.66752754  1
  O  O255  1  0.75226865  0.87831868  0.91735213  1
  O  O256  1  0.12546641  0.13181575  0.05004765  1
  O  O257  1  0.12281884  0.11429068  0.30813448  1
  O  O258  1  0.12725806  0.11422434  0.52773256  1
  O  O259  1  0.11958296  0.13206666  0.79726447  1
  O  O260  1  0.12352997  0.37466982  0.06260492  1
  O  O261  1  0.11817858  0.36901142  0.28907140  1
  O  O262  1  0.12750051  0.36876370  0.51976220  1
  O  O263  1  0.12287656  0.37391456  0.79645046  1
  O  O264  1  0.12257767  0.61549938  0.05910909  1
  O  O265  1  0.12307600  0.63592152  0.28508266  1
  O  O266  1  0.12330623  0.63793456  0.52586090  1
  O  O267  1  0.12352657  0.60805229  0.79641990  1
  O  O268  1  0.12377252  0.86977407  0.04725386  1
  O  O269  1  0.12520522  0.88130542  0.29687194  1
  O  O270  1  0.12424684  0.87405339  0.54712101  1
  O  O271  1  0.12196376  0.87515468  0.79668162  1
  O  O272  1  0.36881118  0.13225358  0.04739070  1
  O  O273  1  0.37034220  0.11455422  0.29998231  1
  O  O274  1  0.37861133  0.11034774  0.53538014  1
  O  O275  1  0.37368103  0.12622356  0.78301707  1
  O  O276  1  0.36547637  0.37548721  0.04829114  1
  O  O277  1  0.37864240  0.36779398  0.28155175  1
  O  O278  1  0.37676249  0.36846405  0.52307645  1
  O  O279  1  0.37574641  0.37489359  0.79858710  1
  O  O280  1  0.36429724  0.61957668  0.04235021  1
  O  O281  1  0.37512219  0.63464048  0.28273818  1
  O  O282  1  0.38004874  0.63728860  0.52747227  1
  O  O283  1  0.37341556  0.62773922  0.78518823  1
  O  O284  1  0.36267193  0.88076953  0.03150189  1
  O  O285  1  0.37713413  0.88371789  0.29307300  1
  O  O286  1  0.37895228  0.87513213  0.54903213  1
  O  O287  1  0.37040226  0.88146788  0.79268760  1
  O  O288  1  0.62694679  0.13843799  0.03495107  1
  O  O289  1  0.62046384  0.11640553  0.29502316  1
  O  O290  1  0.62773853  0.11407382  0.54842123  1
  O  O291  1  0.62752819  0.13166065  0.80415292  1
  O  O292  1  0.62810338  0.37220073  0.05300147  1
  O  O293  1  0.62350705  0.36460348  0.29363308  1
  O  O294  1  0.62361416  0.36483051  0.52285367  1
  O  O295  1  0.62501963  0.37379874  0.79637726  1
  O  O296  1  0.63080859  0.61666469  0.03270392  1
  O  O297  1  0.62431241  0.63088786  0.29460318  1
  O  O298  1  0.62592080  0.64103322  0.53257039  1
  O  O299  1  0.62494158  0.62629563  0.78756100  1
  O  O300  1  0.62718982  0.88181281  0.04209876  1
  O  O301  1  0.62521172  0.88538224  0.28161326  1
  O  O302  1  0.62544218  0.87886745  0.55321619  1
  O  O303  1  0.62571047  0.87992958  0.78723635  1
  O  O304  1  0.88097871  0.13401331  0.05120911  1
  O  O305  1  0.87370803  0.11828723  0.29765306  1
  O  O306  1  0.86708574  0.11408152  0.54720960  1
  O  O307  1  0.87703058  0.13003013  0.79841961  1
  O  O308  1  0.87530547  0.37418507  0.06141524  1
  O  O309  1  0.87131344  0.36425428  0.28922076  1
  O  O310  1  0.87147731  0.36595615  0.52367508  1
  O  O311  1  0.87640351  0.37565172  0.79619350  1
  O  O312  1  0.88666126  0.62040145  0.04809384  1
  O  O313  1  0.87277692  0.63148254  0.27898685  1
  O  O314  1  0.86824221  0.63577585  0.52682936  1
  O  O315  1  0.88337908  0.62235474  0.80135066  1
  O  O316  1  0.88577862  0.87591092  0.02924609  1
  O  O317  1  0.87793859  0.88425245  0.29522752  1
  O  O318  1  0.87281834  0.88287669  0.53804368  1
  O  O319  1  0.88513564  0.88089487  0.79647615  1
