# generated using pymatgen
data_VFe(PbO3)2
_symmetry_space_group_name_H-M   'P 1'
_cell_length_a   15.37817300
_cell_length_b   15.39556601
_cell_length_c   18.51913930
_cell_angle_alpha   89.98818772
_cell_angle_beta   89.99147168
_cell_angle_gamma   89.96724153
_symmetry_Int_Tables_number   1
_chemical_formula_structural   VFe(PbO3)2
_chemical_formula_sum   'V32 Fe32 Pb64 O192'
_cell_volume   4384.51051524
_cell_formula_units_Z   32
loop_
 _symmetry_equiv_pos_site_id
 _symmetry_equiv_pos_as_xyz
  1  'x, y, z'
loop_
 _atom_site_type_symbol
 _atom_site_label
 _atom_site_symmetry_multiplicity
 _atom_site_fract_x
 _atom_site_fract_y
 _atom_site_fract_z
 _atom_site_occupancy
  V  V0  1  0.37560760  0.37804411  0.13491382  1
  V  V1  1  0.12951055  0.62775199  0.13917830  1
  V  V2  1  0.37305640  0.12355669  0.89944123  1
  V  V3  1  0.37777181  0.62139411  0.39287883  1
  V  V4  1  0.12640947  0.12320527  0.64418947  1
  V  V5  1  0.37764044  0.37441382  0.88909411  1
  V  V6  1  0.37358891  0.37138235  0.64214405  1
  V  V7  1  0.37611889  0.37424751  0.38982749  1
  V  V8  1  0.37304113  0.62552375  0.64587123  1
  V  V9  1  0.87483947  0.87381892  0.13837451  1
  V  V10  1  0.37486002  0.87552659  0.64227795  1
  V  V11  1  0.12368181  0.87698858  0.64507885  1
  V  V12  1  0.62550226  0.37552029  0.39117930  1
  V  V13  1  0.62459831  0.12633149  0.38927277  1
  V  V14  1  0.87484074  0.13014185  0.38678447  1
  V  V15  1  0.62390208  0.87140436  0.13722321  1
  V  V16  1  0.37816166  0.62430364  0.13484703  1
  V  V17  1  0.12622604  0.37471847  0.89333072  1
  V  V18  1  0.12559237  0.62261920  0.88643986  1
  V  V19  1  0.87789134  0.37545790  0.64064696  1
  V  V20  1  0.87682135  0.62388105  0.88723603  1
  V  V21  1  0.12582376  0.62347653  0.39106633  1
  V  V22  1  0.87454140  0.87669513  0.64381656  1
  V  V23  1  0.37479655  0.12370084  0.64026165  1
  V  V24  1  0.62642718  0.62675568  0.64591940  1
  V  V25  1  0.87679694  0.37353676  0.89328466  1
  V  V26  1  0.62451834  0.87853895  0.64204620  1
  V  V27  1  0.62505060  0.12581909  0.89097287  1
  V  V28  1  0.87526030  0.12622361  0.64356756  1
  V  V29  1  0.62499868  0.87531675  0.88705885  1
  V  V30  1  0.87655594  0.62563726  0.14006822  1
  V  V31  1  0.87359665  0.37451150  0.38839234  1
  Fe  Fe32  1  0.12499213  0.87664886  0.37832879  1
  Fe  Fe33  1  0.12511879  0.62533157  0.63695142  1
  Fe  Fe34  1  0.62445410  0.37291618  0.64787312  1
  Fe  Fe35  1  0.62508723  0.87270082  0.38402843  1
  Fe  Fe36  1  0.87328749  0.37769652  0.12794301  1
  Fe  Fe37  1  0.12534257  0.37079732  0.63747122  1
  Fe  Fe38  1  0.62400060  0.12211597  0.63992934  1
  Fe  Fe39  1  0.62488187  0.62175590  0.38553306  1
  Fe  Fe40  1  0.87457458  0.12325277  0.89665019  1
  Fe  Fe41  1  0.37395321  0.62090920  0.88134559  1
  Fe  Fe42  1  0.12513983  0.37991792  0.13760497  1
  Fe  Fe43  1  0.37746915  0.12342441  0.13050649  1
  Fe  Fe44  1  0.12398581  0.12439953  0.12822523  1
  Fe  Fe45  1  0.87445831  0.62310914  0.38618270  1
  Fe  Fe46  1  0.87368351  0.87696812  0.38214915  1
  Fe  Fe47  1  0.12576758  0.12619802  0.89843136  1
  Fe  Fe48  1  0.62653373  0.62445946  0.88350279  1
  Fe  Fe49  1  0.12382440  0.37647320  0.38243873  1
  Fe  Fe50  1  0.37708305  0.12878370  0.37824801  1
  Fe  Fe51  1  0.87155306  0.12403765  0.12478689  1
  Fe  Fe52  1  0.37592804  0.86975232  0.12698412  1
  Fe  Fe53  1  0.12400030  0.87365062  0.88675992  1
  Fe  Fe54  1  0.37600469  0.87415306  0.89517237  1
  Fe  Fe55  1  0.62564609  0.37925719  0.12882520  1
  Fe  Fe56  1  0.37548481  0.87460421  0.38382566  1
  Fe  Fe57  1  0.62668171  0.62749872  0.13290634  1
  Fe  Fe58  1  0.87689733  0.62594191  0.63549072  1
  Fe  Fe59  1  0.12618957  0.12775589  0.37685090  1
  Fe  Fe60  1  0.12413928  0.86997617  0.13809436  1
  Fe  Fe61  1  0.62531207  0.12509770  0.13045186  1
  Fe  Fe62  1  0.62619482  0.37407157  0.88347500  1
  Fe  Fe63  1  0.87280515  0.87216182  0.88404807  1
  Pb  Pb64  1  0.00022283  0.00104661  -0.00478668  1
  Pb  Pb65  1  0.00904211  0.00345029  0.24098439  1
  Pb  Pb66  1  0.00390673  -0.00112966  0.49094820  1
  Pb  Pb67  1  -0.00144904  0.00615321  0.76303017  1
  Pb  Pb68  1  0.00117258  0.24243758  0.00596197  1
  Pb  Pb69  1  0.00176826  0.24903962  0.23415065  1
  Pb  Pb70  1  0.00633887  0.25603788  0.49724242  1
  Pb  Pb71  1  0.00179030  0.23684340  0.76016350  1
  Pb  Pb72  1  -0.00073610  0.49276791  0.00458598  1
  Pb  Pb73  1  -0.00140519  0.49679230  0.24863984  1
  Pb  Pb74  1  0.00271627  0.51045958  0.50656418  1
  Pb  Pb75  1  0.00407192  0.50194247  0.74537676  1
  Pb  Pb76  1  0.00385072  0.75567135  -0.00205542  1
  Pb  Pb77  1  -0.01008249  0.75082702  0.25466790  1
  Pb  Pb78  1  -0.00429031  0.74800388  0.49623865  1
  Pb  Pb79  1  0.00065855  0.75724415  0.75029968  1
  Pb  Pb80  1  0.23721767  -0.01214867  0.00584857  1
  Pb  Pb81  1  0.24900887  -0.00072809  0.23690054  1
  Pb  Pb82  1  0.25053664  0.00332948  0.48627128  1
  Pb  Pb83  1  0.24715396  -0.00885067  0.76170588  1
  Pb  Pb84  1  0.24796966  0.24498569  0.00873040  1
  Pb  Pb85  1  0.24203561  0.23732430  0.24248845  1
  Pb  Pb86  1  0.24535146  0.25100178  0.49325819  1
  Pb  Pb87  1  0.24330128  0.23791589  0.75731425  1
  Pb  Pb88  1  0.24597999  0.49411029  0.00092665  1
  Pb  Pb89  1  0.24547618  0.49579463  0.25196993  1
  Pb  Pb90  1  0.24036854  0.49861077  0.50522223  1
  Pb  Pb91  1  0.25220247  0.50120051  0.74840948  1
  Pb  Pb92  1  0.25224436  0.75853708  -0.00098945  1
  Pb  Pb93  1  0.25368833  0.76306880  0.25048719  1
  Pb  Pb94  1  0.24559347  0.74947084  0.49769546  1
  Pb  Pb95  1  0.25124764  0.75944678  0.75729147  1
  Pb  Pb96  1  0.50040383  0.00764037  0.00582115  1
  Pb  Pb97  1  0.48799527  0.00016318  0.24372787  1
  Pb  Pb98  1  0.49638952  0.00114246  0.49325934  1
  Pb  Pb99  1  0.49053325  -0.00697539  0.75572048  1
  Pb  Pb100  1  0.50293305  0.24505829  0.00385197  1
  Pb  Pb101  1  0.49833175  0.24566570  0.24196853  1
  Pb  Pb102  1  0.51132592  0.24910350  0.50854880  1
  Pb  Pb103  1  0.50369592  0.25098724  0.75238684  1
  Pb  Pb104  1  0.51327895  0.50283925  -0.00570588  1
  Pb  Pb105  1  0.50887217  0.50715081  0.24636789  1
  Pb  Pb106  1  0.50459925  0.49192696  0.50655345  1
  Pb  Pb107  1  0.50097537  0.50734904  0.75643176  1
  Pb  Pb108  1  0.49650335  0.74489456  -0.00730162  1
  Pb  Pb109  1  0.50404710  0.76035290  0.25269515  1
  Pb  Pb110  1  0.50472561  0.75201505  0.49798035  1
  Pb  Pb111  1  0.49488186  0.74485666  0.75720794  1
  Pb  Pb112  1  0.75139398  0.00545730  -0.00002796  1
  Pb  Pb113  1  0.74847430  -0.00709801  0.24603374  1
  Pb  Pb114  1  0.74838882  0.00231405  0.49707569  1
  Pb  Pb115  1  0.76520490  0.00468424  0.75969385  1
  Pb  Pb116  1  0.74972161  0.25776822  0.00196112  1
  Pb  Pb117  1  0.75001138  0.25248600  0.23270464  1
  Pb  Pb118  1  0.74136636  0.25052238  0.50806211  1
  Pb  Pb119  1  0.74880432  0.25111911  0.75271200  1
  Pb  Pb120  1  0.74685721  0.49593961  -0.00044048  1
  Pb  Pb121  1  0.74720308  0.50819617  0.24658782  1
  Pb  Pb122  1  0.75321165  0.50301229  0.50106445  1
  Pb  Pb123  1  0.74180700  0.49901393  0.75431801  1
  Pb  Pb124  1  0.74394284  0.74270363  -0.00111714  1
  Pb  Pb125  1  0.75075072  0.75062555  0.25451974  1
  Pb  Pb126  1  0.75455797  0.74747615  0.49368083  1
  Pb  Pb127  1  0.74891390  0.75125102  0.75084615  1
  O  O128  1  0.12445983  -0.00257263  0.15479360  1
  O  O129  1  0.12359601  0.00381606  0.40964522  1
  O  O130  1  0.12664909  -0.00237907  0.67132741  1
  O  O131  1  0.12629332  -0.00102398  0.91369812  1
  O  O132  1  0.12549099  0.25283681  0.15408482  1
  O  O133  1  0.12490862  0.25204564  0.41230696  1
  O  O134  1  0.12532811  0.24479813  0.66997784  1
  O  O135  1  0.12493069  0.25965233  0.91833380  1
  O  O136  1  0.12288537  0.51152529  0.16793481  1
  O  O137  1  0.12670151  0.50257357  0.41538354  1
  O  O138  1  0.12622344  0.49649349  0.66514133  1
  O  O139  1  0.12060363  0.50212447  0.91536764  1
  O  O140  1  0.12151007  0.74039809  0.16649186  1
  O  O141  1  0.12611197  0.74295301  0.41217398  1
  O  O142  1  0.12628472  0.75823338  0.66374264  1
  O  O143  1  0.12345313  0.73786209  0.91005519  1
  O  O144  1  0.37939651  -0.00437994  0.15196699  1
  O  O145  1  0.37877607  0.00285113  0.40999190  1
  O  O146  1  0.37425357  -0.00123783  0.66958446  1
  O  O147  1  0.37776293  0.00798524  0.91529281  1
  O  O148  1  0.37669353  0.26210599  0.15402184  1
  O  O149  1  0.37812168  0.25924097  0.41032648  1
  O  O150  1  0.37494006  0.25063314  0.66568592  1
  O  O151  1  0.37418703  0.25652039  0.91869186  1
  O  O152  1  0.37260578  0.50716405  0.16463589  1
  O  O153  1  0.37450954  0.50071202  0.42117565  1
  O  O154  1  0.37453583  0.49593865  0.66514990  1
  O  O155  1  0.37304692  0.49160906  0.91157640  1
  O  O156  1  0.37298191  0.73907128  0.15950830  1
  O  O157  1  0.37311497  0.73860769  0.41761122  1
  O  O158  1  0.37637786  0.75246402  0.66838582  1
  O  O159  1  0.37551558  0.74490511  0.90894402  1
  O  O160  1  0.62492449  -0.01122594  0.15889810  1
  O  O161  1  0.62512039  0.00912025  0.41047985  1
  O  O162  1  0.62200834  -0.00719703  0.66438031  1
  O  O163  1  0.62211135  0.00170389  0.91309746  1
  O  O164  1  0.62276441  0.25348168  0.15594203  1
  O  O165  1  0.62511498  0.25123943  0.42005651  1
  O  O166  1  0.62461005  0.24589054  0.67222000  1
  O  O167  1  0.62491548  0.24535818  0.90926623  1
  O  O168  1  0.62474185  0.50364093  0.16243001  1
  O  O169  1  0.62398144  0.49498835  0.42097861  1
  O  O170  1  0.62535193  0.50561360  0.66478333  1
  O  O171  1  0.62737973  0.49847429  0.90796674  1
  O  O172  1  0.62863180  0.75333099  0.16301277  1
  O  O173  1  0.62376773  0.74671755  0.41615031  1
  O  O174  1  0.62306322  0.75108944  0.66826763  1
  O  O175  1  0.62592211  0.75559085  0.90720117  1
  O  O176  1  0.87117566  -0.00949409  0.15472801  1
  O  O177  1  0.87052638  0.01271539  0.41256795  1
  O  O178  1  0.87629021  0.00019133  0.67163346  1
  O  O179  1  0.87174778  -0.00507824  0.91587977  1
  O  O180  1  0.87293789  0.25054431  0.15218144  1
  O  O181  1  0.86921302  0.24939173  0.41630750  1
  O  O182  1  0.87685218  0.24931905  0.66770058  1
  O  O183  1  0.87464606  0.25760033  0.91139194  1
  O  O184  1  0.87584841  0.50904577  0.15932985  1
  O  O185  1  0.87406268  0.49013402  0.41261444  1
  O  O186  1  0.87525429  0.49328840  0.66194310  1
  O  O187  1  0.87737508  0.50423469  0.91301713  1
  O  O188  1  0.87384534  0.74976959  0.16727933  1
  O  O189  1  0.87635975  0.74993061  0.41333538  1
  O  O190  1  0.87498104  0.75515896  0.66409835  1
  O  O191  1  0.87462024  0.74171860  0.91225406  1
  O  O192  1  -0.00367713  0.12247628  0.15369320  1
  O  O193  1  -0.00862794  0.13040476  0.40773539  1
  O  O194  1  0.00115166  0.12196242  0.67280385  1
  O  O195  1  -0.00047433  0.12853512  0.91748499  1
  O  O196  1  -0.00228505  0.38205272  0.16058113  1
  O  O197  1  -0.00892298  0.36968470  0.40915497  1
  O  O198  1  -0.00588267  0.37128604  0.66595614  1
  O  O199  1  -0.00146363  0.37896704  0.91665108  1
  O  O200  1  -0.00233328  0.62764377  0.16404231  1
  O  O201  1  0.00648604  0.62159815  0.41243323  1
  O  O202  1  0.00015600  0.62649489  0.66753033  1
  O  O203  1  -0.00104156  0.62295647  0.91387037  1
  O  O204  1  -0.00804948  0.86921721  0.15842014  1
  O  O205  1  -0.00017460  0.87789300  0.41276997  1
  O  O206  1  0.00363152  0.87775162  0.66597297  1
  O  O207  1  -0.00163972  0.86964204  0.91150874  1
  O  O208  1  0.25219647  0.12706087  0.15290001  1
  O  O209  1  0.25236271  0.12982729  0.40841220  1
  O  O210  1  0.25145474  0.12324871  0.67146130  1
  O  O211  1  0.25736406  0.13142206  0.91833192  1
  O  O212  1  0.25833443  0.38425446  0.16245222  1
  O  O213  1  0.25767331  0.37829252  0.41178851  1
  O  O214  1  0.25697870  0.37251712  0.66660654  1
  O  O215  1  0.24948747  0.37732406  0.91587764  1
  O  O216  1  0.24719360  0.62427745  0.15974380  1
  O  O217  1  0.24990468  0.62147131  0.41787389  1
  O  O218  1  0.25189505  0.62652689  0.66753903  1
  O  O219  1  0.24171764  0.61731032  0.90529484  1
  O  O220  1  0.25198165  0.86789692  0.15905310  1
  O  O221  1  0.24987422  0.87224953  0.41322044  1
  O  O222  1  0.24930317  0.87635399  0.66854599  1
  O  O223  1  0.24858347  0.87273135  0.91514482  1
  O  O224  1  0.50204781  0.12539069  0.16301487  1
  O  O225  1  0.50706902  0.13088637  0.41124172  1
  O  O226  1  0.49350699  0.12287273  0.66883016  1
  O  O227  1  0.50033076  0.12891830  0.91547644  1
  O  O228  1  0.49214166  0.38429486  0.15910545  1
  O  O229  1  0.49779014  0.37825006  0.41929231  1
  O  O230  1  0.49111355  0.37423096  0.66905804  1
  O  O231  1  0.49473781  0.37381633  0.90610680  1
  O  O232  1  0.49401141  0.62417046  0.15620388  1
  O  O233  1  0.49399087  0.61992728  0.41619569  1
  O  O234  1  0.50270108  0.62608611  0.66893705  1
  O  O235  1  0.50007189  0.62198055  0.90911855  1
  O  O236  1  0.50498032  0.86634698  0.15603202  1
  O  O237  1  0.49988322  0.87385733  0.41825871  1
  O  O238  1  0.50219042  0.87363954  0.66813571  1
  O  O239  1  0.50902319  0.87708342  0.91347791  1
  O  O240  1  0.74875778  0.12027147  0.16000986  1
  O  O241  1  0.74677514  0.13006226  0.41602104  1
  O  O242  1  0.75449204  0.12250632  0.66654567  1
  O  O243  1  0.74173436  0.12413372  0.91052144  1
  O  O244  1  0.75037435  0.38073477  0.16041062  1
  O  O245  1  0.75128032  0.37316511  0.41789085  1
  O  O246  1  0.75888049  0.37164438  0.66681145  1
  O  O247  1  0.75672879  0.37783641  0.90989829  1
  O  O248  1  0.75701696  0.62835390  0.16138165  1
  O  O249  1  0.74971038  0.61978609  0.41742224  1
  O  O250  1  0.74660677  0.62745912  0.66375822  1
  O  O251  1  0.75785129  0.62382542  0.90922678  1
  O  O252  1  0.75031454  0.87066076  0.16329187  1
  O  O253  1  0.74950765  0.87948039  0.41743319  1
  O  O254  1  0.74402866  0.87363952  0.66354083  1
  O  O255  1  0.74120683  0.87599659  0.91367668  1
  O  O256  1  0.12607818  0.12994994  0.02542273  1
  O  O257  1  0.12535403  0.12627446  0.27669614  1
  O  O258  1  0.12506818  0.12332812  0.55338246  1
  O  O259  1  0.12503916  0.13345536  0.79597739  1
  O  O260  1  0.12830171  0.39117931  0.03706770  1
  O  O261  1  0.12685062  0.38389010  0.28264685  1
  O  O262  1  0.12617975  0.36856619  0.53751933  1
  O  O263  1  0.12568890  0.37529012  0.80214227  1
  O  O264  1  0.12586460  0.62638819  0.04806716  1
  O  O265  1  0.12944799  0.62198741  0.30049308  1
  O  O266  1  0.12352736  0.62019588  0.53674082  1
  O  O267  1  0.12032173  0.62106594  0.79530830  1
  O  O268  1  0.12846397  0.86410345  0.03589105  1
  O  O269  1  0.12731855  0.87491567  0.27809813  1
  O  O270  1  0.12498394  0.88173305  0.55440936  1
  O  O271  1  0.13250629  0.87059692  0.78544846  1
  O  O272  1  0.38656281  0.13325804  0.02921367  1
  O  O273  1  0.38194953  0.12964372  0.27840029  1
  O  O274  1  0.37350349  0.12414811  0.54941821  1
  O  O275  1  0.37451562  0.12877701  0.80793948  1
  O  O276  1  0.37363731  0.38417579  0.04384432  1
  O  O277  1  0.38039466  0.38060510  0.29966526  1
  O  O278  1  0.37501435  0.37282966  0.55108937  1
  O  O279  1  0.37108144  0.37131975  0.79828777  1
  O  O280  1  0.37494425  0.62159192  0.04363765  1
  O  O281  1  0.37523248  0.62146233  0.30243688  1
  O  O282  1  0.37698499  0.62508174  0.55493748  1
  O  O283  1  0.38026027  0.61905566  0.78055350  1
  O  O284  1  0.37350947  0.86522004  0.02568340  1
  O  O285  1  0.38044249  0.86466875  0.28392066  1
  O  O286  1  0.37494732  0.87687385  0.55159569  1
  O  O287  1  0.37346227  0.88153403  0.79270076  1
  O  O288  1  0.61805317  0.12172923  0.03005569  1
  O  O289  1  0.62740083  0.13072400  0.29899919  1
  O  O290  1  0.62418771  0.13215915  0.54039619  1
  O  O291  1  0.62070576  0.12236762  0.79978723  1
  O  O292  1  0.63101019  0.38159873  0.02758686  1
  O  O293  1  0.62345451  0.37511887  0.30058497  1
  O  O294  1  0.61927307  0.36633841  0.54690095  1
  O  O295  1  0.63103141  0.37437296  0.78121044  1
  O  O296  1  0.62871341  0.62772820  0.03216820  1
  O  O297  1  0.62489490  0.61730745  0.28559804  1
  O  O298  1  0.62257314  0.62803611  0.55496777  1
  O  O299  1  0.62698543  0.62376613  0.78257415  1
  O  O300  1  0.62885968  0.86869729  0.04618790  1
  O  O301  1  0.62305143  0.87036715  0.28430607  1
  O  O302  1  0.62129518  0.87538286  0.55132747  1
  O  O303  1  0.62558671  0.87868993  0.79596206  1
  O  O304  1  0.86782841  0.12438844  0.02312692  1
  O  O305  1  0.87012843  0.13018531  0.29662880  1
  O  O306  1  0.87936899  0.12501775  0.55286497  1
  O  O307  1  0.87886796  0.11805542  0.79349822  1
  O  O308  1  0.87031344  0.38206853  0.02730646  1
  O  O309  1  0.86964161  0.37291195  0.29794671  1
  O  O310  1  0.87821765  0.37222452  0.54954521  1
  O  O311  1  0.87962298  0.37751370  0.80228586  1
  O  O312  1  0.87675100  0.63092151  0.04899848  1
  O  O313  1  0.87550801  0.62665190  0.28649832  1
  O  O314  1  0.88265238  0.62093116  0.53543359  1
  O  O315  1  0.87840426  0.62384663  0.79612096  1
  O  O316  1  0.87015649  0.86493101  0.04752243  1
  O  O317  1  0.87007510  0.87464392  0.28249934  1
  O  O318  1  0.87572953  0.88278536  0.55294560  1
  O  O319  1  0.87025129  0.87635811  0.78351551  1
