# generated using pymatgen
data_VFe(PbO3)2
_symmetry_space_group_name_H-M   'P 1'
_cell_length_a   15.39069624
_cell_length_b   15.39309782
_cell_length_c   18.49503976
_cell_angle_alpha   89.98256395
_cell_angle_beta   89.97521020
_cell_angle_gamma   90.02375403
_symmetry_Int_Tables_number   1
_chemical_formula_structural   VFe(PbO3)2
_chemical_formula_sum   'V32 Fe32 Pb64 O192'
_cell_volume   4381.66799662
_cell_formula_units_Z   32
loop_
 _symmetry_equiv_pos_site_id
 _symmetry_equiv_pos_as_xyz
  1  'x, y, z'
loop_
 _atom_site_type_symbol
 _atom_site_label
 _atom_site_symmetry_multiplicity
 _atom_site_fract_x
 _atom_site_fract_y
 _atom_site_fract_z
 _atom_site_occupancy
  V  V0  1  0.12704776  0.12562163  0.88452546  1
  V  V1  1  0.37182923  0.37487832  0.14167527  1
  V  V2  1  0.37436725  0.11671673  0.63487123  1
  V  V3  1  0.37414491  0.87381328  0.14667363  1
  V  V4  1  0.87355980  0.87349095  0.63734272  1
  V  V5  1  0.12700571  0.62422376  0.14866289  1
  V  V6  1  0.62320736  0.62561095  0.13933479  1
  V  V7  1  0.62491853  0.37478974  0.39410256  1
  V  V8  1  0.87504903  0.62604541  0.14713213  1
  V  V9  1  0.37233752  0.87876802  0.88629555  1
  V  V10  1  0.62669735  0.37398590  0.13815481  1
  V  V11  1  0.37498595  0.62303389  0.63210279  1
  V  V12  1  0.37616516  0.12705977  0.39204125  1
  V  V13  1  0.37808470  0.62181769  0.38816368  1
  V  V14  1  0.37117323  0.62588168  0.89060354  1
  V  V15  1  0.87545847  0.12415653  0.14194001  1
  V  V16  1  0.87674646  0.87468512  0.14150444  1
  V  V17  1  0.37703966  0.37630502  0.63514588  1
  V  V18  1  0.37826562  0.37342320  0.39410755  1
  V  V19  1  0.37399483  0.37433368  0.88638710  1
  V  V20  1  0.87182746  0.87667857  0.38873059  1
  V  V21  1  0.12750217  0.12353618  0.14637604  1
  V  V22  1  0.12317083  0.87581247  0.15016112  1
  V  V23  1  0.11824857  0.12683912  0.40051587  1
  V  V24  1  0.62527254  0.62485173  0.38985093  1
  V  V25  1  0.87613402  0.37339962  0.88266364  1
  V  V26  1  0.62676549  0.62687947  0.64041974  1
  V  V27  1  0.62645867  0.87562709  0.14247720  1
  V  V28  1  0.87696809  0.62443154  0.63625163  1
  V  V29  1  0.87533732  0.37480729  0.14173679  1
  V  V30  1  0.87494466  0.37514083  0.39560608  1
  V  V31  1  0.62358855  0.12691632  0.39399022  1
  Fe  Fe32  1  0.87885677  0.12621020  0.87536574  1
  Fe  Fe33  1  0.86931131  0.62483545  0.38523143  1
  Fe  Fe34  1  0.37358214  0.12317290  0.13928183  1
  Fe  Fe35  1  0.62292386  0.12420516  0.64337283  1
  Fe  Fe36  1  0.62236902  0.87292231  0.87862267  1
  Fe  Fe37  1  0.37455550  0.62541743  0.14167123  1
  Fe  Fe38  1  0.87811159  0.62494266  0.88054608  1
  Fe  Fe39  1  0.12601186  0.37670813  0.62689843  1
  Fe  Fe40  1  0.12629388  0.37635633  0.88391603  1
  Fe  Fe41  1  0.12400538  0.87729723  0.38990742  1
  Fe  Fe42  1  0.62344110  0.12468956  0.13514190  1
  Fe  Fe43  1  0.86830771  0.12619286  0.39927906  1
  Fe  Fe44  1  0.87614033  0.12458820  0.63078764  1
  Fe  Fe45  1  0.87886738  0.87584172  0.87889092  1
  Fe  Fe46  1  0.62655195  0.87698689  0.38522045  1
  Fe  Fe47  1  0.62230924  0.12559620  0.87538053  1
  Fe  Fe48  1  0.62440993  0.62426516  0.88388981  1
  Fe  Fe49  1  0.87387076  0.37912536  0.63238351  1
  Fe  Fe50  1  0.37610094  0.86759203  0.62500946  1
  Fe  Fe51  1  0.62266244  0.37807149  0.87876220  1
  Fe  Fe52  1  0.37086075  0.12753808  0.87865852  1
  Fe  Fe53  1  0.62438716  0.87275924  0.64238990  1
  Fe  Fe54  1  0.12536540  0.37228017  0.39526392  1
  Fe  Fe55  1  0.62479990  0.37687972  0.64436098  1
  Fe  Fe56  1  0.12708324  0.12428436  0.62331521  1
  Fe  Fe57  1  0.12238879  0.62382176  0.39195422  1
  Fe  Fe58  1  0.13043556  0.87404461  0.88328510  1
  Fe  Fe59  1  0.12556277  0.62389868  0.88354118  1
  Fe  Fe60  1  0.37955025  0.87736382  0.39696407  1
  Fe  Fe61  1  0.12565737  0.62585611  0.62522612  1
  Fe  Fe62  1  0.12095213  0.37224175  0.14319878  1
  Fe  Fe63  1  0.12568962  0.87326572  0.62728415  1
  Pb  Pb64  1  -0.00036369  -0.00131889  -0.00915545  1
  Pb  Pb65  1  -0.00055562  -0.00083265  0.25832311  1
  Pb  Pb66  1  -0.00970639  0.00201068  0.50377786  1
  Pb  Pb67  1  -0.00110087  0.00001859  0.74057802  1
  Pb  Pb68  1  0.00604221  0.25582431  -0.00266568  1
  Pb  Pb69  1  -0.00652728  0.24509829  0.25884734  1
  Pb  Pb70  1  -0.01443350  0.25346514  0.50950661  1
  Pb  Pb71  1  0.00236368  0.24979488  0.73215496  1
  Pb  Pb72  1  0.00455206  0.49877991  -0.00381783  1
  Pb  Pb73  1  0.00079399  0.50481969  0.25952555  1
  Pb  Pb74  1  0.00551716  0.50241460  0.49844593  1
  Pb  Pb75  1  0.01236850  0.49945670  0.74488827  1
  Pb  Pb76  1  0.00151557  0.75013283  -0.00884512  1
  Pb  Pb77  1  0.00382999  0.74375906  0.26082526  1
  Pb  Pb78  1  0.00536584  0.74827226  0.49425069  1
  Pb  Pb79  1  -0.00271389  0.75047899  0.74698442  1
  Pb  Pb80  1  0.25627766  0.00794365  0.00065246  1
  Pb  Pb81  1  0.25165155  -0.01129195  0.26335313  1
  Pb  Pb82  1  0.24315134  -0.00534979  0.50249890  1
  Pb  Pb83  1  0.24400815  -0.01005269  0.74023752  1
  Pb  Pb84  1  0.24868540  0.25359882  0.00066114  1
  Pb  Pb85  1  0.24072644  0.25369751  0.25877154  1
  Pb  Pb86  1  0.24480064  0.24907187  0.50623425  1
  Pb  Pb87  1  0.25078778  0.24824235  0.74208166  1
  Pb  Pb88  1  0.24676583  0.49779933  0.00271698  1
  Pb  Pb89  1  0.23696390  0.49658665  0.26048649  1
  Pb  Pb90  1  0.24063275  0.50071245  0.50077550  1
  Pb  Pb91  1  0.23939806  0.50168687  0.74578702  1
  Pb  Pb92  1  0.25025458  0.74622722  0.00189724  1
  Pb  Pb93  1  0.24300427  0.75230618  0.26220366  1
  Pb  Pb94  1  0.24523966  0.75948939  0.49662450  1
  Pb  Pb95  1  0.23665824  0.75041443  0.74184551  1
  Pb  Pb96  1  0.50475537  0.01189993  -0.00470748  1
  Pb  Pb97  1  0.49927896  -0.00701974  0.25538468  1
  Pb  Pb98  1  0.50862823  -0.00160339  0.50627447  1
  Pb  Pb99  1  0.50746395  -0.00634667  0.74793473  1
  Pb  Pb100  1  0.50355416  0.24074954  -0.00506707  1
  Pb  Pb101  1  0.50064102  0.24559840  0.24629249  1
  Pb  Pb102  1  0.50978704  0.24633748  0.51071794  1
  Pb  Pb103  1  0.50026322  0.24349221  0.75015004  1
  Pb  Pb104  1  0.49541683  0.50209600  -0.00143984  1
  Pb  Pb105  1  0.49988526  0.49937793  0.24826027  1
  Pb  Pb106  1  0.50535531  0.49663003  0.50555392  1
  Pb  Pb107  1  0.50507645  0.50388372  0.75212659  1
  Pb  Pb108  1  0.49698859  0.74772989  -0.00210845  1
  Pb  Pb109  1  0.49807636  0.76131400  0.25884407  1
  Pb  Pb110  1  0.50347827  0.76125986  0.50270681  1
  Pb  Pb111  1  0.50345446  0.75043129  0.74796782  1
  Pb  Pb112  1  0.74672970  0.00197656  -0.01647742  1
  Pb  Pb113  1  0.75038083  0.00088322  0.25060946  1
  Pb  Pb114  1  0.73844981  0.00721596  0.51041440  1
  Pb  Pb115  1  0.75164355  0.00501758  0.74634021  1
  Pb  Pb116  1  0.74425220  0.24259072  -0.01280682  1
  Pb  Pb117  1  0.75595394  0.24331329  0.25444066  1
  Pb  Pb118  1  0.74616131  0.25909075  0.51342598  1
  Pb  Pb119  1  0.75211318  0.24542348  0.73900870  1
  Pb  Pb120  1  0.75007319  0.50071859  -0.00878791  1
  Pb  Pb121  1  0.75427708  0.50156540  0.25154733  1
  Pb  Pb122  1  0.74819673  0.49191632  0.50686648  1
  Pb  Pb123  1  0.74505448  0.50154058  0.75065864  1
  Pb  Pb124  1  0.75134026  0.75247131  -0.01189935  1
  Pb  Pb125  1  0.74882942  0.75074921  0.25103652  1
  Pb  Pb126  1  0.74500207  0.75952539  0.50197456  1
  Pb  Pb127  1  0.76013134  0.74886838  0.75525961  1
  O  O128  1  0.12311779  0.00467630  0.17436366  1
  O  O129  1  0.13032561  0.00757127  0.41318226  1
  O  O130  1  0.12944601  -0.00054032  0.65352124  1
  O  O131  1  0.12973287  0.00799557  0.91143770  1
  O  O132  1  0.12363934  0.24214114  0.17183917  1
  O  O133  1  0.12972378  0.24485417  0.41803314  1
  O  O134  1  0.13029094  0.25062785  0.65029588  1
  O  O135  1  0.12811192  0.24632103  0.91266764  1
  O  O136  1  0.12336710  0.50390806  0.16824610  1
  O  O137  1  0.12642161  0.49787023  0.41255204  1
  O  O138  1  0.12660139  0.50268094  0.65699583  1
  O  O139  1  0.12729180  0.49916535  0.91937008  1
  O  O140  1  0.12385098  0.74797076  0.17276473  1
  O  O141  1  0.12452468  0.75008989  0.40873574  1
  O  O142  1  0.12570339  0.74799908  0.65468107  1
  O  O143  1  0.13028615  0.74902212  0.91606857  1
  O  O144  1  0.37291548  -0.00740938  0.17002237  1
  O  O145  1  0.38318315  0.01254624  0.41266595  1
  O  O146  1  0.37369573  0.00178453  0.64589624  1
  O  O147  1  0.37073063  -0.00463408  0.90634999  1
  O  O148  1  0.37431832  0.25726345  0.16683693  1
  O  O149  1  0.38415195  0.25343720  0.41924485  1
  O  O150  1  0.37504195  0.26002206  0.65641931  1
  O  O151  1  0.37236671  0.25801460  0.90931848  1
  O  O152  1  0.37546064  0.49291895  0.16843252  1
  O  O153  1  0.38441402  0.49591041  0.41596208  1
  O  O154  1  0.37814711  0.50495098  0.66143378  1
  O  O155  1  0.37228576  0.50099628  0.91384956  1
  O  O156  1  0.37239285  0.75557746  0.17170432  1
  O  O157  1  0.38467294  0.73606107  0.40690356  1
  O  O158  1  0.37845587  0.73844216  0.65604518  1
  O  O159  1  0.37161674  0.74646819  0.91367991  1
  O  O160  1  0.62508021  -0.00423761  0.16526065  1
  O  O161  1  0.62192404  0.00776758  0.41314764  1
  O  O162  1  0.62181416  -0.00223383  0.66374664  1
  O  O163  1  0.61933916  -0.00145008  0.90674780  1
  O  O164  1  0.62602696  0.25488913  0.16477595  1
  O  O165  1  0.62324891  0.25032647  0.41929782  1
  O  O166  1  0.62094774  0.25098965  0.66155517  1
  O  O167  1  0.62163552  0.25342920  0.90752648  1
  O  O168  1  0.62644828  0.49870702  0.16591600  1
  O  O169  1  0.62594783  0.49862820  0.41623797  1
  O  O170  1  0.62550374  0.50904972  0.66426966  1
  O  O171  1  0.62271699  0.49912526  0.91767238  1
  O  O172  1  0.62555424  0.75043018  0.16704567  1
  O  O173  1  0.62445754  0.74196238  0.40964853  1
  O  O174  1  0.62326682  0.74273964  0.66379764  1
  O  O175  1  0.61963579  0.74937914  0.91440109  1
  O  O176  1  0.87608670  -0.00033646  0.17003584  1
  O  O177  1  0.87127430  -0.00610439  0.41686202  1
  O  O178  1  0.87618044  -0.00843053  0.65578252  1
  O  O179  1  0.87911436  0.00291257  0.91105256  1
  O  O180  1  0.87476909  0.24889435  0.17123369  1
  O  O181  1  0.86992826  0.25636129  0.42113386  1
  O  O182  1  0.87599514  0.25112204  0.65354035  1
  O  O183  1  0.87717912  0.25507058  0.90894106  1
  O  O184  1  0.87450500  0.49931528  0.17033522  1
  O  O185  1  0.86805462  0.49316513  0.41322156  1
  O  O186  1  0.86986288  0.51003939  0.65692007  1
  O  O187  1  0.87704898  0.49151708  0.91045901  1
  O  O188  1  0.87573178  0.75121031  0.17040789  1
  O  O189  1  0.87062190  0.75740818  0.41118597  1
  O  O190  1  0.87292736  0.74784820  0.66251960  1
  O  O191  1  0.87752477  0.75097195  0.91367313  1
  O  O192  1  0.00167624  0.12430722  0.17276533  1
  O  O193  1  0.00198064  0.12580901  0.41417957  1
  O  O194  1  0.00306676  0.12253591  0.65152446  1
  O  O195  1  0.00954837  0.12744401  0.90944191  1
  O  O196  1  -0.00620047  0.37361762  0.17067188  1
  O  O197  1  -0.00720228  0.37242943  0.41090072  1
  O  O198  1  0.00012706  0.37978456  0.65411753  1
  O  O199  1  -0.00368355  0.37298044  0.91277859  1
  O  O200  1  0.00274686  0.62559553  0.17234891  1
  O  O201  1  -0.00726216  0.62340013  0.41302391  1
  O  O202  1  -0.00651746  0.62769290  0.65089193  1
  O  O203  1  0.00084732  0.62236233  0.91566412  1
  O  O204  1  -0.00088161  0.87614187  0.17348805  1
  O  O205  1  -0.00844654  0.87809293  0.41086580  1
  O  O206  1  -0.00573581  0.87047687  0.65433204  1
  O  O207  1  0.00581048  0.87739288  0.91350064  1
  O  O208  1  0.24379202  0.12337881  0.16952569  1
  O  O209  1  0.26245931  0.13191739  0.41261193  1
  O  O210  1  0.25776764  0.13023361  0.65686759  1
  O  O211  1  0.24567790  0.12755646  0.91494578  1
  O  O212  1  0.25384249  0.37507824  0.16717555  1
  O  O213  1  0.26306572  0.37348757  0.41364387  1
  O  O214  1  0.25900639  0.38197631  0.65719514  1
  O  O215  1  0.25616043  0.37722833  0.91668025  1
  O  O216  1  0.24438786  0.62605769  0.17025602  1
  O  O217  1  0.26297232  0.61765604  0.40588816  1
  O  O218  1  0.25772969  0.62229170  0.65027667  1
  O  O219  1  0.25531545  0.62290874  0.91805683  1
  O  O220  1  0.25051042  0.87504366  0.17379129  1
  O  O221  1  0.25300307  0.87535160  0.40963975  1
  O  O222  1  0.25406739  0.87092726  0.65644708  1
  O  O223  1  0.25802514  0.87320391  0.91991805  1
  O  O224  1  0.49853031  0.12510768  0.16741590  1
  O  O225  1  0.50296045  0.13102649  0.42012051  1
  O  O226  1  0.48796424  0.12925627  0.66212376  1
  O  O227  1  0.49536915  0.12659201  0.90897461  1
  O  O228  1  0.49890574  0.37554088  0.16360244  1
  O  O229  1  0.50265601  0.37498131  0.42107080  1
  O  O230  1  0.49205140  0.38235189  0.66311331  1
  O  O231  1  0.49006434  0.37979295  0.91106502  1
  O  O232  1  0.50353433  0.62349357  0.16723776  1
  O  O233  1  0.50656884  0.61736827  0.41653460  1
  O  O234  1  0.50145831  0.62323778  0.66041760  1
  O  O235  1  0.49034528  0.62356500  0.91548715  1
  O  O236  1  0.49662984  0.87348198  0.16655651  1
  O  O237  1  0.50568800  0.87409282  0.41753157  1
  O  O238  1  0.49537272  0.87046183  0.66111435  1
  O  O239  1  0.48651559  0.87106373  0.91287963  1
  O  O240  1  0.75263456  0.12425653  0.16597151  1
  O  O241  1  0.73888018  0.12736646  0.41830098  1
  O  O242  1  0.75185566  0.12121285  0.65752205  1
  O  O243  1  0.75031889  0.12641539  0.90349982  1
  O  O244  1  0.75199215  0.37544013  0.16791147  1
  O  O245  1  0.74574184  0.37301956  0.41890413  1
  O  O246  1  0.75145778  0.37927596  0.66612628  1
  O  O247  1  0.75655279  0.37464149  0.90634118  1
  O  O248  1  0.74767072  0.62547179  0.16901834  1
  O  O249  1  0.74173034  0.62231973  0.41476051  1
  O  O250  1  0.74754441  0.62869383  0.66167798  1
  O  O251  1  0.75210084  0.62323748  0.91271788  1
  O  O252  1  0.75241216  0.87461779  0.16750986  1
  O  O253  1  0.75169286  0.87626054  0.41515865  1
  O  O254  1  0.75663359  0.87097894  0.66305840  1
  O  O255  1  0.74954265  0.87524910  0.90611101  1
  O  O256  1  0.12503116  0.12287381  0.05555103  1
  O  O257  1  0.12797453  0.12911303  0.30804510  1
  O  O258  1  0.13705625  0.12303240  0.52137700  1
  O  O259  1  0.13018422  0.12678631  0.79363982  1
  O  O260  1  0.12292908  0.36629324  0.04340486  1
  O  O261  1  0.13388861  0.37140064  0.29269019  1
  O  O262  1  0.13085750  0.37918986  0.52432458  1
  O  O263  1  0.12665769  0.38557733  0.78428991  1
  O  O264  1  0.12496565  0.62648841  0.05772477  1
  O  O265  1  0.12217499  0.62191039  0.28911561  1
  O  O266  1  0.12504970  0.62086506  0.52319369  1
  O  O267  1  0.12939717  0.61885892  0.78300117  1
  O  O268  1  0.12737406  0.87901599  0.05951558  1
  O  O269  1  0.12662506  0.87886286  0.28753775  1
  O  O270  1  0.13123889  0.87373677  0.52495019  1
  O  O271  1  0.13742921  0.87482139  0.78329113  1
  O  O272  1  0.37131818  0.11998182  0.03955152  1
  O  O273  1  0.37998603  0.13161652  0.30050297  1
  O  O274  1  0.37726656  0.13010290  0.54377279  1
  O  O275  1  0.36786347  0.13198032  0.77951296  1
  O  O276  1  0.37135589  0.37541008  0.05048136  1
  O  O277  1  0.38146827  0.37330003  0.30309953  1
  O  O278  1  0.38012735  0.37946938  0.54360142  1
  O  O279  1  0.37119053  0.37691941  0.79549818  1
  O  O280  1  0.37393230  0.62658819  0.04269935  1
  O  O281  1  0.38336148  0.61536189  0.29677237  1
  O  O282  1  0.38158416  0.62021978  0.54105111  1
  O  O283  1  0.36960277  0.62671444  0.80003116  1
  O  O284  1  0.37150768  0.87329820  0.05605527  1
  O  O285  1  0.38533037  0.87863951  0.29381940  1
  O  O286  1  0.37687737  0.86533420  0.52253183  1
  O  O287  1  0.36891859  0.87306330  0.79534034  1
  O  O288  1  0.61849079  0.12678347  0.03522129  1
  O  O289  1  0.62209610  0.13009329  0.30260628  1
  O  O290  1  0.61765406  0.11835599  0.54040582  1
  O  O291  1  0.61754971  0.12441533  0.77416257  1
  O  O292  1  0.62736746  0.37481385  0.04746152  1
  O  O293  1  0.62494571  0.37318018  0.30321333  1
  O  O294  1  0.62917328  0.37966661  0.54141206  1
  O  O295  1  0.62054081  0.38914299  0.77874592  1
  O  O296  1  0.62392008  0.62533584  0.04847947  1
  O  O297  1  0.62329644  0.62140607  0.29869540  1
  O  O298  1  0.62683636  0.62561942  0.54882985  1
  O  O299  1  0.62006591  0.62044234  0.78431173  1
  O  O300  1  0.62416552  0.87450293  0.05175454  1
  O  O301  1  0.62179435  0.87545632  0.28487252  1
  O  O302  1  0.62783775  0.87154601  0.53944135  1
  O  O303  1  0.61340603  0.87124107  0.77806542  1
  O  O304  1  0.87899368  0.12688457  0.05143316  1
  O  O305  1  0.87015864  0.13241751  0.29810114  1
  O  O306  1  0.87855684  0.12096251  0.52646828  1
  O  O307  1  0.88198263  0.12019260  0.77577960  1
  O  O308  1  0.87541207  0.37303020  0.05116335  1
  O  O309  1  0.86766162  0.37067008  0.30393788  1
  O  O310  1  0.86617947  0.37532115  0.53090949  1
  O  O311  1  0.88001955  0.37458514  0.79206300  1
  O  O312  1  0.87645365  0.62407143  0.05654014  1
  O  O313  1  0.87179856  0.62175366  0.28484551  1
  O  O314  1  0.86904920  0.62894987  0.54514584  1
  O  O315  1  0.87891020  0.63371241  0.78061114  1
  O  O316  1  0.87870647  0.87623760  0.05104034  1
  O  O317  1  0.86952297  0.87950157  0.29718571  1
  O  O318  1  0.86953763  0.86992060  0.54562829  1
  O  O319  1  0.88336142  0.86879100  0.77887033  1
