# generated using pymatgen
data_VFe(PbO3)2
_symmetry_space_group_name_H-M   'P 1'
_cell_length_a   15.38145650
_cell_length_b   15.37891262
_cell_length_c   18.53655875
_cell_angle_alpha   90.01832916
_cell_angle_beta   89.96283145
_cell_angle_gamma   89.99895681
_symmetry_Int_Tables_number   1
_chemical_formula_structural   VFe(PbO3)2
_chemical_formula_sum   'V32 Fe32 Pb64 O192'
_cell_volume   4384.82322583
_cell_formula_units_Z   32
loop_
 _symmetry_equiv_pos_site_id
 _symmetry_equiv_pos_as_xyz
  1  'x, y, z'
loop_
 _atom_site_type_symbol
 _atom_site_label
 _atom_site_symmetry_multiplicity
 _atom_site_fract_x
 _atom_site_fract_y
 _atom_site_fract_z
 _atom_site_occupancy
  V  V0  1  0.87368023  0.87718209  0.64557735  1
  V  V1  1  0.62477871  0.62690844  0.88575321  1
  V  V2  1  0.87667362  0.37312722  0.89293685  1
  V  V3  1  0.37280227  0.12354757  0.64516928  1
  V  V4  1  0.37403652  0.37366531  0.38701223  1
  V  V5  1  0.87601815  0.62553062  0.64368723  1
  V  V6  1  0.87665358  0.62323900  0.38665421  1
  V  V7  1  0.87445249  0.12775980  0.89347390  1
  V  V8  1  0.87336340  0.37662414  0.13707311  1
  V  V9  1  0.37192478  0.87474988  0.88714538  1
  V  V10  1  0.87499689  0.37285913  0.64062752  1
  V  V11  1  0.62559926  0.12645046  0.64469952  1
  V  V12  1  0.12924073  0.37437598  0.14033650  1
  V  V13  1  0.12435355  0.37689469  0.63874629  1
  V  V14  1  0.12408003  0.62477876  0.64115337  1
  V  V15  1  0.87448541  0.87458596  0.38862859  1
  V  V16  1  0.37562215  0.37518432  0.64139536  1
  V  V17  1  0.37615522  0.87679492  0.64162785  1
  V  V18  1  0.38069565  0.37675163  0.13658891  1
  V  V19  1  0.12343051  0.87433928  0.38786362  1
  V  V20  1  0.12393115  0.37586993  0.89347362  1
  V  V21  1  0.12455757  0.12633135  0.89100499  1
  V  V22  1  0.12167594  0.87593477  0.13247785  1
  V  V23  1  0.62240077  0.87700976  0.13471513  1
  V  V24  1  0.62490028  0.87415220  0.64622229  1
  V  V25  1  0.62821608  0.37503268  0.38794496  1
  V  V26  1  0.37237144  0.87223116  0.13985613  1
  V  V27  1  0.62356705  0.37493319  0.89097704  1
  V  V28  1  0.12490841  0.87393225  0.64579100  1
  V  V29  1  0.12348688  0.12492042  0.38907026  1
  V  V30  1  0.12494676  0.62599308  0.89171307  1
  V  V31  1  0.62399642  0.62484160  0.13803894  1
  Fe  Fe32  1  0.87453382  0.62015515  0.89523688  1
  Fe  Fe33  1  0.37496618  0.87789707  0.38199349  1
  Fe  Fe34  1  0.62704730  0.62447366  0.63708201  1
  Fe  Fe35  1  0.62533942  0.12473177  0.89460144  1
  Fe  Fe36  1  0.12410365  0.12564620  0.63717182  1
  Fe  Fe37  1  0.12757782  0.87610725  0.88505463  1
  Fe  Fe38  1  0.37282881  0.62686454  0.64043568  1
  Fe  Fe39  1  0.37083296  0.37476640  0.88528286  1
  Fe  Fe40  1  0.87457047  0.62617728  0.12716604  1
  Fe  Fe41  1  0.87406607  0.12311930  0.38426190  1
  Fe  Fe42  1  0.37663149  0.12588068  0.38210361  1
  Fe  Fe43  1  0.62411710  0.12720522  0.12744892  1
  Fe  Fe44  1  0.12323850  0.37616415  0.38146258  1
  Fe  Fe45  1  0.87583711  0.37479657  0.38013907  1
  Fe  Fe46  1  0.12590721  0.12299067  0.13449820  1
  Fe  Fe47  1  0.37617024  0.62454343  0.14173794  1
  Fe  Fe48  1  0.87683185  0.12301042  0.13225840  1
  Fe  Fe49  1  0.37358844  0.12717420  0.88307356  1
  Fe  Fe50  1  0.37502680  0.62474334  0.38212566  1
  Fe  Fe51  1  0.62546442  0.12398180  0.38211249  1
  Fe  Fe52  1  0.87470296  0.12355464  0.63720137  1
  Fe  Fe53  1  0.37479201  0.62242522  0.88257758  1
  Fe  Fe54  1  0.87697856  0.87482879  0.89187318  1
  Fe  Fe55  1  0.87138242  0.87269569  0.12616750  1
  Fe  Fe56  1  0.37359824  0.12552168  0.13805259  1
  Fe  Fe57  1  0.62715804  0.62519150  0.38706510  1
  Fe  Fe58  1  0.62567147  0.87494647  0.38136323  1
  Fe  Fe59  1  0.62232000  0.87436156  0.88352397  1
  Fe  Fe60  1  0.62444351  0.37714842  0.13099329  1
  Fe  Fe61  1  0.62611913  0.37603979  0.63831084  1
  Fe  Fe62  1  0.12601808  0.62541198  0.13694239  1
  Fe  Fe63  1  0.12329224  0.62709659  0.38093679  1
  Pb  Pb64  1  -0.00248330  0.00270516  0.00101855  1
  Pb  Pb65  1  -0.00995322  0.00653374  0.24406039  1
  Pb  Pb66  1  -0.00016812  0.00942757  0.50529911  1
  Pb  Pb67  1  -0.00144217  -0.00737560  0.75460270  1
  Pb  Pb68  1  0.00133137  0.24072846  0.00803149  1
  Pb  Pb69  1  -0.00385376  0.25649014  0.24912682  1
  Pb  Pb70  1  -0.00468511  0.24783661  0.49668682  1
  Pb  Pb71  1  0.00118117  0.24611531  0.74733701  1
  Pb  Pb72  1  0.00155871  0.50553783  0.00664801  1
  Pb  Pb73  1  0.00053345  0.49348430  0.24770635  1
  Pb  Pb74  1  0.00320028  0.49668228  0.49321885  1
  Pb  Pb75  1  -0.00509397  0.50657733  0.75509984  1
  Pb  Pb76  1  -0.00549331  0.75164137  -0.00165008  1
  Pb  Pb77  1  -0.00132237  0.74295945  0.23913046  1
  Pb  Pb78  1  0.00009280  0.75290369  0.49930708  1
  Pb  Pb79  1  -0.00732034  0.75382455  0.76128458  1
  Pb  Pb80  1  0.25252753  0.00943287  0.00174156  1
  Pb  Pb81  1  0.25916323  -0.00074167  0.24973015  1
  Pb  Pb82  1  0.24660459  0.00360454  0.49787809  1
  Pb  Pb83  1  0.24554047  -0.00262646  0.75273806  1
  Pb  Pb84  1  0.25494158  0.24321688  0.00257474  1
  Pb  Pb85  1  0.25183924  0.24640269  0.24743096  1
  Pb  Pb86  1  0.24382577  0.24641197  0.49765029  1
  Pb  Pb87  1  0.25706139  0.25260208  0.75322943  1
  Pb  Pb88  1  0.25281642  0.50809928  0.00470773  1
  Pb  Pb89  1  0.24743623  0.50762415  0.25112980  1
  Pb  Pb90  1  0.25275464  0.50606408  0.49526829  1
  Pb  Pb91  1  0.25699585  0.49921003  0.75312212  1
  Pb  Pb92  1  0.25016184  0.73850895  0.00359401  1
  Pb  Pb93  1  0.25054361  0.74258936  0.25110232  1
  Pb  Pb94  1  0.25967215  0.74150867  0.49732596  1
  Pb  Pb95  1  0.24744867  0.74874902  0.75284527  1
  Pb  Pb96  1  0.49946365  0.00588723  -0.00427227  1
  Pb  Pb97  1  0.49835267  -0.00049779  0.24754382  1
  Pb  Pb98  1  0.50052588  -0.00059952  0.49026524  1
  Pb  Pb99  1  0.50611165  0.00546334  0.75833671  1
  Pb  Pb100  1  0.49794774  0.24254050  -0.00149212  1
  Pb  Pb101  1  0.50777379  0.23780043  0.24504133  1
  Pb  Pb102  1  0.50389266  0.25314625  0.49689231  1
  Pb  Pb103  1  0.49197636  0.24858497  0.75655503  1
  Pb  Pb104  1  0.49619819  0.49840354  -0.00300075  1
  Pb  Pb105  1  0.50173630  0.51312887  0.25428717  1
  Pb  Pb106  1  0.50309357  0.50441168  0.50009448  1
  Pb  Pb107  1  0.49874456  0.50399920  0.74704621  1
  Pb  Pb108  1  0.48971074  0.74488358  -0.00113926  1
  Pb  Pb109  1  0.50232465  0.75910541  0.25529861  1
  Pb  Pb110  1  0.49800930  0.74617577  0.49205326  1
  Pb  Pb111  1  0.50142754  0.74764274  0.74799367  1
  Pb  Pb112  1  0.75127550  -0.00251299  -0.00282212  1
  Pb  Pb113  1  0.75017123  0.00948757  0.24424980  1
  Pb  Pb114  1  0.75101281  0.00514611  0.49684460  1
  Pb  Pb115  1  0.73999290  -0.00021738  0.76132156  1
  Pb  Pb116  1  0.74167750  0.24968982  0.00633737  1
  Pb  Pb117  1  0.74872480  0.24215975  0.24387683  1
  Pb  Pb118  1  0.75603535  0.24653788  0.49557482  1
  Pb  Pb119  1  0.74203983  0.24394423  0.75549893  1
  Pb  Pb120  1  0.74573423  0.49451253  0.00123382  1
  Pb  Pb121  1  0.74828592  0.50412507  0.24638854  1
  Pb  Pb122  1  0.73693045  0.49687997  0.50598629  1
  Pb  Pb123  1  0.75371733  0.50510326  0.75205083  1
  Pb  Pb124  1  0.75710178  0.75264217  -0.00386013  1
  Pb  Pb125  1  0.74176268  0.75200152  0.24584033  1
  Pb  Pb126  1  0.74293435  0.74560018  0.50056163  1
  Pb  Pb127  1  0.75880098  0.75595640  0.75851307  1
  O  O128  1  0.13009850  -0.01048393  0.16122192  1
  O  O129  1  0.12312410  0.00115751  0.41524185  1
  O  O130  1  0.12430267  -0.00400070  0.66835310  1
  O  O131  1  0.12494397  0.00867972  0.90996557  1
  O  O132  1  0.12339147  0.25565782  0.16204938  1
  O  O133  1  0.12413086  0.24396455  0.41142611  1
  O  O134  1  0.12330617  0.25701874  0.66461572  1
  O  O135  1  0.12355050  0.24917204  0.91624463  1
  O  O136  1  0.12423002  0.49353968  0.16130752  1
  O  O137  1  0.12218858  0.50186474  0.41213163  1
  O  O138  1  0.12346314  0.49853528  0.66767697  1
  O  O139  1  0.12344616  0.49617950  0.91601654  1
  O  O140  1  0.13146805  0.76035033  0.16130336  1
  O  O141  1  0.12096334  0.75756822  0.41155667  1
  O  O142  1  0.12416314  0.74939103  0.67008194  1
  O  O143  1  0.12856846  0.74256755  0.90870582  1
  O  O144  1  0.37862053  -0.00728463  0.16155009  1
  O  O145  1  0.37148055  0.00229478  0.41528957  1
  O  O146  1  0.37552578  -0.00315416  0.66857308  1
  O  O147  1  0.37299532  -0.00495321  0.90901170  1
  O  O148  1  0.37078185  0.25999359  0.16169933  1
  O  O149  1  0.37544060  0.25590317  0.41556428  1
  O  O150  1  0.37472582  0.25202082  0.66662943  1
  O  O151  1  0.37133664  0.25202067  0.91538647  1
  O  O152  1  0.37149525  0.49158971  0.16418200  1
  O  O153  1  0.37503771  0.49109672  0.41317660  1
  O  O154  1  0.37185584  0.49379842  0.66219740  1
  O  O155  1  0.37489514  0.49860933  0.91458076  1
  O  O156  1  0.37858808  0.75560347  0.16376117  1
  O  O157  1  0.37137068  0.75188529  0.41090208  1
  O  O158  1  0.37360899  0.75900424  0.66494310  1
  O  O159  1  0.37313320  0.75118243  0.91122184  1
  O  O160  1  0.62042984  -0.00677581  0.14998301  1
  O  O161  1  0.62792834  -0.00153505  0.41279265  1
  O  O162  1  0.62544332  0.00357115  0.67060750  1
  O  O163  1  0.62277834  -0.00240138  0.91563141  1
  O  O164  1  0.62668566  0.25344136  0.15914160  1
  O  O165  1  0.62525986  0.25816480  0.41249606  1
  O  O166  1  0.62599498  0.24605120  0.66662881  1
  O  O167  1  0.62889082  0.25732710  0.91317835  1
  O  O168  1  0.62602668  0.50441515  0.16281569  1
  O  O169  1  0.62548838  0.49491162  0.41514655  1
  O  O170  1  0.62740727  0.49927810  0.66972152  1
  O  O171  1  0.62541115  0.49827447  0.91217028  1
  O  O172  1  0.62203728  0.74592238  0.16139897  1
  O  O173  1  0.62934258  0.75058392  0.41640183  1
  O  O174  1  0.62561883  0.75332149  0.66755370  1
  O  O175  1  0.62196803  0.74262196  0.90738951  1
  O  O176  1  0.87335605  -0.00587793  0.16047446  1
  O  O177  1  0.87889515  -0.00821394  0.41418740  1
  O  O178  1  0.87500191  -0.00633697  0.66597273  1
  O  O179  1  0.87891684  0.00919858  0.90984062  1
  O  O180  1  0.87765861  0.25699269  0.15667601  1
  O  O181  1  0.87533272  0.24980690  0.41251397  1
  O  O182  1  0.87569990  0.25584391  0.66300756  1
  O  O183  1  0.87867566  0.24987458  0.92046373  1
  O  O184  1  0.87655864  0.49708486  0.15921000  1
  O  O185  1  0.87932067  0.50786018  0.40559523  1
  O  O186  1  0.87725367  0.49792954  0.66764980  1
  O  O187  1  0.87827581  0.49145717  0.91818201  1
  O  O188  1  0.87180720  0.75077447  0.15852273  1
  O  O189  1  0.87977402  0.75447044  0.41644987  1
  O  O190  1  0.87686682  0.75228303  0.67054498  1
  O  O191  1  0.87572340  0.74611557  0.91343143  1
  O  O192  1  0.00207632  0.12251093  0.16311209  1
  O  O193  1  0.00453968  0.12210472  0.41311493  1
  O  O194  1  -0.00122008  0.12446136  0.66857149  1
  O  O195  1  0.00195533  0.12908626  0.91522188  1
  O  O196  1  -0.00009055  0.37640647  0.16029026  1
  O  O197  1  -0.00078213  0.37441695  0.41703520  1
  O  O198  1  -0.00387893  0.37680116  0.66569733  1
  O  O199  1  0.00481467  0.37253487  0.92061207  1
  O  O200  1  0.00004764  0.62749467  0.15686094  1
  O  O201  1  -0.00574546  0.63100592  0.41455118  1
  O  O202  1  0.00040794  0.62489524  0.67248170  1
  O  O203  1  0.00832726  0.62030926  0.91544919  1
  O  O204  1  0.00599233  0.87245331  0.14857553  1
  O  O205  1  0.00170318  0.87718741  0.41913103  1
  O  O206  1  -0.00351521  0.87356516  0.66828622  1
  O  O207  1  0.00489169  0.87447979  0.91395365  1
  O  O208  1  0.24871021  0.12458156  0.16736077  1
  O  O209  1  0.24406534  0.12546466  0.41363736  1
  O  O210  1  0.25157201  0.12476260  0.66618698  1
  O  O211  1  0.24428683  0.12695460  0.91079541  1
  O  O212  1  0.24724316  0.37520581  0.16154916  1
  O  O213  1  0.25469459  0.37244262  0.40919091  1
  O  O214  1  0.25112737  0.37409329  0.66407625  1
  O  O215  1  0.23983734  0.37447216  0.91572573  1
  O  O216  1  0.25075798  0.62535813  0.16656751  1
  O  O217  1  0.24854621  0.62476666  0.41272394  1
  O  O218  1  0.24371940  0.62524903  0.66813895  1
  O  O219  1  0.24530084  0.61964544  0.91361098  1
  O  O220  1  0.25562055  0.87494774  0.15913539  1
  O  O221  1  0.23905704  0.87923989  0.40994054  1
  O  O222  1  0.25403067  0.87664149  0.66732295  1
  O  O223  1  0.25559683  0.87403269  0.91424117  1
  O  O224  1  0.49970685  0.12661536  0.15825088  1
  O  O225  1  0.50113426  0.12868163  0.41360010  1
  O  O226  1  0.50432157  0.12478725  0.66796809  1
  O  O227  1  0.49742797  0.12742950  0.91208640  1
  O  O228  1  0.49492259  0.37716844  0.15635708  1
  O  O229  1  0.50003673  0.37551293  0.41389278  1
  O  O230  1  0.49385613  0.37350005  0.66330277  1
  O  O231  1  0.50637206  0.37508398  0.90897850  1
  O  O232  1  0.50543126  0.62240750  0.16392290  1
  O  O233  1  0.49977410  0.62252090  0.41167340  1
  O  O234  1  0.49945537  0.62526976  0.66378600  1
  O  O235  1  0.50608509  0.62076498  0.91128824  1
  O  O236  1  0.50199303  0.87103738  0.16368048  1
  O  O237  1  0.50005370  0.87420283  0.41347262  1
  O  O238  1  0.49587017  0.87763459  0.66620837  1
  O  O239  1  0.49054292  0.87254747  0.91314770  1
  O  O240  1  0.74962179  0.12401878  0.15687357  1
  O  O241  1  0.74966120  0.12451760  0.41618723  1
  O  O242  1  0.74607823  0.12438541  0.66839458  1
  O  O243  1  0.75839134  0.12877132  0.91347469  1
  O  O244  1  0.75599881  0.37821048  0.15795249  1
  O  O245  1  0.74596883  0.37729546  0.40860723  1
  O  O246  1  0.75866270  0.37617319  0.66610445  1
  O  O247  1  0.75039871  0.37546143  0.91583299  1
  O  O248  1  0.74424103  0.62443269  0.15931988  1
  O  O249  1  0.76153249  0.62904117  0.41412964  1
  O  O250  1  0.75634213  0.62621403  0.66904547  1
  O  O251  1  0.74038041  0.62017541  0.91153395  1
  O  O252  1  0.73929482  0.87009304  0.15321195  1
  O  O253  1  0.75969466  0.87348289  0.41162616  1
  O  O254  1  0.75388222  0.87363235  0.66852231  1
  O  O255  1  0.74783446  0.87463082  0.91182890  1
  O  O256  1  0.12785518  0.12328867  0.03425648  1
  O  O257  1  0.12388446  0.12209674  0.29858933  1
  O  O258  1  0.12578042  0.12306370  0.53750566  1
  O  O259  1  0.12106852  0.13041521  0.79995118  1
  O  O260  1  0.12750549  0.37448135  0.04924618  1
  O  O261  1  0.11449632  0.37439771  0.28248543  1
  O  O262  1  0.12402676  0.37755055  0.54777000  1
  O  O263  1  0.12191039  0.37546182  0.80278287  1
  O  O264  1  0.13447822  0.62414702  0.03567737  1
  O  O265  1  0.12702705  0.63186181  0.28108999  1
  O  O266  1  0.12228066  0.62571419  0.55033232  1
  O  O267  1  0.12471993  0.62008843  0.80053934  1
  O  O268  1  0.13079746  0.87551950  0.04143665  1
  O  O269  1  0.11835804  0.87716789  0.29771980  1
  O  O270  1  0.12502442  0.87315317  0.55493380  1
  O  O271  1  0.12845088  0.87770069  0.78470802  1
  O  O272  1  0.36517197  0.12500084  0.03657490  1
  O  O273  1  0.37363134  0.12408756  0.28189746  1
  O  O274  1  0.37588688  0.12597602  0.55439195  1
  O  O275  1  0.37701515  0.13381184  0.78235324  1
  O  O276  1  0.37547017  0.37824014  0.04504618  1
  O  O277  1  0.37846656  0.37309353  0.29679106  1
  O  O278  1  0.37396044  0.37211672  0.55073975  1
  O  O279  1  0.36867966  0.37101157  0.78483048  1
  O  O280  1  0.37322018  0.62725061  0.04002076  1
  O  O281  1  0.37457898  0.61822673  0.28114315  1
  O  O282  1  0.36453510  0.62735707  0.54023911  1
  O  O283  1  0.37063698  0.62071020  0.78222204  1
  O  O284  1  0.37707156  0.87166522  0.04863480  1
  O  O285  1  0.37964753  0.88172972  0.28196156  1
  O  O286  1  0.37451837  0.87824217  0.55123962  1
  O  O287  1  0.37175984  0.87362750  0.79610264  1
  O  O288  1  0.62506914  0.13167323  0.02522986  1
  O  O289  1  0.62946670  0.13147077  0.28194015  1
  O  O290  1  0.62633795  0.12386576  0.55410076  1
  O  O291  1  0.63242976  0.12294892  0.79257575  1
  O  O292  1  0.62940111  0.37891571  0.03139952  1
  O  O293  1  0.62488283  0.37685388  0.29724408  1
  O  O294  1  0.62807278  0.38159710  0.53899230  1
  O  O295  1  0.62877400  0.37452612  0.79970611  1
  O  O296  1  0.62199094  0.62519230  0.04710961  1
  O  O297  1  0.63061393  0.62044113  0.28718789  1
  O  O298  1  0.63489055  0.61924068  0.53656002  1
  O  O299  1  0.62433196  0.62371344  0.79449568  1
  O  O300  1  0.61550054  0.86780961  0.04419356  1
  O  O301  1  0.62491155  0.86833366  0.28101262  1
  O  O302  1  0.62742942  0.87838512  0.55567471  1
  O  O303  1  0.62344379  0.88205598  0.78293779  1
  O  O304  1  0.88470244  0.12217685  0.03194201  1
  O  O305  1  0.87110958  0.11429924  0.28417585  1
  O  O306  1  0.87580116  0.12124200  0.53746541  1
  O  O307  1  0.87744994  0.13333796  0.80226208  1
  O  O308  1  0.87598514  0.37834082  0.04576443  1
  O  O309  1  0.88315432  0.37495153  0.28093586  1
  O  O310  1  0.87581467  0.37608913  0.54971921  1
  O  O311  1  0.87691342  0.37090486  0.80202658  1
  O  O312  1  0.87602031  0.62335519  0.02635691  1
  O  O313  1  0.87678697  0.63007344  0.29572821  1
  O  O314  1  0.87883917  0.62589392  0.55310780  1
  O  O315  1  0.87902751  0.61898021  0.79380306  1
  O  O316  1  0.87210117  0.87489729  0.02498070  1
  O  O317  1  0.87740171  0.87284011  0.29809914  1
  O  O318  1  0.87407292  0.87303791  0.55495676  1
  O  O319  1  0.87857956  0.86977577  0.78957773  1
