# generated using pymatgen
data_VFe(PbO3)2
_symmetry_space_group_name_H-M   'P 1'
_cell_length_a   15.38327822
_cell_length_b   15.38570419
_cell_length_c   18.53151577
_cell_angle_alpha   89.94928443
_cell_angle_beta   89.97400332
_cell_angle_gamma   89.99555293
_symmetry_Int_Tables_number   1
_chemical_formula_structural   VFe(PbO3)2
_chemical_formula_sum   'V32 Fe32 Pb64 O192'
_cell_volume   4386.08455869
_cell_formula_units_Z   32
loop_
 _symmetry_equiv_pos_site_id
 _symmetry_equiv_pos_as_xyz
  1  'x, y, z'
loop_
 _atom_site_type_symbol
 _atom_site_label
 _atom_site_symmetry_multiplicity
 _atom_site_fract_x
 _atom_site_fract_y
 _atom_site_fract_z
 _atom_site_occupancy
  V  V0  1  0.12644040  0.62280383  0.14510234  1
  V  V1  1  0.37327485  0.12425713  0.13933276  1
  V  V2  1  0.86998238  0.12555962  0.40053745  1
  V  V3  1  0.87372864  0.12714181  0.89030820  1
  V  V4  1  0.87549570  0.87596666  0.89137888  1
  V  V5  1  0.62438414  0.87983170  0.38847527  1
  V  V6  1  0.62871394  0.12429276  0.88598921  1
  V  V7  1  0.12345245  0.62628070  0.88860081  1
  V  V8  1  0.87620238  0.37474164  0.39105981  1
  V  V9  1  0.37345002  0.62235467  0.63375093  1
  V  V10  1  0.37433394  0.87687021  0.14557221  1
  V  V11  1  0.62636558  0.62842690  0.89114082  1
  V  V12  1  0.87565255  0.87542956  0.63263284  1
  V  V13  1  0.62553971  0.62260671  0.38377902  1
  V  V14  1  0.62848541  0.87510754  0.88862872  1
  V  V15  1  0.62418867  0.12307691  0.14204129  1
  V  V16  1  0.37108272  0.12733355  0.39669715  1
  V  V17  1  0.12548482  0.87550156  0.14849694  1
  V  V18  1  0.62250492  0.62438129  0.63799023  1
  V  V19  1  0.37367699  0.37467225  0.38917023  1
  V  V20  1  0.12590729  0.37046084  0.39164920  1
  V  V21  1  0.87449168  0.62514987  0.63422083  1
  V  V22  1  0.37675185  0.37505636  0.64351847  1
  V  V23  1  0.87569843  0.37485317  0.14005827  1
  V  V24  1  0.87624629  0.12717445  0.13807686  1
  V  V25  1  0.12457023  0.12554314  0.63862008  1
  V  V26  1  0.37440433  0.62701206  0.14532108  1
  V  V27  1  0.62857349  0.37788176  0.88987708  1
  V  V28  1  0.62372402  0.62763900  0.14151486  1
  V  V29  1  0.12422993  0.87255560  0.88902028  1
  V  V30  1  0.12295612  0.12840298  0.39449898  1
  V  V31  1  0.12599232  0.12237933  0.13744387  1
  Fe  Fe32  1  0.62771240  0.86949154  0.63122393  1
  Fe  Fe33  1  0.37574160  0.62706958  0.88728540  1
  Fe  Fe34  1  0.37720854  0.12277248  0.87707378  1
  Fe  Fe35  1  0.62136988  0.12844981  0.39472320  1
  Fe  Fe36  1  0.87315950  0.62334712  0.37731148  1
  Fe  Fe37  1  0.12376703  0.62477045  0.62760673  1
  Fe  Fe38  1  0.87413854  0.37701456  0.63296556  1
  Fe  Fe39  1  0.37585619  0.12529977  0.63895088  1
  Fe  Fe40  1  0.87387907  0.87868063  0.14934440  1
  Fe  Fe41  1  0.87359749  0.87697236  0.37866015  1
  Fe  Fe42  1  0.62281605  0.37435498  0.14141661  1
  Fe  Fe43  1  0.37592819  0.37693812  0.88432488  1
  Fe  Fe44  1  0.37679985  0.87175170  0.62573495  1
  Fe  Fe45  1  0.62605038  0.12482271  0.62803612  1
  Fe  Fe46  1  0.12250766  0.37439286  0.88000686  1
  Fe  Fe47  1  0.62385997  0.37330839  0.38500779  1
  Fe  Fe48  1  0.12408060  0.62120472  0.38665056  1
  Fe  Fe49  1  0.12733995  0.37869288  0.64065744  1
  Fe  Fe50  1  0.12427202  0.37240893  0.13487081  1
  Fe  Fe51  1  0.87380407  0.37647893  0.88317694  1
  Fe  Fe52  1  0.12402982  0.87105898  0.62675523  1
  Fe  Fe53  1  0.12379143  0.87822106  0.39052491  1
  Fe  Fe54  1  0.87649172  0.12431792  0.62459196  1
  Fe  Fe55  1  0.87520921  0.62688240  0.88982061  1
  Fe  Fe56  1  0.37354335  0.37398739  0.13408666  1
  Fe  Fe57  1  0.62463783  0.38015875  0.63398262  1
  Fe  Fe58  1  0.12204087  0.11979592  0.88088669  1
  Fe  Fe59  1  0.37656658  0.87180225  0.88210160  1
  Fe  Fe60  1  0.87469047  0.62562870  0.14598373  1
  Fe  Fe61  1  0.62054112  0.87495441  0.13873127  1
  Fe  Fe62  1  0.37596914  0.87519398  0.39563528  1
  Fe  Fe63  1  0.37528956  0.62182243  0.38305329  1
  Pb  Pb64  1  -0.00755221  -0.00708569  0.00370891  1
  Pb  Pb65  1  0.00176608  -0.00504385  0.25741527  1
  Pb  Pb66  1  -0.00157601  -0.00433693  0.49921213  1
  Pb  Pb67  1  0.00746239  0.00438727  0.74515011  1
  Pb  Pb68  1  0.00957594  0.25664460  -0.00520887  1
  Pb  Pb69  1  -0.00234287  0.24601723  0.24916619  1
  Pb  Pb70  1  -0.00953235  0.25557287  0.50920928  1
  Pb  Pb71  1  -0.00256930  0.25761271  0.74437488  1
  Pb  Pb72  1  0.00023339  0.49707671  -0.00262209  1
  Pb  Pb73  1  0.00240353  0.50802636  0.25593822  1
  Pb  Pb74  1  0.00472574  0.50012530  0.49998727  1
  Pb  Pb75  1  0.00276611  0.49286933  0.74778870  1
  Pb  Pb76  1  -0.01046787  0.74891891  0.00952278  1
  Pb  Pb77  1  0.00130471  0.74531723  0.25741179  1
  Pb  Pb78  1  0.00195930  0.74713830  0.48539558  1
  Pb  Pb79  1  0.00043255  0.74434057  0.74320618  1
  Pb  Pb80  1  0.25447854  0.00388592  -0.00904725  1
  Pb  Pb81  1  0.24903802  -0.00949628  0.26244657  1
  Pb  Pb82  1  0.25124886  -0.01001478  0.50501647  1
  Pb  Pb83  1  0.25601585  -0.00472453  0.74144352  1
  Pb  Pb84  1  0.25010394  0.25166480  -0.01292744  1
  Pb  Pb85  1  0.24942996  0.25234214  0.24481208  1
  Pb  Pb86  1  0.24960056  0.25226876  0.50927255  1
  Pb  Pb87  1  0.24842347  0.23904634  0.75442184  1
  Pb  Pb88  1  0.25418764  0.48709674  -0.00198717  1
  Pb  Pb89  1  0.24946387  0.50541988  0.25208702  1
  Pb  Pb90  1  0.23925164  0.49986889  0.50227280  1
  Pb  Pb91  1  0.24814308  0.49500161  0.75265371  1
  Pb  Pb92  1  0.25247225  0.74830128  -0.00087168  1
  Pb  Pb93  1  0.24707222  0.75199608  0.26302299  1
  Pb  Pb94  1  0.24503554  0.74721449  0.48945545  1
  Pb  Pb95  1  0.25567158  0.75340727  0.74050653  1
  Pb  Pb96  1  0.50403480  -0.00394012  -0.00625002  1
  Pb  Pb97  1  0.49368265  -0.00058172  0.25704829  1
  Pb  Pb98  1  0.49156597  0.00832371  0.50921700  1
  Pb  Pb99  1  0.49638731  -0.00483766  0.73752824  1
  Pb  Pb100  1  0.49638064  0.25395947  -0.00433707  1
  Pb  Pb101  1  0.50768828  0.24877284  0.25479158  1
  Pb  Pb102  1  0.50123244  0.24618696  0.50479603  1
  Pb  Pb103  1  0.50152138  0.24571197  0.74422981  1
  Pb  Pb104  1  0.49762040  0.49114319  0.00298522  1
  Pb  Pb105  1  0.49603872  0.49779929  0.24745216  1
  Pb  Pb106  1  0.50576789  0.49482367  0.49715722  1
  Pb  Pb107  1  0.49006635  0.50336658  0.75675612  1
  Pb  Pb108  1  0.50594336  0.75480141  0.00048433  1
  Pb  Pb109  1  0.48659252  0.75230671  0.25872955  1
  Pb  Pb110  1  0.49912572  0.75459695  0.49658932  1
  Pb  Pb111  1  0.49276290  0.75264784  0.74778952  1
  Pb  Pb112  1  0.74998678  -0.01013985  0.00598410  1
  Pb  Pb113  1  0.75026190  0.00036524  0.25205966  1
  Pb  Pb114  1  0.73748172  -0.00110087  0.50372153  1
  Pb  Pb115  1  0.74759214  0.00218652  0.73842877  1
  Pb  Pb116  1  0.74170232  0.25535930  0.00239927  1
  Pb  Pb117  1  0.73823630  0.24617718  0.25841695  1
  Pb  Pb118  1  0.74332103  0.25569506  0.50406090  1
  Pb  Pb119  1  0.75398645  0.25296503  0.73567798  1
  Pb  Pb120  1  0.75532399  0.50441308  0.00267921  1
  Pb  Pb121  1  0.74805330  0.49702245  0.24958330  1
  Pb  Pb122  1  0.75098889  0.49011148  0.49954952  1
  Pb  Pb123  1  0.75987818  0.49956503  0.74996695  1
  Pb  Pb124  1  0.76113525  0.75140696  0.01140137  1
  Pb  Pb125  1  0.75573471  0.75405734  0.24886719  1
  Pb  Pb126  1  0.74785432  0.75333430  0.49115666  1
  Pb  Pb127  1  0.75709401  0.74245625  0.75001050  1
  O  O128  1  0.12832630  0.00038316  0.17020587  1
  O  O129  1  0.12780994  0.01274296  0.41568920  1
  O  O130  1  0.12397735  0.00119046  0.65912270  1
  O  O131  1  0.12015061  -0.01013590  0.91402683  1
  O  O132  1  0.12575656  0.24329512  0.16425876  1
  O  O133  1  0.12811340  0.24905292  0.42346753  1
  O  O134  1  0.12573237  0.24426888  0.66118878  1
  O  O135  1  0.12146145  0.24632670  0.90739476  1
  O  O136  1  0.12542350  0.50483928  0.16193308  1
  O  O137  1  0.12462891  0.49012376  0.41260649  1
  O  O138  1  0.12717198  0.50594535  0.66594272  1
  O  O139  1  0.12251154  0.51015481  0.90831218  1
  O  O140  1  0.12733860  0.75482026  0.16959347  1
  O  O141  1  0.12364996  0.74932209  0.40540677  1
  O  O142  1  0.12160833  0.74712065  0.66006632  1
  O  O143  1  0.12146334  0.75452238  0.91891535  1
  O  O144  1  0.37443592  0.00402629  0.17049245  1
  O  O145  1  0.37382214  0.01014885  0.41496267  1
  O  O146  1  0.37484325  -0.00304871  0.65603062  1
  O  O147  1  0.37711883  -0.00329095  0.91027484  1
  O  O148  1  0.37281897  0.24069510  0.16046448  1
  O  O149  1  0.37195055  0.25348984  0.42093283  1
  O  O150  1  0.37550483  0.25788380  0.66240659  1
  O  O151  1  0.37824096  0.24863567  0.90875700  1
  O  O152  1  0.37171038  0.50478185  0.16449145  1
  O  O153  1  0.37568818  0.49077843  0.41059826  1
  O  O154  1  0.37886560  0.50539841  0.66456272  1
  O  O155  1  0.37761600  0.50386616  0.91854939  1
  O  O156  1  0.37262109  0.75263523  0.17248559  1
  O  O157  1  0.37963862  0.74628951  0.41149973  1
  O  O158  1  0.38035151  0.74042883  0.65597217  1
  O  O159  1  0.37652311  0.75026931  0.92096507  1
  O  O160  1  0.61997019  0.00794910  0.16738187  1
  O  O161  1  0.62600712  -0.00353953  0.41011095  1
  O  O162  1  0.62824499  -0.00412495  0.65928138  1
  O  O163  1  0.62864749  -0.00089087  0.91461843  1
  O  O164  1  0.62231772  0.24187797  0.16723264  1
  O  O165  1  0.62418245  0.25317288  0.41940414  1
  O  O166  1  0.62456973  0.25285260  0.65639836  1
  O  O167  1  0.62848877  0.25177860  0.91296694  1
  O  O168  1  0.62339359  0.50540559  0.16593612  1
  O  O169  1  0.62490494  0.50262683  0.40775636  1
  O  O170  1  0.62807654  0.51067282  0.66637232  1
  O  O171  1  0.62886637  0.49831443  0.91269481  1
  O  O172  1  0.62210206  0.74432532  0.16519320  1
  O  O173  1  0.62638658  0.74839565  0.40724532  1
  O  O174  1  0.62916649  0.74076093  0.66432179  1
  O  O175  1  0.62671115  0.74744174  0.91461170  1
  O  O176  1  0.87421674  0.01079944  0.16830794  1
  O  O177  1  0.87659103  0.00776314  0.41257280  1
  O  O178  1  0.87626783  -0.00747660  0.65323338  1
  O  O179  1  0.87224506  -0.00067792  0.92078871  1
  O  O180  1  0.87525074  0.24796270  0.16801013  1
  O  O181  1  0.87766908  0.25117808  0.41930330  1
  O  O182  1  0.87751303  0.24841255  0.65594972  1
  O  O183  1  0.87184133  0.24259522  0.91004050  1
  O  O184  1  0.87582263  0.49156447  0.16133642  1
  O  O185  1  0.87489084  0.49191633  0.40763640  1
  O  O186  1  0.87174574  0.50936357  0.65748847  1
  O  O187  1  0.87241140  0.50162190  0.91776989  1
  O  O188  1  0.87622334  0.75162565  0.16913922  1
  O  O189  1  0.87179262  0.74982558  0.40021906  1
  O  O190  1  0.87371530  0.74877475  0.66057343  1
  O  O191  1  0.87348885  0.75403078  0.92149254  1
  O  O192  1  0.00158302  0.12490974  0.16511804  1
  O  O193  1  0.00738554  0.13065790  0.41630766  1
  O  O194  1  0.00381425  0.12210612  0.65990595  1
  O  O195  1  -0.01001183  0.11839905  0.91268111  1
  O  O196  1  -0.00585000  0.37007335  0.16568481  1
  O  O197  1  -0.00121515  0.37048013  0.41414339  1
  O  O198  1  -0.00046509  0.37853435  0.66137789  1
  O  O199  1  -0.00211068  0.37621833  0.91394644  1
  O  O200  1  0.00772767  0.62760093  0.16582068  1
  O  O201  1  -0.00385843  0.61926462  0.40918616  1
  O  O202  1  -0.00860969  0.62697581  0.65561816  1
  O  O203  1  0.00632817  0.63118724  0.91738197  1
  O  O204  1  0.00846959  0.87994922  0.16737115  1
  O  O205  1  -0.00342674  0.88142188  0.40934056  1
  O  O206  1  -0.00788604  0.87119762  0.65832544  1
  O  O207  1  -0.00041644  0.87391151  0.91989247  1
  O  O208  1  0.25324536  0.12252481  0.16392619  1
  O  O209  1  0.25008576  0.13108788  0.42053695  1
  O  O210  1  0.24441093  0.12509996  0.66178696  1
  O  O211  1  0.24912290  0.12041416  0.90946530  1
  O  O212  1  0.24868802  0.37396165  0.16576564  1
  O  O213  1  0.25297437  0.37192351  0.41653105  1
  O  O214  1  0.25894905  0.38020537  0.66641852  1
  O  O215  1  0.24774713  0.37732986  0.90852531  1
  O  O216  1  0.24593495  0.62934126  0.17034068  1
  O  O217  1  0.25094035  0.62069521  0.40925678  1
  O  O218  1  0.25834138  0.62525601  0.65096541  1
  O  O219  1  0.24106815  0.63153843  0.91439749  1
  O  O220  1  0.24943922  0.87728786  0.17443579  1
  O  O221  1  0.24975016  0.87919007  0.41383722  1
  O  O222  1  0.25057137  0.86944893  0.65462520  1
  O  O223  1  0.24173884  0.87246704  0.90988961  1
  O  O224  1  0.49544939  0.12436018  0.16450336  1
  O  O225  1  0.49073365  0.13005792  0.41628753  1
  O  O226  1  0.50275473  0.12528367  0.66247697  1
  O  O227  1  0.50899382  0.12397627  0.90871985  1
  O  O228  1  0.49664344  0.37386252  0.16601879  1
  O  O229  1  0.49205051  0.37208933  0.41031384  1
  O  O230  1  0.49590138  0.38138799  0.66505831  1
  O  O231  1  0.50967801  0.37579361  0.91396290  1
  O  O232  1  0.50127209  0.62552859  0.16630043  1
  O  O233  1  0.50894599  0.62310486  0.41167526  1
  O  O234  1  0.50370398  0.62444946  0.65928634  1
  O  O235  1  0.51122166  0.62427797  0.91716185  1
  O  O236  1  0.49518196  0.87765024  0.17163835  1
  O  O237  1  0.50905072  0.87524867  0.41293754  1
  O  O238  1  0.50189522  0.86859831  0.65669960  1
  O  O239  1  0.50641341  0.87275250  0.91295925  1
  O  O240  1  0.74516053  0.12557054  0.16149553  1
  O  O241  1  0.75431633  0.12940807  0.41261655  1
  O  O242  1  0.75261346  0.12210089  0.65517911  1
  O  O243  1  0.75167622  0.12194066  0.91966040  1
  O  O244  1  0.75766814  0.37089150  0.16582195  1
  O  O245  1  0.75613717  0.37180539  0.41068067  1
  O  O246  1  0.74918223  0.38059106  0.66337189  1
  O  O247  1  0.74622643  0.37396240  0.91623978  1
  O  O248  1  0.74196944  0.62361580  0.16519842  1
  O  O249  1  0.74305546  0.62209884  0.40752028  1
  O  O250  1  0.75245556  0.62782092  0.66292317  1
  O  O251  1  0.74250299  0.62634320  0.92064086  1
  O  O252  1  0.74402094  0.87983572  0.16825609  1
  O  O253  1  0.74526393  0.87664993  0.41009266  1
  O  O254  1  0.75942105  0.87041891  0.66216512  1
  O  O255  1  0.75111257  0.87489057  0.91956812  1
  O  O256  1  0.12593511  0.11977433  0.04673583  1
  O  O257  1  0.12616349  0.13163452  0.30354452  1
  O  O258  1  0.12561590  0.12627666  0.54763102  1
  O  O259  1  0.12184120  0.11676488  0.78174624  1
  O  O260  1  0.11974345  0.37301237  0.03550778  1
  O  O261  1  0.12676160  0.36716416  0.30054941  1
  O  O262  1  0.13217336  0.38074128  0.53972502  1
  O  O263  1  0.12178435  0.38108901  0.77918321  1
  O  O264  1  0.12918168  0.62952735  0.05473084  1
  O  O265  1  0.12075844  0.61924782  0.28444658  1
  O  O266  1  0.12230402  0.61636186  0.52670217  1
  O  O267  1  0.12220806  0.63268486  0.79781696  1
  O  O268  1  0.13051403  0.87698552  0.05811984  1
  O  O269  1  0.12819979  0.88525720  0.28844076  1
  O  O270  1  0.12179129  0.87752053  0.52668511  1
  O  O271  1  0.11926023  0.87028814  0.79841602  1
  O  O272  1  0.37397758  0.11878337  0.04872357  1
  O  O273  1  0.36916953  0.13140844  0.30563848  1
  O  O274  1  0.38023630  0.12888305  0.53789316  1
  O  O275  1  0.37184127  0.12654560  0.77643017  1
  O  O276  1  0.37683609  0.37771558  0.03337276  1
  O  O277  1  0.36946804  0.36930545  0.29823185  1
  O  O278  1  0.37634156  0.37962792  0.55232836  1
  O  O279  1  0.37999056  0.38790609  0.78471760  1
  O  O280  1  0.37170648  0.63268229  0.05446417  1
  O  O281  1  0.37634184  0.62343936  0.28255183  1
  O  O282  1  0.38191831  0.61722559  0.54313998  1
  O  O283  1  0.38162923  0.62716893  0.78766085  1
  O  O284  1  0.37356116  0.87633449  0.05475025  1
  O  O285  1  0.37818696  0.88070086  0.29323480  1
  O  O286  1  0.38060132  0.87710631  0.52397651  1
  O  O287  1  0.37517316  0.86229600  0.78259514  1
  O  O288  1  0.62214568  0.12411040  0.05124400  1
  O  O289  1  0.62204508  0.13528608  0.29346385  1
  O  O290  1  0.62275754  0.11947897  0.52581266  1
  O  O291  1  0.63466757  0.12341327  0.79556438  1
  O  O292  1  0.62693494  0.36841011  0.04174716  1
  O  O293  1  0.62810906  0.36532362  0.28382097  1
  O  O294  1  0.62712959  0.38780759  0.53323252  1
  O  O295  1  0.62811241  0.37724759  0.79958780  1
  O  O296  1  0.62284800  0.62633053  0.05052483  1
  O  O297  1  0.62395096  0.62306801  0.29305358  1
  O  O298  1  0.62540994  0.62305794  0.54692963  1
  O  O299  1  0.62853332  0.62815807  0.80042271  1
  O  O300  1  0.61948187  0.87801871  0.03893826  1
  O  O301  1  0.62331922  0.87898212  0.29708609  1
  O  O302  1  0.63641394  0.86995255  0.53146485  1
  O  O303  1  0.63095938  0.87394938  0.79799200  1
  O  O304  1  0.87673361  0.12781357  0.04729938  1
  O  O305  1  0.87990888  0.13115593  0.30909668  1
  O  O306  1  0.88271118  0.12610730  0.52417268  1
  O  O307  1  0.87126563  0.12077586  0.79981120  1
  O  O308  1  0.87552059  0.37101370  0.04888430  1
  O  O309  1  0.87853239  0.36863280  0.30016097  1
  O  O310  1  0.87109279  0.37780705  0.53220196  1
  O  O311  1  0.87495699  0.37962737  0.78342172  1
  O  O312  1  0.87193481  0.63188867  0.04422985  1
  O  O313  1  0.87790016  0.61613729  0.27566901  1
  O  O314  1  0.87066558  0.62684426  0.54344432  1
  O  O315  1  0.87107888  0.63065169  0.79026733  1
  O  O316  1  0.87595270  0.87897905  0.04698014  1
  O  O317  1  0.87330502  0.88697905  0.27747373  1
  O  O318  1  0.87310775  0.87163370  0.54154986  1
  O  O319  1  0.87762021  0.87700527  0.80070637  1
