# generated using pymatgen
data_VFe(PbO3)2
_symmetry_space_group_name_H-M   'P 1'
_cell_length_a   15.39161225
_cell_length_b   15.38273328
_cell_length_c   18.51523588
_cell_angle_alpha   89.98997522
_cell_angle_beta   90.02115643
_cell_angle_gamma   89.99322606
_symmetry_Int_Tables_number   1
_chemical_formula_structural   VFe(PbO3)2
_chemical_formula_sum   'V32 Fe32 Pb64 O192'
_cell_volume   4383.76064908
_cell_formula_units_Z   32
loop_
 _symmetry_equiv_pos_site_id
 _symmetry_equiv_pos_as_xyz
  1  'x, y, z'
loop_
 _atom_site_type_symbol
 _atom_site_label
 _atom_site_symmetry_multiplicity
 _atom_site_fract_x
 _atom_site_fract_y
 _atom_site_fract_z
 _atom_site_occupancy
  V  V0  1  0.63186104  0.61989704  0.88531625  1
  V  V1  1  0.62441876  0.12255187  0.39317007  1
  V  V2  1  0.37735362  0.37628723  0.39438119  1
  V  V3  1  0.12337933  0.87504502  0.13767723  1
  V  V4  1  0.37270104  0.12745034  0.13863464  1
  V  V5  1  0.62735077  0.87032218  0.64280959  1
  V  V6  1  0.87975417  0.62371398  0.14544147  1
  V  V7  1  0.12775129  0.62660879  0.39211804  1
  V  V8  1  0.62562324  0.37584034  0.14360397  1
  V  V9  1  0.87299465  0.62793430  0.64027230  1
  V  V10  1  0.62492942  0.87838666  0.39108875  1
  V  V11  1  0.87483456  0.12624303  0.13644059  1
  V  V12  1  0.62363374  0.62609929  0.39254261  1
  V  V13  1  0.62584342  0.37633270  0.63883754  1
  V  V14  1  0.12641991  0.62298736  0.63735965  1
  V  V15  1  0.37325572  0.87602912  0.13522028  1
  V  V16  1  0.12629732  0.87632617  0.39785098  1
  V  V17  1  0.87702173  0.37569700  0.63959557  1
  V  V18  1  0.62808564  0.62781995  0.14006268  1
  V  V19  1  0.87659749  0.88258156  0.65530365  1
  V  V20  1  0.37427903  0.62375870  0.88585737  1
  V  V21  1  0.12774166  0.12335544  0.39815229  1
  V  V22  1  0.12685544  0.62790546  0.14065986  1
  V  V23  1  0.12587990  0.37846381  0.88535170  1
  V  V24  1  0.12277542  0.12628679  0.63765292  1
  V  V25  1  0.62771116  0.12276943  0.64729164  1
  V  V26  1  0.37690683  0.87502655  0.39788762  1
  V  V27  1  0.38563199  0.62279789  0.63342140  1
  V  V28  1  0.37584017  0.37646479  0.88528937  1
  V  V29  1  0.87348400  0.37481543  0.38908781  1
  V  V30  1  0.37570078  0.12305414  0.39802460  1
  V  V31  1  0.12501096  0.12193824  0.13636426  1
  Fe  Fe32  1  0.37437485  0.37855123  0.63265977  1
  Fe  Fe33  1  0.63021584  0.62346205  0.63156511  1
  Fe  Fe34  1  0.12720019  0.62130395  0.88006179  1
  Fe  Fe35  1  0.87679871  0.12873719  0.87447581  1
  Fe  Fe36  1  0.12729206  0.87242709  0.86999214  1
  Fe  Fe37  1  0.37338210  0.37439486  0.13783743  1
  Fe  Fe38  1  0.37466992  0.62361695  0.14199691  1
  Fe  Fe39  1  0.87931707  0.62228513  0.88069481  1
  Fe  Fe40  1  0.87176328  0.12826563  0.64995812  1
  Fe  Fe41  1  0.87403661  0.37883390  0.88322644  1
  Fe  Fe42  1  0.62196174  0.12915064  0.88218807  1
  Fe  Fe43  1  0.12351219  0.37614172  0.62572512  1
  Fe  Fe44  1  0.62144093  0.38173195  0.88382730  1
  Fe  Fe45  1  0.37239420  0.12811135  0.87343840  1
  Fe  Fe46  1  0.12515216  0.37152965  0.39878999  1
  Fe  Fe47  1  0.87783623  0.62788847  0.38556720  1
  Fe  Fe48  1  0.37391987  0.62859708  0.38642075  1
  Fe  Fe49  1  0.37533896  0.87397427  0.87299080  1
  Fe  Fe50  1  0.87401415  0.87509149  0.38697474  1
  Fe  Fe51  1  0.62385224  0.12576713  0.12856656  1
  Fe  Fe52  1  0.87589666  0.37535301  0.13685096  1
  Fe  Fe53  1  0.87622661  0.12231265  0.38893977  1
  Fe  Fe54  1  0.37779779  0.87285366  0.64590187  1
  Fe  Fe55  1  0.62271135  0.87045338  0.89057222  1
  Fe  Fe56  1  0.12267899  0.87450212  0.64624609  1
  Fe  Fe57  1  0.62506155  0.87589124  0.12790816  1
  Fe  Fe58  1  0.87571495  0.87558135  0.13513302  1
  Fe  Fe59  1  0.62621649  0.36883360  0.38767966  1
  Fe  Fe60  1  0.12636970  0.12931122  0.87852798  1
  Fe  Fe61  1  0.37640596  0.12761938  0.64375359  1
  Fe  Fe62  1  0.12448473  0.37236268  0.13856715  1
  Fe  Fe63  1  0.87491976  0.87204513  0.87294007  1
  Pb  Pb64  1  -0.00231537  -0.00437544  -0.02016124  1
  Pb  Pb65  1  -0.00952288  0.00107869  0.25257119  1
  Pb  Pb66  1  0.00056424  -0.00364953  0.50771099  1
  Pb  Pb67  1  0.00491958  0.01456515  0.75730667  1
  Pb  Pb68  1  -0.00456762  0.25177891  -0.00760654  1
  Pb  Pb69  1  -0.00172265  0.24499412  0.25043479  1
  Pb  Pb70  1  -0.00512633  0.24327650  0.50379378  1
  Pb  Pb71  1  0.00114825  0.24835562  0.75036878  1
  Pb  Pb72  1  0.00064383  0.49616243  -0.00206545  1
  Pb  Pb73  1  0.00648992  0.49066413  0.25430835  1
  Pb  Pb74  1  0.00333948  0.49813291  0.49933036  1
  Pb  Pb75  1  -0.00577875  0.50388633  0.75072566  1
  Pb  Pb76  1  0.00044539  0.75258575  -0.01555205  1
  Pb  Pb77  1  -0.00810422  0.75300195  0.25408435  1
  Pb  Pb78  1  0.00335165  0.75585801  0.50466726  1
  Pb  Pb79  1  -0.00182108  0.74269271  0.75336679  1
  Pb  Pb80  1  0.25047122  0.00026372  -0.02201830  1
  Pb  Pb81  1  0.24801873  -0.00062058  0.24844751  1
  Pb  Pb82  1  0.25417844  -0.00522296  0.51514094  1
  Pb  Pb83  1  0.25290695  -0.00417060  0.74410599  1
  Pb  Pb84  1  0.24791117  0.25954066  -0.00286952  1
  Pb  Pb85  1  0.24146058  0.25729657  0.25442332  1
  Pb  Pb86  1  0.26083059  0.24918833  0.50966601  1
  Pb  Pb87  1  0.25119184  0.24965672  0.74110559  1
  Pb  Pb88  1  0.25415821  0.49610362  0.00494453  1
  Pb  Pb89  1  0.24879561  0.49409332  0.25429374  1
  Pb  Pb90  1  0.25136339  0.49370048  0.50154558  1
  Pb  Pb91  1  0.24233357  0.50125309  0.74386138  1
  Pb  Pb92  1  0.24940573  0.74944384  -0.01177141  1
  Pb  Pb93  1  0.25408291  0.74757842  0.25189811  1
  Pb  Pb94  1  0.25025130  0.76147169  0.51217024  1
  Pb  Pb95  1  0.24590690  0.75194424  0.74726354  1
  Pb  Pb96  1  0.50303753  0.00213183  -0.01394429  1
  Pb  Pb97  1  0.50327445  -0.00131736  0.24227896  1
  Pb  Pb98  1  0.49208406  0.00044675  0.51261139  1
  Pb  Pb99  1  0.49622874  0.00576019  0.75426152  1
  Pb  Pb100  1  0.50461242  0.24510658  -0.00583460  1
  Pb  Pb101  1  0.50501728  0.25335598  0.25185552  1
  Pb  Pb102  1  0.49369462  0.24688340  0.50872805  1
  Pb  Pb103  1  0.50060557  0.24780531  0.75093289  1
  Pb  Pb104  1  0.48703642  0.50345076  0.00488419  1
  Pb  Pb105  1  0.49633617  0.50078302  0.25219063  1
  Pb  Pb106  1  0.50265880  0.50021483  0.49905355  1
  Pb  Pb107  1  0.50868972  0.49560322  0.74849028  1
  Pb  Pb108  1  0.49909720  0.75182903  -0.00355245  1
  Pb  Pb109  1  0.49590326  0.74763289  0.24843699  1
  Pb  Pb110  1  0.49811443  0.75445867  0.50469310  1
  Pb  Pb111  1  0.50628549  0.76061091  0.75719717  1
  Pb  Pb112  1  0.74971018  -0.00030725  -0.01541737  1
  Pb  Pb113  1  0.75164679  -0.00155622  0.24252044  1
  Pb  Pb114  1  0.76195243  0.00346637  0.50641362  1
  Pb  Pb115  1  0.73697198  0.00222456  0.76269591  1
  Pb  Pb116  1  0.74871685  0.24869716  -0.01273001  1
  Pb  Pb117  1  0.74729733  0.25049832  0.24966966  1
  Pb  Pb118  1  0.75687537  0.24252456  0.50513835  1
  Pb  Pb119  1  0.74551216  0.26005972  0.75715821  1
  Pb  Pb120  1  0.75870290  0.49147036  -0.00073794  1
  Pb  Pb121  1  0.75121813  0.50332870  0.25437185  1
  Pb  Pb122  1  0.74637141  0.50475233  0.49897537  1
  Pb  Pb123  1  0.75587560  0.49587171  0.75269199  1
  Pb  Pb124  1  0.76131226  0.76657438  0.00059634  1
  Pb  Pb125  1  0.75635804  0.75639314  0.25191989  1
  Pb  Pb126  1  0.74997989  0.74761628  0.49909895  1
  Pb  Pb127  1  0.74911122  0.75353240  0.75615227  1
  O  O128  1  0.12620351  -0.00110241  0.16842282  1
  O  O129  1  0.12838319  0.00178015  0.42609857  1
  O  O130  1  0.12224541  0.00702767  0.66131944  1
  O  O131  1  0.12616263  -0.00049486  0.90013387  1
  O  O132  1  0.12575822  0.24196788  0.16690206  1
  O  O133  1  0.12699408  0.24045742  0.41881629  1
  O  O134  1  0.12253531  0.24844934  0.65506252  1
  O  O135  1  0.12785493  0.26106635  0.91020713  1
  O  O136  1  0.12303514  0.51076342  0.16678645  1
  O  O137  1  0.12484936  0.50761031  0.41368193  1
  O  O138  1  0.11896246  0.50397279  0.65889663  1
  O  O139  1  0.13047314  0.49363898  0.91332832  1
  O  O140  1  0.12338325  0.74772981  0.16713311  1
  O  O141  1  0.12719218  0.74949022  0.42084252  1
  O  O142  1  0.11843440  0.73895806  0.66118430  1
  O  O143  1  0.12974671  0.74777929  0.90617782  1
  O  O144  1  0.37218034  0.00119150  0.16588140  1
  O  O145  1  0.37590214  -0.00090213  0.42691244  1
  O  O146  1  0.37864920  0.00092722  0.66173783  1
  O  O147  1  0.37559987  0.00048201  0.89733998  1
  O  O148  1  0.37066204  0.24290487  0.16441837  1
  O  O149  1  0.37606027  0.24951885  0.41983054  1
  O  O150  1  0.37643542  0.25551596  0.66219431  1
  O  O151  1  0.37293804  0.26099459  0.90455913  1
  O  O152  1  0.37578247  0.49865279  0.17237149  1
  O  O153  1  0.37713823  0.49638337  0.41025460  1
  O  O154  1  0.37284429  0.50828103  0.66213505  1
  O  O155  1  0.37068440  0.49873050  0.91482332  1
  O  O156  1  0.37442692  0.75392323  0.16613286  1
  O  O157  1  0.37659957  0.75379169  0.42003520  1
  O  O158  1  0.37356705  0.73475007  0.66059546  1
  O  O159  1  0.37287449  0.74165824  0.90571443  1
  O  O160  1  0.62318299  0.00212127  0.16076765  1
  O  O161  1  0.62177540  0.00420284  0.42004761  1
  O  O162  1  0.62605642  0.00028472  0.66665436  1
  O  O163  1  0.62199213  -0.00025704  0.90386333  1
  O  O164  1  0.62465651  0.25239671  0.16435415  1
  O  O165  1  0.62347793  0.24018026  0.41862370  1
  O  O166  1  0.62777800  0.25535305  0.66302612  1
  O  O167  1  0.62054353  0.25678369  0.91045252  1
  O  O168  1  0.62632159  0.49825801  0.16785955  1
  O  O169  1  0.62538505  0.50292239  0.41084866  1
  O  O170  1  0.62748696  0.49576831  0.66081224  1
  O  O171  1  0.61684525  0.50914338  0.91875504  1
  O  O172  1  0.62586317  0.74412980  0.16020483  1
  O  O173  1  0.62363349  0.75003413  0.41497936  1
  O  O174  1  0.62820890  0.75134768  0.66062614  1
  O  O175  1  0.61953117  0.73186894  0.91506669  1
  O  O176  1  0.87747809  0.00636317  0.16163786  1
  O  O177  1  0.87549763  -0.00151395  0.42144283  1
  O  O178  1  0.87020396  -0.00285881  0.66962928  1
  O  O179  1  0.87520042  -0.00029669  0.89730309  1
  O  O180  1  0.87843092  0.24406263  0.16350582  1
  O  O181  1  0.87428323  0.25153767  0.41692352  1
  O  O182  1  0.86970874  0.26000852  0.66411179  1
  O  O183  1  0.87753734  0.25368920  0.90856857  1
  O  O184  1  0.87342818  0.50586838  0.16978501  1
  O  O185  1  0.87482558  0.49484932  0.41027169  1
  O  O186  1  0.87297946  0.49725328  0.66117142  1
  O  O187  1  0.87745974  0.50151634  0.91848196  1
  O  O188  1  0.87296305  0.74387114  0.16627839  1
  O  O189  1  0.87463971  0.75154713  0.41855175  1
  O  O190  1  0.87252621  0.74251304  0.66103582  1
  O  O191  1  0.87436043  0.74640288  0.90798748  1
  O  O192  1  0.00008734  0.12316384  0.16480038  1
  O  O193  1  0.00710100  0.12166991  0.42043042  1
  O  O194  1  0.00319445  0.12758385  0.66096500  1
  O  O195  1  0.00186831  0.12884363  0.91112102  1
  O  O196  1  -0.00011243  0.37620246  0.16992015  1
  O  O197  1  -0.00849577  0.37226809  0.41558981  1
  O  O198  1  -0.00585985  0.37658642  0.65470105  1
  O  O199  1  0.00838631  0.37906801  0.90596738  1
  O  O200  1  -0.00104550  0.62700505  0.16523125  1
  O  O201  1  0.00733060  0.62838478  0.41614625  1
  O  O202  1  -0.00531421  0.62078122  0.66067445  1
  O  O203  1  0.00403749  0.62160574  0.91347918  1
  O  O204  1  0.00336321  0.87353891  0.16479917  1
  O  O205  1  0.00460227  0.87640494  0.41959815  1
  O  O206  1  -0.00831506  0.87159813  0.66322603  1
  O  O207  1  0.00104513  0.87201273  0.89814707  1
  O  O208  1  0.25152816  0.12102256  0.16711552  1
  O  O209  1  0.24937986  0.12191109  0.42313999  1
  O  O210  1  0.24255145  0.12677103  0.65892770  1
  O  O211  1  0.25051282  0.13108560  0.90759514  1
  O  O212  1  0.24819344  0.37496229  0.17307760  1
  O  O213  1  0.25809337  0.37341291  0.41703143  1
  O  O214  1  0.24644785  0.37961386  0.65594741  1
  O  O215  1  0.25191875  0.37768987  0.91132519  1
  O  O216  1  0.24276842  0.62858447  0.16588820  1
  O  O217  1  0.24546048  0.62675842  0.41572031  1
  O  O218  1  0.24395376  0.62193720  0.65357080  1
  O  O219  1  0.25598063  0.62037842  0.91209348  1
  O  O220  1  0.24891943  0.87465885  0.16852212  1
  O  O221  1  0.25145174  0.87652953  0.42552506  1
  O  O222  1  0.25038687  0.87048935  0.66046066  1
  O  O223  1  0.25248891  0.87197374  0.90366818  1
  O  O224  1  0.49090891  0.12455138  0.16166954  1
  O  O225  1  0.50180038  0.12315537  0.42171503  1
  O  O226  1  0.50951750  0.12856510  0.66386473  1
  O  O227  1  0.49427866  0.13033588  0.90952173  1
  O  O228  1  0.50458640  0.37316310  0.16689319  1
  O  O229  1  0.49724412  0.37202556  0.41574302  1
  O  O230  1  0.50694828  0.37841416  0.65849245  1
  O  O231  1  0.49103003  0.38256958  0.90970002  1
  O  O232  1  0.50922867  0.62313568  0.16687806  1
  O  O233  1  0.50434637  0.62548038  0.41465412  1
  O  O234  1  0.49990634  0.62016354  0.65152125  1
  O  O235  1  0.48922550  0.62021112  0.91339770  1
  O  O236  1  0.49585228  0.87549034  0.16094095  1
  O  O237  1  0.50240593  0.87682182  0.42320126  1
  O  O238  1  0.51035454  0.87229324  0.66467311  1
  O  O239  1  0.49603099  0.86645426  0.91105834  1
  O  O240  1  0.75619333  0.12595630  0.15615726  1
  O  O241  1  0.74329758  0.12253327  0.41501502  1
  O  O242  1  0.74283165  0.12659691  0.67329753  1
  O  O243  1  0.75074078  0.12883578  0.90166520  1
  O  O244  1  0.74654460  0.37401228  0.16746174  1
  O  O245  1  0.75548037  0.37242372  0.41456413  1
  O  O246  1  0.74804770  0.37772425  0.66430888  1
  O  O247  1  0.74643300  0.38138366  0.91208001  1
  O  O248  1  0.74696057  0.62267018  0.16775459  1
  O  O249  1  0.74569262  0.62589937  0.41346091  1
  O  O250  1  0.75549909  0.62072709  0.66271668  1
  O  O251  1  0.74548914  0.61699570  0.89552631  1
  O  O252  1  0.74947331  0.87517453  0.16345945  1
  O  O253  1  0.74317666  0.87665266  0.41528182  1
  O  O254  1  0.74348636  0.87482790  0.67155534  1
  O  O255  1  0.74991559  0.87059182  0.90767674  1
  O  O256  1  0.12631191  0.12211567  0.04603318  1
  O  O257  1  0.12839267  0.11818701  0.30734966  1
  O  O258  1  0.12159530  0.12341933  0.54600370  1
  O  O259  1  0.11629783  0.13392533  0.77834088  1
  O  O260  1  0.13204276  0.37412103  0.03958126  1
  O  O261  1  0.12851649  0.37485083  0.29784593  1
  O  O262  1  0.12325493  0.38331396  0.52411767  1
  O  O263  1  0.12990401  0.38010063  0.79393158  1
  O  O264  1  0.12606788  0.62809479  0.05024313  1
  O  O265  1  0.12711642  0.63090461  0.30109736  1
  O  O266  1  0.12019657  0.62347726  0.54584777  1
  O  O267  1  0.12416087  0.61740193  0.77989048  1
  O  O268  1  0.12671055  0.87607988  0.04728153  1
  O  O269  1  0.12931096  0.87777708  0.30707582  1
  O  O270  1  0.12280212  0.87082425  0.54336280  1
  O  O271  1  0.12903377  0.86868451  0.76845124  1
  O  O272  1  0.37000276  0.12560312  0.04844126  1
  O  O273  1  0.37596790  0.12153419  0.30750456  1
  O  O274  1  0.37925249  0.13069547  0.54040886  1
  O  O275  1  0.37773866  0.13140497  0.77169359  1
  O  O276  1  0.36791990  0.37988238  0.03859296  1
  O  O277  1  0.37616076  0.36981199  0.30292549  1
  O  O278  1  0.37719036  0.37654687  0.53250323  1
  O  O279  1  0.37445573  0.38306351  0.79404131  1
  O  O280  1  0.37495829  0.61723349  0.04264374  1
  O  O281  1  0.37734693  0.63514219  0.28653892  1
  O  O282  1  0.37918354  0.62171813  0.54155252  1
  O  O283  1  0.37547014  0.61980652  0.79488630  1
  O  O284  1  0.37073524  0.87607148  0.04461943  1
  O  O285  1  0.37592714  0.87854277  0.30701616  1
  O  O286  1  0.38103822  0.87057989  0.54302997  1
  O  O287  1  0.38035227  0.86626954  0.77107122  1
  O  O288  1  0.61800805  0.12960390  0.02961568  1
  O  O289  1  0.62113110  0.12225423  0.30203007  1
  O  O290  1  0.63110839  0.12385823  0.55595279  1
  O  O291  1  0.61798095  0.12813650  0.78040068  1
  O  O292  1  0.62435776  0.37867732  0.05319887  1
  O  O293  1  0.62509547  0.36187647  0.28855737  1
  O  O294  1  0.62941334  0.37523768  0.54735759  1
  O  O295  1  0.62368182  0.38441294  0.78365233  1
  O  O296  1  0.62888348  0.62195672  0.05013429  1
  O  O297  1  0.62448930  0.62882501  0.30134359  1
  O  O298  1  0.63248372  0.62054549  0.53215590  1
  O  O299  1  0.61647349  0.61879279  0.79364081  1
  O  O300  1  0.62633688  0.87045571  0.02776670  1
  O  O301  1  0.62013935  0.87984379  0.30016603  1
  O  O302  1  0.62972754  0.87568640  0.55180762  1
  O  O303  1  0.62258102  0.85988551  0.78858263  1
  O  O304  1  0.88072527  0.12701074  0.04609141  1
  O  O305  1  0.88149745  0.12054669  0.28965662  1
  O  O306  1  0.86569370  0.12714465  0.54735711  1
  O  O307  1  0.88752170  0.13145047  0.77263441  1
  O  O308  1  0.87551243  0.38166516  0.03782158  1
  O  O309  1  0.87332770  0.37097063  0.29772394  1
  O  O310  1  0.86984595  0.37450583  0.54825132  1
  O  O311  1  0.87064693  0.38467791  0.78257889  1
  O  O312  1  0.87607188  0.62384143  0.05509317  1
  O  O313  1  0.87388530  0.63222910  0.28615030  1
  O  O314  1  0.87292498  0.62437421  0.54849433  1
  O  O315  1  0.88385570  0.61790092  0.77992649  1
  O  O316  1  0.87060667  0.87091326  0.03557537  1
  O  O317  1  0.87661733  0.87348688  0.28622468  1
  O  O318  1  0.86545474  0.87694374  0.56320576  1
  O  O319  1  0.86846713  0.86131997  0.77002088  1
