# generated using pymatgen
data_VFe(PbO3)2
_symmetry_space_group_name_H-M   'P 1'
_cell_length_a   15.39106388
_cell_length_b   15.38366008
_cell_length_c   18.47320519
_cell_angle_alpha   90.02355526
_cell_angle_beta   90.01128173
_cell_angle_gamma   89.98694654
_symmetry_Int_Tables_number   1
_chemical_formula_structural   VFe(PbO3)2
_chemical_formula_sum   'V32 Fe32 Pb64 O192'
_cell_volume   4373.91675909
_cell_formula_units_Z   32
loop_
 _symmetry_equiv_pos_site_id
 _symmetry_equiv_pos_as_xyz
  1  'x, y, z'
loop_
 _atom_site_type_symbol
 _atom_site_label
 _atom_site_symmetry_multiplicity
 _atom_site_fract_x
 _atom_site_fract_y
 _atom_site_fract_z
 _atom_site_occupancy
  V  V0  1  0.37572318  0.12363046  0.90588761  1
  V  V1  1  0.12494958  0.12215194  0.64182039  1
  V  V2  1  0.62297122  0.12367875  0.89303223  1
  V  V3  1  0.12472668  0.38255523  0.64150532  1
  V  V4  1  0.37568132  0.87247586  0.89954880  1
  V  V5  1  0.12726754  0.62409372  0.89029097  1
  V  V6  1  0.12357678  0.62479038  0.38384557  1
  V  V7  1  0.62295556  0.62511408  0.89092779  1
  V  V8  1  0.12764906  0.12618570  0.89689728  1
  V  V9  1  0.12499514  0.12789848  0.13643807  1
  V  V10  1  0.87814462  0.87537254  0.63913086  1
  V  V11  1  0.87574637  0.87621903  0.38489245  1
  V  V12  1  0.87333706  0.87775133  0.13502500  1
  V  V13  1  0.37931730  0.62272301  0.15181872  1
  V  V14  1  0.87656831  0.37247987  0.38998604  1
  V  V15  1  0.87614080  0.12308336  0.64186507  1
  V  V16  1  0.62554289  0.12647789  0.13641590  1
  V  V17  1  0.12265712  0.12506525  0.38283332  1
  V  V18  1  0.37285601  0.87638222  0.63738382  1
  V  V19  1  0.37636791  0.37428384  0.14731972  1
  V  V20  1  0.12550041  0.87527838  0.89502871  1
  V  V21  1  0.87536093  0.37744002  0.88789501  1
  V  V22  1  0.87541819  0.37437630  0.13971272  1
  V  V23  1  0.37573145  0.37728378  0.89214065  1
  V  V24  1  0.87762506  0.62330172  0.14104142  1
  V  V25  1  0.62535721  0.87703101  0.38261517  1
  V  V26  1  0.87164597  0.87143327  0.89302352  1
  V  V27  1  0.12360359  0.37756138  0.15263297  1
  V  V28  1  0.38065736  0.12218605  0.38541495  1
  V  V29  1  0.62446901  0.37435413  0.88955325  1
  V  V30  1  0.12772960  0.62175184  0.14440165  1
  V  V31  1  0.37384054  0.62670653  0.63573029  1
  Fe  Fe32  1  0.12750578  0.37428410  0.88367149  1
  Fe  Fe33  1  0.62953437  0.87388467  0.13240839  1
  Fe  Fe34  1  0.87460014  0.62506665  0.88760807  1
  Fe  Fe35  1  0.62227409  0.12238578  0.62993795  1
  Fe  Fe36  1  0.37658485  0.87566154  0.14436362  1
  Fe  Fe37  1  0.87692086  0.12210284  0.38427601  1
  Fe  Fe38  1  0.62619810  0.37216892  0.38622471  1
  Fe  Fe39  1  0.62518858  0.37420114  0.62696999  1
  Fe  Fe40  1  0.87651143  0.62803935  0.39544282  1
  Fe  Fe41  1  0.87511529  0.12417938  0.89875802  1
  Fe  Fe42  1  0.37544454  0.62333353  0.88948974  1
  Fe  Fe43  1  0.62418166  0.87520255  0.89277902  1
  Fe  Fe44  1  0.12266306  0.37286526  0.37786614  1
  Fe  Fe45  1  0.12062948  0.87239862  0.14774396  1
  Fe  Fe46  1  0.37458977  0.62882856  0.37406754  1
  Fe  Fe47  1  0.62958994  0.12376900  0.38948573  1
  Fe  Fe48  1  0.37121272  0.37372464  0.38814647  1
  Fe  Fe49  1  0.37194545  0.37301940  0.62595358  1
  Fe  Fe50  1  0.62441809  0.87604906  0.63805492  1
  Fe  Fe51  1  0.37452193  0.13025469  0.13102626  1
  Fe  Fe52  1  0.87471624  0.12841505  0.12884349  1
  Fe  Fe53  1  0.62836638  0.37618512  0.14501922  1
  Fe  Fe54  1  0.87668010  0.62546085  0.62574381  1
  Fe  Fe55  1  0.87794552  0.37255486  0.63139861  1
  Fe  Fe56  1  0.12669599  0.63145527  0.63100346  1
  Fe  Fe57  1  0.12361892  0.87745936  0.37253159  1
  Fe  Fe58  1  0.12341118  0.87684404  0.63768134  1
  Fe  Fe59  1  0.37451373  0.87641685  0.37295658  1
  Fe  Fe60  1  0.62391583  0.62765677  0.62648599  1
  Fe  Fe61  1  0.62812216  0.62344945  0.14743041  1
  Fe  Fe62  1  0.37198471  0.12284425  0.62853002  1
  Fe  Fe63  1  0.62620221  0.62667428  0.38183525  1
  Pb  Pb64  1  0.00574475  -0.00625360  0.00699634  1
  Pb  Pb65  1  -0.00561267  0.00562782  0.24606893  1
  Pb  Pb66  1  0.00730241  -0.00767278  0.49633815  1
  Pb  Pb67  1  -0.00953195  0.00708969  0.76037399  1
  Pb  Pb68  1  -0.00348512  0.24975447  0.00182676  1
  Pb  Pb69  1  -0.00134619  0.24945329  0.25028395  1
  Pb  Pb70  1  -0.00263830  0.25428056  0.49895890  1
  Pb  Pb71  1  0.00410191  0.25216056  0.75479415  1
  Pb  Pb72  1  0.00153623  0.50071753  -0.00280991  1
  Pb  Pb73  1  -0.00815482  0.50532238  0.25906643  1
  Pb  Pb74  1  -0.00525156  0.50125281  0.50021030  1
  Pb  Pb75  1  -0.00879842  0.51006624  0.74577108  1
  Pb  Pb76  1  0.00599269  0.75399111  0.00446679  1
  Pb  Pb77  1  -0.00717155  0.74535564  0.25492519  1
  Pb  Pb78  1  0.01107799  0.74939947  0.50012096  1
  Pb  Pb79  1  -0.00071059  0.74446887  0.74688134  1
  Pb  Pb80  1  0.25188243  -0.01058829  0.01505040  1
  Pb  Pb81  1  0.25108200  -0.00443540  0.24354097  1
  Pb  Pb82  1  0.25232640  0.00029768  0.49101921  1
  Pb  Pb83  1  0.25019533  0.00053976  0.75048482  1
  Pb  Pb84  1  0.25365113  0.25036487  0.00599917  1
  Pb  Pb85  1  0.25280727  0.25706919  0.25625944  1
  Pb  Pb86  1  0.25509927  0.24720227  0.49735666  1
  Pb  Pb87  1  0.24989040  0.25318603  0.74894587  1
  Pb  Pb88  1  0.25084881  0.50232569  0.00338635  1
  Pb  Pb89  1  0.26049059  0.49627916  0.26185834  1
  Pb  Pb90  1  0.25165100  0.49771372  0.48962987  1
  Pb  Pb91  1  0.25627448  0.50681818  0.74922361  1
  Pb  Pb92  1  0.25120594  0.75537398  0.01099855  1
  Pb  Pb93  1  0.25258794  0.75611264  0.25152075  1
  Pb  Pb94  1  0.24412914  0.75538791  0.48736282  1
  Pb  Pb95  1  0.25299101  0.74709487  0.75050681  1
  Pb  Pb96  1  0.49669993  -0.01058807  0.01224066  1
  Pb  Pb97  1  0.49907175  0.00047520  0.24183996  1
  Pb  Pb98  1  0.50964159  -0.00212007  0.50053639  1
  Pb  Pb99  1  0.50363724  0.00011108  0.74938653  1
  Pb  Pb100  1  0.50140328  0.25282414  0.00523411  1
  Pb  Pb101  1  0.50704913  0.25396168  0.25630078  1
  Pb  Pb102  1  0.50345113  0.25893886  0.49688113  1
  Pb  Pb103  1  0.49665699  0.24862151  0.73567206  1
  Pb  Pb104  1  0.51120636  0.50018970  0.00955423  1
  Pb  Pb105  1  0.51060563  0.49567930  0.26060091  1
  Pb  Pb106  1  0.50236450  0.50085420  0.48526062  1
  Pb  Pb107  1  0.50137721  0.49821075  0.73772005  1
  Pb  Pb108  1  0.50039266  0.75315977  0.00971140  1
  Pb  Pb109  1  0.50614755  0.75307740  0.24786498  1
  Pb  Pb110  1  0.50253591  0.74895855  0.48889747  1
  Pb  Pb111  1  0.50513287  0.75345595  0.75006049  1
  Pb  Pb112  1  0.75149235  0.00026219  0.00167724  1
  Pb  Pb113  1  0.74895927  0.01682868  0.25227690  1
  Pb  Pb114  1  0.74449655  -0.00036883  0.50012327  1
  Pb  Pb115  1  0.74390738  -0.00343275  0.75298388  1
  Pb  Pb116  1  0.74994749  0.25372261  0.00152315  1
  Pb  Pb117  1  0.74181272  0.24619242  0.25622266  1
  Pb  Pb118  1  0.74382100  0.24979240  0.49825266  1
  Pb  Pb119  1  0.74949629  0.24963570  0.74245436  1
  Pb  Pb120  1  0.73864889  0.49970978  0.00712352  1
  Pb  Pb121  1  0.74623145  0.50368562  0.25835331  1
  Pb  Pb122  1  0.74587883  0.50461055  0.49412441  1
  Pb  Pb123  1  0.75218844  0.50341883  0.73523220  1
  Pb  Pb124  1  0.73727164  0.74200076  0.00624744  1
  Pb  Pb125  1  0.75081793  0.74326848  0.25227621  1
  Pb  Pb126  1  0.74580102  0.74575361  0.49797381  1
  Pb  Pb127  1  0.74933322  0.74472531  0.74397235  1
  O  O128  1  0.12120501  0.00985070  0.15854408  1
  O  O129  1  0.12137623  0.00454880  0.40706326  1
  O  O130  1  0.12363157  0.00434316  0.67085013  1
  O  O131  1  0.12753133  0.00071507  0.92339905  1
  O  O132  1  0.12019676  0.24632832  0.16555871  1
  O  O133  1  0.12278309  0.24177915  0.40831887  1
  O  O134  1  0.12434605  0.23998938  0.66744134  1
  O  O135  1  0.12745382  0.24619926  0.91715164  1
  O  O136  1  0.11991087  0.50356696  0.17255561  1
  O  O137  1  0.12360711  0.50525374  0.40408958  1
  O  O138  1  0.12579620  0.49824928  0.65626727  1
  O  O139  1  0.12669876  0.50052540  0.91566024  1
  O  O140  1  0.11973533  0.73853290  0.16507987  1
  O  O141  1  0.12257543  0.74884622  0.40449871  1
  O  O142  1  0.12562307  0.75407175  0.66960137  1
  O  O143  1  0.12714408  0.75099155  0.92005827  1
  O  O144  1  0.37538192  0.00711264  0.15761307  1
  O  O145  1  0.37117668  0.00410888  0.40702956  1
  O  O146  1  0.37245214  -0.00619808  0.66305720  1
  O  O147  1  0.37443416  -0.00427370  0.92551177  1
  O  O148  1  0.37390275  0.25472659  0.16577839  1
  O  O149  1  0.36771810  0.23869052  0.40950453  1
  O  O150  1  0.36917079  0.24880857  0.65967069  1
  O  O151  1  0.37702490  0.25808185  0.92021321  1
  O  O152  1  0.37096854  0.49659444  0.17058974  1
  O  O153  1  0.36995397  0.50411874  0.40611157  1
  O  O154  1  0.36994900  0.50614762  0.65596693  1
  O  O155  1  0.37605796  0.49392122  0.91923745  1
  O  O156  1  0.37187724  0.74079452  0.16274187  1
  O  O157  1  0.37401933  0.75312267  0.40261358  1
  O  O158  1  0.37227105  0.75215264  0.66362049  1
  O  O159  1  0.37403410  0.75363533  0.91973338  1
  O  O160  1  0.62849380  0.00661910  0.15636509  1
  O  O161  1  0.62622113  -0.00591078  0.41135428  1
  O  O162  1  0.62552918  0.00024076  0.67019832  1
  O  O163  1  0.62310163  0.00673835  0.91635792  1
  O  O164  1  0.62807052  0.24637282  0.16390977  1
  O  O165  1  0.62776694  0.24770022  0.41258164  1
  O  O166  1  0.62649540  0.24661460  0.66036371  1
  O  O167  1  0.62412080  0.25045999  0.91720706  1
  O  O168  1  0.62652219  0.49854857  0.17409875  1
  O  O169  1  0.62723762  0.49907764  0.40312578  1
  O  O170  1  0.62295971  0.50234169  0.65722449  1
  O  O171  1  0.62432528  0.50066678  0.91759423  1
  O  O172  1  0.62880552  0.75035545  0.16438258  1
  O  O173  1  0.62719280  0.75979673  0.40648477  1
  O  O174  1  0.62268708  0.75069681  0.66612123  1
  O  O175  1  0.62345778  0.74325149  0.91483742  1
  O  O176  1  0.87557903  -0.00398154  0.14978239  1
  O  O177  1  0.87577211  -0.00842829  0.41370947  1
  O  O178  1  0.87818231  0.00191390  0.66999846  1
  O  O179  1  0.87639241  -0.00870946  0.92021174  1
  O  O180  1  0.87735039  0.25703943  0.15722618  1
  O  O181  1  0.87968530  0.25266956  0.41112703  1
  O  O182  1  0.88055843  0.24131872  0.66381749  1
  O  O183  1  0.87356825  0.25896910  0.91629700  1
  O  O184  1  0.87908105  0.50148438  0.16673056  1
  O  O185  1  0.87890972  0.49347898  0.41206553  1
  O  O186  1  0.87984724  0.49905746  0.65818103  1
  O  O187  1  0.87529895  0.49404580  0.91387918  1
  O  O188  1  0.87749373  0.74405708  0.16129056  1
  O  O189  1  0.87355261  0.76194722  0.41274758  1
  O  O190  1  0.87662547  0.75792503  0.65830187  1
  O  O191  1  0.87729512  0.75464936  0.91651413  1
  O  O192  1  0.00144045  0.12690183  0.15970151  1
  O  O193  1  0.00459439  0.12258313  0.41163156  1
  O  O194  1  0.00177887  0.12175582  0.67015077  1
  O  O195  1  0.00926949  0.12463367  0.91894880  1
  O  O196  1  -0.00683827  0.37737173  0.16949098  1
  O  O197  1  -0.00051435  0.37355556  0.41312259  1
  O  O198  1  0.00839229  0.36940012  0.66712381  1
  O  O199  1  -0.00455191  0.37431572  0.91096501  1
  O  O200  1  -0.00221093  0.62221474  0.16838181  1
  O  O201  1  0.00698036  0.62746442  0.41225017  1
  O  O202  1  0.00102116  0.62851689  0.66130327  1
  O  O203  1  0.00456285  0.62422390  0.91749763  1
  O  O204  1  -0.01191240  0.87203506  0.16454524  1
  O  O205  1  -0.00469874  0.87607324  0.40422124  1
  O  O206  1  -0.00696338  0.87932525  0.66902315  1
  O  O207  1  0.00011141  0.87486278  0.91892922  1
  O  O208  1  0.24285784  0.12943788  0.15762076  1
  O  O209  1  0.24223223  0.12132836  0.40716351  1
  O  O210  1  0.24344389  0.12072159  0.66555071  1
  O  O211  1  0.24583774  0.12450984  0.92497181  1
  O  O212  1  0.25128571  0.37469284  0.16882064  1
  O  O213  1  0.24334449  0.37284423  0.41109352  1
  O  O214  1  0.24271432  0.37142181  0.66304080  1
  O  O215  1  0.25674837  0.37475266  0.91569545  1
  O  O216  1  0.24241317  0.62030036  0.16501430  1
  O  O217  1  0.24218638  0.62874729  0.40488140  1
  O  O218  1  0.25438604  0.62819652  0.66505880  1
  O  O219  1  0.24821782  0.62429806  0.92342977  1
  O  O220  1  0.24780711  0.87370680  0.16048840  1
  O  O221  1  0.24788170  0.87798390  0.39930910  1
  O  O222  1  0.25548518  0.87623508  0.66549407  1
  O  O223  1  0.25174123  0.87519340  0.92439883  1
  O  O224  1  0.50695807  0.12901036  0.15847915  1
  O  O225  1  0.49519747  0.12281190  0.40201604  1
  O  O226  1  0.49668914  0.12177569  0.66010596  1
  O  O227  1  0.50519793  0.12818092  0.92174648  1
  O  O228  1  0.49382319  0.37557414  0.16757055  1
  O  O229  1  0.49761912  0.37072927  0.40702529  1
  O  O230  1  0.49658915  0.37520502  0.65758142  1
  O  O231  1  0.49876733  0.37627093  0.91822331  1
  O  O232  1  0.49534120  0.62037444  0.16402102  1
  O  O233  1  0.50002126  0.62843014  0.40212607  1
  O  O234  1  0.49042413  0.62815624  0.65890891  1
  O  O235  1  0.50497065  0.62278736  0.91726520  1
  O  O236  1  0.50505519  0.87551976  0.16177682  1
  O  O237  1  0.50633406  0.87810303  0.40212917  1
  O  O238  1  0.49005371  0.87443373  0.66606874  1
  O  O239  1  0.49453969  0.87423770  0.92036800  1
  O  O240  1  0.74793387  0.12720406  0.15948732  1
  O  O241  1  0.75541299  0.12171145  0.41645565  1
  O  O242  1  0.75875093  0.12190174  0.66085339  1
  O  O243  1  0.74159852  0.12691905  0.91714864  1
  O  O244  1  0.76089380  0.37918109  0.16461087  1
  O  O245  1  0.75897515  0.37303832  0.40991405  1
  O  O246  1  0.75225780  0.37159263  0.66007048  1
  O  O247  1  0.75058542  0.37596262  0.91353775  1
  O  O248  1  0.76146641  0.62173429  0.16555839  1
  O  O249  1  0.75038315  0.62873788  0.41184509  1
  O  O250  1  0.75162491  0.62882517  0.65572698  1
  O  O251  1  0.74361694  0.62338331  0.91482252  1
  O  O252  1  0.75929718  0.87039132  0.15991405  1
  O  O253  1  0.74903533  0.87765057  0.40949946  1
  O  O254  1  0.75919792  0.87915023  0.66454697  1
  O  O255  1  0.75486497  0.87408649  0.91413018  1
  O  O256  1  0.12283149  0.13149219  0.04476836  1
  O  O257  1  0.11981238  0.12465757  0.29124955  1
  O  O258  1  0.12201779  0.12076058  0.55105774  1
  O  O259  1  0.13077727  0.12200534  0.80572081  1
  O  O260  1  0.12302778  0.37687961  0.06073221  1
  O  O261  1  0.12168623  0.36462823  0.27679674  1
  O  O262  1  0.12263086  0.37128240  0.55073654  1
  O  O263  1  0.12948519  0.36770294  0.78487958  1
  O  O264  1  0.12392494  0.61746111  0.05263798  1
  O  O265  1  0.11892472  0.62638932  0.29201956  1
  O  O266  1  0.12719519  0.63758325  0.53173482  1
  O  O267  1  0.13012806  0.62594198  0.79874086  1
  O  O268  1  0.11735282  0.87219683  0.04467185  1
  O  O269  1  0.12136322  0.87845726  0.27113867  1
  O  O270  1  0.11862063  0.87510445  0.53782656  1
  O  O271  1  0.12794070  0.87886357  0.80434871  1
  O  O272  1  0.37504339  0.13760791  0.02963145  1
  O  O273  1  0.37342203  0.12389859  0.29369369  1
  O  O274  1  0.36387154  0.11940874  0.52912328  1
  O  O275  1  0.37298874  0.12435277  0.81465061  1
  O  O276  1  0.37472761  0.37705395  0.05584462  1
  O  O277  1  0.36711507  0.36998335  0.28586951  1
  O  O278  1  0.36752411  0.37016666  0.52564158  1
  O  O279  1  0.37651764  0.37740007  0.80110039  1
  O  O280  1  0.37032849  0.61623338  0.05974849  1
  O  O281  1  0.36602718  0.62294539  0.27215934  1
  O  O282  1  0.37054906  0.63148275  0.54532327  1
  O  O283  1  0.36790501  0.62191862  0.79052450  1
  O  O284  1  0.37723805  0.87101085  0.04093618  1
  O  O285  1  0.37505986  0.87815897  0.27091783  1
  O  O286  1  0.37415619  0.87515144  0.54648661  1
  O  O287  1  0.37325116  0.87643276  0.80866184  1
  O  O288  1  0.62716400  0.12996723  0.04502808  1
  O  O289  1  0.63714256  0.12451918  0.28700773  1
  O  O290  1  0.62400093  0.11333342  0.52901669  1
  O  O291  1  0.62122059  0.12495636  0.80190624  1
  O  O292  1  0.62587664  0.38502441  0.04343276  1
  O  O293  1  0.62569877  0.36514186  0.28185907  1
  O  O294  1  0.62327381  0.36949434  0.52605621  1
  O  O295  1  0.62219426  0.37530126  0.79905086  1
  O  O296  1  0.63147050  0.61831512  0.04478487  1
  O  O297  1  0.63308694  0.62862862  0.27838852  1
  O  O298  1  0.62262327  0.63376013  0.52599195  1
  O  O299  1  0.62212954  0.62374847  0.79982205  1
  O  O300  1  0.62474518  0.86996857  0.03059934  1
  O  O301  1  0.62959232  0.87846895  0.29113923  1
  O  O302  1  0.61921267  0.88245998  0.53827661  1
  O  O303  1  0.61977177  0.87720245  0.79261158  1
  O  O304  1  0.87296155  0.13209855  0.02719980  1
  O  O305  1  0.87394843  0.11658763  0.28328910  1
  O  O306  1  0.88230814  0.11890562  0.55131659  1
  O  O307  1  0.87951516  0.12065558  0.79874038  1
  O  O308  1  0.87822872  0.37928651  0.04813645  1
  O  O309  1  0.87898942  0.37285601  0.29816371  1
  O  O310  1  0.88736650  0.37087970  0.53234140  1
  O  O311  1  0.87405399  0.37561422  0.79681397  1
  O  O312  1  0.87893377  0.62075975  0.04959994  1
  O  O313  1  0.88172877  0.62851046  0.29292218  1
  O  O314  1  0.87896851  0.62511145  0.52415266  1
  O  O315  1  0.87842648  0.62426298  0.78825872  1
  O  O316  1  0.87548680  0.86947358  0.04348704  1
  O  O317  1  0.87174312  0.87685471  0.29322688  1
  O  O318  1  0.88132095  0.88088779  0.54837241  1
  O  O319  1  0.87510082  0.87400915  0.80177670  1
