# generated using pymatgen
data_VFe(PbO3)2
_symmetry_space_group_name_H-M   'P 1'
_cell_length_a   15.38627962
_cell_length_b   15.38090699
_cell_length_c   18.51168260
_cell_angle_alpha   89.99539043
_cell_angle_beta   90.02026088
_cell_angle_gamma   90.00703538
_symmetry_Int_Tables_number   1
_chemical_formula_structural   VFe(PbO3)2
_chemical_formula_sum   'V32 Fe32 Pb64 O192'
_cell_volume   4380.88073569
_cell_formula_units_Z   32
loop_
 _symmetry_equiv_pos_site_id
 _symmetry_equiv_pos_as_xyz
  1  'x, y, z'
loop_
 _atom_site_type_symbol
 _atom_site_label
 _atom_site_symmetry_multiplicity
 _atom_site_fract_x
 _atom_site_fract_y
 _atom_site_fract_z
 _atom_site_occupancy
  V  V0  1  0.87321067  0.87459826  0.38742229  1
  V  V1  1  0.12606527  0.37307469  0.39153418  1
  V  V2  1  0.37584080  0.37625817  0.39374739  1
  V  V3  1  0.12874648  0.37168201  0.14449151  1
  V  V4  1  0.87528594  0.12454842  0.39383562  1
  V  V5  1  0.12363589  0.12475969  0.89054922  1
  V  V6  1  0.12430461  0.37791170  0.89170211  1
  V  V7  1  0.62536780  0.12281420  0.39509304  1
  V  V8  1  0.37157746  0.37507017  0.88767661  1
  V  V9  1  0.12343280  0.87648468  0.14121254  1
  V  V10  1  0.88020295  0.37514637  0.88849257  1
  V  V11  1  0.37671851  0.12531914  0.13860924  1
  V  V12  1  0.62500821  0.62139964  0.13995148  1
  V  V13  1  0.87331438  0.12138202  0.14174424  1
  V  V14  1  0.12401545  0.62943462  0.63443255  1
  V  V15  1  0.37602514  0.12552845  0.39491886  1
  V  V16  1  0.62286489  0.62641534  0.38995328  1
  V  V17  1  0.12685245  0.12266097  0.39160925  1
  V  V18  1  0.62355750  0.87582585  0.13620925  1
  V  V19  1  0.37856640  0.37260433  0.14075229  1
  V  V20  1  0.87450084  0.62743290  0.63086886  1
  V  V21  1  0.12316351  0.62172379  0.89474377  1
  V  V22  1  0.37652371  0.62689727  0.63428044  1
  V  V23  1  0.87582332  0.37269836  0.14554318  1
  V  V24  1  0.37563451  0.87538712  0.38964495  1
  V  V25  1  0.62688234  0.12422987  0.63792483  1
  V  V26  1  0.37481125  0.87671513  0.13824743  1
  V  V27  1  0.87480161  0.12945609  0.88518170  1
  V  V28  1  0.37374149  0.62109218  0.88979403  1
  V  V29  1  0.87560301  0.62024734  0.89059047  1
  V  V30  1  0.12298203  0.12707272  0.63573176  1
  V  V31  1  0.12452852  0.87682379  0.63813706  1
  Fe  Fe32  1  0.37342249  0.12826255  0.87538923  1
  Fe  Fe33  1  0.37312142  0.87228033  0.64152639  1
  Fe  Fe34  1  0.62572034  0.62581996  0.63326111  1
  Fe  Fe35  1  0.62465029  0.12636529  0.13593699  1
  Fe  Fe36  1  0.12670105  0.62313608  0.14764207  1
  Fe  Fe37  1  0.87302876  0.62569233  0.14666591  1
  Fe  Fe38  1  0.87703188  0.87315794  0.63511721  1
  Fe  Fe39  1  0.12653189  0.88091460  0.38211896  1
  Fe  Fe40  1  0.12511716  0.37861341  0.62849689  1
  Fe  Fe41  1  0.62724606  0.62174564  0.88055784  1
  Fe  Fe42  1  0.37117103  0.87350460  0.88115624  1
  Fe  Fe43  1  0.62703260  0.37244274  0.13668526  1
  Fe  Fe44  1  0.87691613  0.12270320  0.63241386  1
  Fe  Fe45  1  0.37300269  0.12379931  0.64458572  1
  Fe  Fe46  1  0.12497209  0.86856581  0.88861828  1
  Fe  Fe47  1  0.62557578  0.87325860  0.63035291  1
  Fe  Fe48  1  0.87900273  0.87375971  0.88922556  1
  Fe  Fe49  1  0.37588885  0.62554668  0.38104600  1
  Fe  Fe50  1  0.62312879  0.88002873  0.39714302  1
  Fe  Fe51  1  0.12774150  0.62885168  0.37898889  1
  Fe  Fe52  1  0.87675825  0.37648627  0.62531612  1
  Fe  Fe53  1  0.62866246  0.37880347  0.88685653  1
  Fe  Fe54  1  0.87445695  0.37395662  0.39271901  1
  Fe  Fe55  1  0.12540343  0.12736780  0.13773767  1
  Fe  Fe56  1  0.37906225  0.62409312  0.14509552  1
  Fe  Fe57  1  0.87270649  0.87640275  0.13304247  1
  Fe  Fe58  1  0.87343854  0.62631764  0.37874521  1
  Fe  Fe59  1  0.62522341  0.87168812  0.88259357  1
  Fe  Fe60  1  0.37233506  0.37795022  0.63148191  1
  Fe  Fe61  1  0.62488073  0.12798437  0.87737270  1
  Fe  Fe62  1  0.62428811  0.37642995  0.62621841  1
  Fe  Fe63  1  0.62183699  0.37162757  0.39793634  1
  Pb  Pb64  1  -0.00199789  -0.00482548  -0.00013444  1
  Pb  Pb65  1  0.00490762  -0.00316086  0.25075263  1
  Pb  Pb66  1  -0.00852768  -0.00187080  0.50357574  1
  Pb  Pb67  1  -0.00291133  -0.00964791  0.75216860  1
  Pb  Pb68  1  0.00421380  0.24635934  0.00323327  1
  Pb  Pb69  1  -0.00702617  0.25293083  0.25642983  1
  Pb  Pb70  1  -0.00138463  0.25223693  0.50203994  1
  Pb  Pb71  1  -0.00486049  0.25483103  0.74071692  1
  Pb  Pb72  1  -0.00149046  0.51184170  0.01297316  1
  Pb  Pb73  1  -0.00275564  0.50431898  0.25556079  1
  Pb  Pb74  1  -0.00444032  0.50243612  0.49125925  1
  Pb  Pb75  1  -0.00159840  0.50161334  0.74089412  1
  Pb  Pb76  1  -0.00679178  0.74686965  0.00741173  1
  Pb  Pb77  1  -0.00018228  0.74471163  0.24905626  1
  Pb  Pb78  1  0.00072447  0.75137658  0.48864404  1
  Pb  Pb79  1  -0.00051627  0.75682141  0.75409650  1
  Pb  Pb80  1  0.25329167  -0.00126484  -0.00711867  1
  Pb  Pb81  1  0.24875293  -0.00423902  0.25098610  1
  Pb  Pb82  1  0.26119412  -0.00032879  0.50899263  1
  Pb  Pb83  1  0.25805955  -0.00443393  0.75296195  1
  Pb  Pb84  1  0.24662815  0.24614378  -0.00069922  1
  Pb  Pb85  1  0.25381312  0.24844341  0.25321305  1
  Pb  Pb86  1  0.25161083  0.25525119  0.50698416  1
  Pb  Pb87  1  0.25354134  0.25079185  0.74461771  1
  Pb  Pb88  1  0.24969890  0.50911382  0.01126584  1
  Pb  Pb89  1  0.25374144  0.50924900  0.25566572  1
  Pb  Pb90  1  0.24918366  0.49613862  0.49788188  1
  Pb  Pb91  1  0.24857885  0.50053453  0.74397047  1
  Pb  Pb92  1  0.24957378  0.74067198  0.00454471  1
  Pb  Pb93  1  0.25161965  0.74399740  0.25266028  1
  Pb  Pb94  1  0.25110997  0.75194801  0.49221248  1
  Pb  Pb95  1  0.24638470  0.75508321  0.75348658  1
  Pb  Pb96  1  0.50153193  0.00595946  -0.01558834  1
  Pb  Pb97  1  0.50557192  -0.00479523  0.25251032  1
  Pb  Pb98  1  0.48793156  -0.00124047  0.51227743  1
  Pb  Pb99  1  0.50444027  -0.00042586  0.74635804  1
  Pb  Pb100  1  0.51075123  0.24679440  -0.00456975  1
  Pb  Pb101  1  0.51091510  0.25134783  0.25454839  1
  Pb  Pb102  1  0.49219959  0.24912921  0.50838482  1
  Pb  Pb103  1  0.50275284  0.24939243  0.74357678  1
  Pb  Pb104  1  0.49792193  0.50153244  -0.00046244  1
  Pb  Pb105  1  0.51025716  0.49308132  0.25525613  1
  Pb  Pb106  1  0.50852726  0.50352247  0.50413020  1
  Pb  Pb107  1  0.51219608  0.49502296  0.74591913  1
  Pb  Pb108  1  0.50141528  0.75001480  -0.00799243  1
  Pb  Pb109  1  0.50455052  0.75060912  0.25218027  1
  Pb  Pb110  1  0.50710811  0.75200542  0.50422942  1
  Pb  Pb111  1  0.50760341  0.75948683  0.74744046  1
  Pb  Pb112  1  0.74794048  -0.00266074  -0.00932998  1
  Pb  Pb113  1  0.74157816  -0.00680038  0.25271830  1
  Pb  Pb114  1  0.75856552  -0.00370961  0.50743513  1
  Pb  Pb115  1  0.75165178  -0.00787932  0.74504125  1
  Pb  Pb116  1  0.73894086  0.25036624  0.00105888  1
  Pb  Pb117  1  0.74821574  0.25707908  0.25732175  1
  Pb  Pb118  1  0.75117680  0.25535564  0.50186697  1
  Pb  Pb119  1  0.74515156  0.25315256  0.74090469  1
  Pb  Pb120  1  0.74859561  0.49697747  0.00073411  1
  Pb  Pb121  1  0.75912716  0.49266526  0.26003996  1
  Pb  Pb122  1  0.75023831  0.49662691  0.49564925  1
  Pb  Pb123  1  0.74073094  0.49470817  0.74403778  1
  Pb  Pb124  1  0.75554531  0.75079857  -0.00316996  1
  Pb  Pb125  1  0.75084573  0.75211786  0.24892014  1
  Pb  Pb126  1  0.74125601  0.75122026  0.50139686  1
  Pb  Pb127  1  0.74236355  0.75510057  0.74688271  1
  O  O128  1  0.12740123  -0.00102339  0.16535781  1
  O  O129  1  0.12502343  0.00723739  0.41420982  1
  O  O130  1  0.12266501  -0.00591919  0.65803560  1
  O  O131  1  0.12415918  0.00799081  0.91068157  1
  O  O132  1  0.12425041  0.25432881  0.17260851  1
  O  O133  1  0.12746325  0.24708037  0.41668257  1
  O  O134  1  0.12409569  0.24438360  0.65557720  1
  O  O135  1  0.12403062  0.25162601  0.91770822  1
  O  O136  1  0.12585118  0.48644624  0.16974784  1
  O  O137  1  0.12849188  0.49198943  0.40593059  1
  O  O138  1  0.12326268  0.50963108  0.65683260  1
  O  O139  1  0.12359144  0.49959988  0.92297092  1
  O  O140  1  0.12857444  0.75987809  0.16271656  1
  O  O141  1  0.12736385  0.75590857  0.40835398  1
  O  O142  1  0.12281413  0.74873264  0.66247814  1
  O  O143  1  0.12475548  0.74034320  0.92053100  1
  O  O144  1  0.37617211  -0.00287197  0.16353541  1
  O  O145  1  0.37381162  0.00133253  0.42007122  1
  O  O146  1  0.37100468  -0.00210673  0.66799475  1
  O  O147  1  0.36980159  0.00270244  0.90614982  1
  O  O148  1  0.37450368  0.25287377  0.16794543  1
  O  O149  1  0.37204194  0.24926023  0.41951647  1
  O  O150  1  0.36939886  0.25153965  0.66076566  1
  O  O151  1  0.36748054  0.25890119  0.90595840  1
  O  O152  1  0.37540094  0.48786502  0.16633262  1
  O  O153  1  0.37203779  0.49343253  0.40774208  1
  O  O154  1  0.36548495  0.51062079  0.66038563  1
  O  O155  1  0.37006613  0.49957061  0.91927942  1
  O  O156  1  0.37745801  0.76050574  0.16404253  1
  O  O157  1  0.37378915  0.75800979  0.40584045  1
  O  O158  1  0.36763796  0.74059246  0.66344839  1
  O  O159  1  0.37044593  0.73815637  0.91117782  1
  O  O160  1  0.62367775  -0.00119536  0.16474170  1
  O  O161  1  0.62230399  0.00898256  0.42189658  1
  O  O162  1  0.62509246  0.00392668  0.65781463  1
  O  O163  1  0.62651781  0.00128067  0.90734022  1
  O  O164  1  0.62571512  0.24894050  0.17082224  1
  O  O165  1  0.62079187  0.23933667  0.42027210  1
  O  O166  1  0.62591863  0.24734836  0.65696924  1
  O  O167  1  0.62721866  0.25337329  0.91188467  1
  O  O168  1  0.62307326  0.50265891  0.16286818  1
  O  O169  1  0.62032263  0.50651379  0.41247887  1
  O  O170  1  0.62546022  0.50130936  0.65848749  1
  O  O171  1  0.62612185  0.50124229  0.91958314  1
  O  O172  1  0.62271358  0.75019617  0.16465178  1
  O  O173  1  0.62237087  0.74781001  0.41250099  1
  O  O174  1  0.62680671  0.74793210  0.66201773  1
  O  O175  1  0.62518368  0.74397143  0.91448316  1
  O  O176  1  0.87576710  0.00479175  0.16300114  1
  O  O177  1  0.87482541  -0.00018828  0.41656048  1
  O  O178  1  0.87912386  -0.00041430  0.66643876  1
  O  O179  1  0.88070057  0.01126251  0.91053976  1
  O  O180  1  0.87603478  0.24999171  0.17005250  1
  O  O181  1  0.87593179  0.24405140  0.41614351  1
  O  O182  1  0.87909504  0.24903777  0.65725853  1
  O  O183  1  0.88186693  0.24768328  0.91274593  1
  O  O184  1  0.87486149  0.49094029  0.16787153  1
  O  O185  1  0.87499200  0.50267741  0.40998326  1
  O  O186  1  0.88389481  0.50955346  0.65505996  1
  O  O187  1  0.87961567  0.50051903  0.91841742  1
  O  O188  1  0.87351807  0.75458997  0.16763298  1
  O  O189  1  0.87373454  0.75675153  0.40408515  1
  O  O190  1  0.88112978  0.74213572  0.66036854  1
  O  O191  1  0.87925588  0.73956018  0.91312843  1
  O  O192  1  -0.00625517  0.12759626  0.16728993  1
  O  O193  1  0.00489645  0.12631548  0.41321204  1
  O  O194  1  0.00875471  0.12138142  0.66418636  1
  O  O195  1  0.00235789  0.12935916  0.91620945  1
  O  O196  1  -0.00035166  0.37136623  0.16831014  1
  O  O197  1  0.00804573  0.37013469  0.40917191  1
  O  O198  1  0.00185445  0.37728417  0.66002361  1
  O  O199  1  0.00120768  0.37510042  0.92084185  1
  O  O200  1  0.00104347  0.62325472  0.16897133  1
  O  O201  1  0.00115657  0.62730420  0.40475905  1
  O  O202  1  0.00470687  0.62796854  0.66150878  1
  O  O203  1  -0.00212747  0.62035832  0.92102699  1
  O  O204  1  0.00560413  0.87922755  0.16017810  1
  O  O205  1  -0.00641672  0.87984269  0.40778653  1
  O  O206  1  0.00654309  0.87085137  0.66461839  1
  O  O207  1  0.00280444  0.87424157  0.92162859  1
  O  O208  1  0.25544940  0.12672708  0.16762040  1
  O  O209  1  0.24660726  0.12562508  0.41602574  1
  O  O210  1  0.23675893  0.12024300  0.66431907  1
  O  O211  1  0.24323357  0.13068467  0.91026275  1
  O  O212  1  0.24990318  0.36954193  0.16480827  1
  O  O213  1  0.25042044  0.36999575  0.41484248  1
  O  O214  1  0.24605399  0.37862130  0.66469174  1
  O  O215  1  0.24877108  0.37844929  0.91863489  1
  O  O216  1  0.25347711  0.62389769  0.16849401  1
  O  O217  1  0.25184206  0.62540751  0.41055365  1
  O  O218  1  0.24168355  0.62808687  0.66066089  1
  O  O219  1  0.25054984  0.61942274  0.91948358  1
  O  O220  1  0.25435173  0.87940299  0.16230856  1
  O  O221  1  0.25653413  0.88172598  0.41233546  1
  O  O222  1  0.24010090  0.87017810  0.66408570  1
  O  O223  1  0.24877894  0.87172500  0.91968372  1
  O  O224  1  0.49474775  0.12551366  0.16602639  1
  O  O225  1  0.49816924  0.12476203  0.42071066  1
  O  O226  1  0.50617153  0.12580599  0.66101690  1
  O  O227  1  0.49731401  0.13029728  0.90557389  1
  O  O228  1  0.49565056  0.37166050  0.16416090  1
  O  O229  1  0.49071524  0.37046512  0.41568993  1
  O  O230  1  0.49825840  0.37775905  0.65662632  1
  O  O231  1  0.48791650  0.37905986  0.90882574  1
  O  O232  1  0.50814926  0.62572585  0.16884933  1
  O  O233  1  0.50123286  0.62704196  0.41354882  1
  O  O234  1  0.49090376  0.62461060  0.65303598  1
  O  O235  1  0.49185767  0.61857909  0.90913899  1
  O  O236  1  0.49800219  0.87775163  0.16566425  1
  O  O237  1  0.49132438  0.88049509  0.41597078  1
  O  O238  1  0.50059099  0.87225320  0.66036218  1
  O  O239  1  0.49673131  0.87118669  0.91090807  1
  O  O240  1  0.75752626  0.12725585  0.16725220  1
  O  O241  1  0.74583553  0.12419521  0.41523263  1
  O  O242  1  0.74655266  0.12448180  0.65938369  1
  O  O243  1  0.75954658  0.12866988  0.90555112  1
  O  O244  1  0.75576132  0.37167742  0.16737903  1
  O  O245  1  0.74777652  0.37243750  0.41456694  1
  O  O246  1  0.75197333  0.37686166  0.65231882  1
  O  O247  1  0.76068528  0.37645668  0.91401035  1
  O  O248  1  0.73965330  0.62514881  0.16663301  1
  O  O249  1  0.74266290  0.62699059  0.40918333  1
  O  O250  1  0.76003563  0.62503009  0.64913625  1
  O  O251  1  0.75877961  0.62050201  0.91109105  1
  O  O252  1  0.74482099  0.87756771  0.16391107  1
  O  O253  1  0.75616224  0.87946612  0.41373228  1
  O  O254  1  0.75116693  0.87393895  0.65945459  1
  O  O255  1  0.75274753  0.87364318  0.91367787  1
  O  O256  1  0.12532744  0.13367952  0.03870579  1
  O  O257  1  0.12713087  0.12494915  0.30025306  1
  O  O258  1  0.12227111  0.12368674  0.54457609  1
  O  O259  1  0.11987102  0.12906799  0.80028746  1
  O  O260  1  0.12609091  0.36969538  0.05366502  1
  O  O261  1  0.13145634  0.36640769  0.30051063  1
  O  O262  1  0.13096704  0.37488477  0.52883823  1
  O  O263  1  0.12356313  0.37804075  0.80093081  1
  O  O264  1  0.12840720  0.61728108  0.04595159  1
  O  O265  1  0.13121910  0.62613299  0.27718742  1
  O  O266  1  0.12332577  0.63200574  0.54326676  1
  O  O267  1  0.12223006  0.62122844  0.80372204  1
  O  O268  1  0.12741665  0.87898073  0.05024096  1
  O  O269  1  0.12727600  0.88707090  0.28240305  1
  O  O270  1  0.12450048  0.87276649  0.54689063  1
  O  O271  1  0.12164499  0.86585462  0.78861844  1
  O  O272  1  0.37432596  0.12815402  0.04754541  1
  O  O273  1  0.37718622  0.12454126  0.30398874  1
  O  O274  1  0.37378410  0.11588451  0.54176817  1
  O  O275  1  0.36894439  0.12935617  0.77500518  1
  O  O276  1  0.37713915  0.37128008  0.05001759  1
  O  O277  1  0.37378178  0.36863069  0.30234007  1
  O  O278  1  0.36557282  0.37692653  0.53116496  1
  O  O279  1  0.36617801  0.38345871  0.79687564  1
  O  O280  1  0.37509996  0.61891292  0.04475285  1
  O  O281  1  0.37551790  0.62703145  0.28032898  1
  O  O282  1  0.37016147  0.62786819  0.54274249  1
  O  O283  1  0.36770241  0.61595202  0.79955484  1
  O  O284  1  0.37591169  0.87678359  0.04769553  1
  O  O285  1  0.37728793  0.88320590  0.29820850  1
  O  O286  1  0.36912732  0.88034574  0.54048388  1
  O  O287  1  0.36367561  0.86738712  0.78044889  1
  O  O288  1  0.62497005  0.13443796  0.03633520  1
  O  O289  1  0.62200190  0.12239129  0.30329009  1
  O  O290  1  0.62536742  0.12581508  0.54700982  1
  O  O291  1  0.62581152  0.13254661  0.77809535  1
  O  O292  1  0.62979955  0.36762408  0.03673579  1
  O  O293  1  0.61713825  0.37097714  0.29526655  1
  O  O294  1  0.62049467  0.37897755  0.52415263  1
  O  O295  1  0.62858732  0.38619502  0.78598133  1
  O  O296  1  0.62400849  0.62335530  0.04892464  1
  O  O297  1  0.61934053  0.62573868  0.29836189  1
  O  O298  1  0.61987986  0.63091915  0.53208661  1
  O  O299  1  0.62922485  0.61587483  0.78027881  1
  O  O300  1  0.62254211  0.87486289  0.04522731  1
  O  O301  1  0.62275561  0.88602000  0.29605402  1
  O  O302  1  0.62598033  0.86529303  0.52732474  1
  O  O303  1  0.62693333  0.86593821  0.78184503  1
  O  O304  1  0.87321094  0.12578453  0.05085359  1
  O  O305  1  0.87367910  0.12130987  0.30251524  1
  O  O306  1  0.87923006  0.11545071  0.53192476  1
  O  O307  1  0.88077811  0.13115613  0.79442129  1
  O  O308  1  0.87614241  0.37108408  0.05493739  1
  O  O309  1  0.87173087  0.37157012  0.29059825  1
  O  O310  1  0.88084726  0.37611918  0.52385395  1
  O  O311  1  0.88238434  0.37774885  0.79743134  1
  O  O312  1  0.87824176  0.62257334  0.04566430  1
  O  O313  1  0.86968103  0.62124973  0.27756889  1
  O  O314  1  0.88215619  0.62894448  0.53930229  1
  O  O315  1  0.88048741  0.61678500  0.80008971  1
  O  O316  1  0.87527423  0.87457279  0.03302067  1
  O  O317  1  0.87045323  0.88239368  0.29609647  1
  O  O318  1  0.87942362  0.88049430  0.53490955  1
  O  O319  1  0.88623046  0.87379197  0.78832559  1
