# generated using pymatgen
data_VFe(PbO3)2
_symmetry_space_group_name_H-M   'P 1'
_cell_length_a   15.37817234
_cell_length_b   15.36881697
_cell_length_c   18.58786659
_cell_angle_alpha   89.96739379
_cell_angle_beta   89.96860152
_cell_angle_gamma   90.01953735
_symmetry_Int_Tables_number   1
_chemical_formula_structural   VFe(PbO3)2
_chemical_formula_sum   'V32 Fe32 Pb64 O192'
_cell_volume   4393.13498712
_cell_formula_units_Z   32
loop_
 _symmetry_equiv_pos_site_id
 _symmetry_equiv_pos_as_xyz
  1  'x, y, z'
loop_
 _atom_site_type_symbol
 _atom_site_label
 _atom_site_symmetry_multiplicity
 _atom_site_fract_x
 _atom_site_fract_y
 _atom_site_fract_z
 _atom_site_occupancy
  V  V0  1  0.37211943  0.87168024  0.88565641  1
  V  V1  1  0.12538836  0.87559921  0.89314014  1
  V  V2  1  0.87385623  0.12464229  0.38934515  1
  V  V3  1  0.62017012  0.87479792  0.13577515  1
  V  V4  1  0.87596279  0.87506438  0.63727219  1
  V  V5  1  0.87243256  0.37322919  0.64386608  1
  V  V6  1  0.37248927  0.37017248  0.88880771  1
  V  V7  1  0.37592399  0.87019808  0.39677180  1
  V  V8  1  0.62761634  0.87743138  0.39629676  1
  V  V9  1  0.62383597  0.37348705  0.63997947  1
  V  V10  1  0.12814316  0.12318255  0.88900944  1
  V  V11  1  0.37427536  0.61987914  0.63420852  1
  V  V12  1  0.12169249  0.12463002  0.14070995  1
  V  V13  1  0.37575376  0.12688635  0.14034242  1
  V  V14  1  0.12723259  0.62554717  0.89300815  1
  V  V15  1  0.36941679  0.11812679  0.88640185  1
  V  V16  1  0.37097671  0.62359614  0.88711714  1
  V  V17  1  0.12288295  0.37381099  0.63731571  1
  V  V18  1  0.62304961  0.37668102  0.13808860  1
  V  V19  1  0.12244019  0.12141474  0.63556034  1
  V  V20  1  0.37632860  0.37665073  0.39159953  1
  V  V21  1  0.62840864  0.12297102  0.64101191  1
  V  V22  1  0.87474562  0.62679392  0.88781304  1
  V  V23  1  0.62472681  0.62301245  0.39533494  1
  V  V24  1  0.12183655  0.87990441  0.39343363  1
  V  V25  1  0.62558593  0.62689346  0.13536131  1
  V  V26  1  0.87363841  0.37972985  0.38943458  1
  V  V27  1  0.12639889  0.62316377  0.39054655  1
  V  V28  1  0.87425095  0.62938692  0.39112114  1
  V  V29  1  0.37533839  0.62481281  0.14310820  1
  V  V30  1  0.87752674  0.37340958  0.13519627  1
  V  V31  1  0.37609858  0.12165272  0.39437898  1
  Fe  Fe32  1  0.12820682  0.37463091  0.13447398  1
  Fe  Fe33  1  0.37754782  0.37345771  0.13557047  1
  Fe  Fe34  1  0.87706400  0.12405410  0.87852380  1
  Fe  Fe35  1  0.62254820  0.87383788  0.87702513  1
  Fe  Fe36  1  0.37675098  0.87701497  0.13757108  1
  Fe  Fe37  1  0.87697710  0.87482233  0.89100952  1
  Fe  Fe38  1  0.62584840  0.37781786  0.88271366  1
  Fe  Fe39  1  0.12879598  0.87491571  0.13532238  1
  Fe  Fe40  1  0.62342572  0.12575848  0.38773174  1
  Fe  Fe41  1  0.62827328  0.37296228  0.38862247  1
  Fe  Fe42  1  0.12546139  0.12719843  0.38591560  1
  Fe  Fe43  1  0.12566865  0.37465841  0.89192837  1
  Fe  Fe44  1  0.62086451  0.62514062  0.87878916  1
  Fe  Fe45  1  0.37534425  0.12996895  0.63328368  1
  Fe  Fe46  1  0.87345236  0.87654196  0.12928747  1
  Fe  Fe47  1  0.87210014  0.62353385  0.13223543  1
  Fe  Fe48  1  0.37688679  0.62642542  0.38695648  1
  Fe  Fe49  1  0.87643482  0.12551583  0.64816876  1
  Fe  Fe50  1  0.37427064  0.87684054  0.62961667  1
  Fe  Fe51  1  0.12326729  0.87374081  0.62879344  1
  Fe  Fe52  1  0.87705448  0.62229297  0.63556021  1
  Fe  Fe53  1  0.37475165  0.37435406  0.63352646  1
  Fe  Fe54  1  0.62566396  0.87517605  0.64090119  1
  Fe  Fe55  1  0.87214631  0.12833020  0.13210411  1
  Fe  Fe56  1  0.12216586  0.37286365  0.38592239  1
  Fe  Fe57  1  0.87917470  0.37582549  0.88318917  1
  Fe  Fe58  1  0.12297651  0.62589178  0.13473180  1
  Fe  Fe59  1  0.87348183  0.87409408  0.38589555  1
  Fe  Fe60  1  0.62811871  0.62263907  0.64165727  1
  Fe  Fe61  1  0.62170806  0.12597773  0.88273751  1
  Fe  Fe62  1  0.12223183  0.62262573  0.63290022  1
  Fe  Fe63  1  0.62290137  0.12472379  0.13206208  1
  Pb  Pb64  1  -0.01296685  0.00057867  0.00457663  1
  Pb  Pb65  1  -0.00820462  -0.00697057  0.24523008  1
  Pb  Pb66  1  -0.00907941  0.00628259  0.50456086  1
  Pb  Pb67  1  -0.00975656  -0.00515909  0.75576598  1
  Pb  Pb68  1  -0.00385790  0.25011565  -0.00510660  1
  Pb  Pb69  1  0.01122708  0.24894439  0.25376258  1
  Pb  Pb70  1  -0.00299351  0.24554492  0.49987086  1
  Pb  Pb71  1  -0.00172140  0.25495365  0.75520651  1
  Pb  Pb72  1  0.00246935  0.50701628  0.00233721  1
  Pb  Pb73  1  0.00321050  0.50050213  0.24411359  1
  Pb  Pb74  1  -0.00188406  0.50942705  0.50292093  1
  Pb  Pb75  1  0.00110717  0.49239182  0.75374927  1
  Pb  Pb76  1  0.00099723  0.74383810  0.00680223  1
  Pb  Pb77  1  -0.00469373  0.75327411  0.24150141  1
  Pb  Pb78  1  0.00536409  0.74734072  0.50135818  1
  Pb  Pb79  1  -0.00030556  0.74917733  0.74474920  1
  Pb  Pb80  1  0.25139676  -0.01115990  0.00626747  1
  Pb  Pb81  1  0.24839270  0.00333664  0.25101868  1
  Pb  Pb82  1  0.25301396  -0.00392376  0.50322896  1
  Pb  Pb83  1  0.25334821  -0.00255354  0.74000722  1
  Pb  Pb84  1  0.25128817  0.25906011  0.00536000  1
  Pb  Pb85  1  0.24507326  0.25160696  0.25275460  1
  Pb  Pb86  1  0.25587877  0.24987726  0.50053663  1
  Pb  Pb87  1  0.24607705  0.25370314  0.74687100  1
  Pb  Pb88  1  0.24891733  0.49402573  0.00709252  1
  Pb  Pb89  1  0.24728012  0.49423072  0.24757661  1
  Pb  Pb90  1  0.24978622  0.49854340  0.49840783  1
  Pb  Pb91  1  0.24471761  0.49383133  0.74854548  1
  Pb  Pb92  1  0.24631151  0.75363481  0.00636204  1
  Pb  Pb93  1  0.24868465  0.75195673  0.24890557  1
  Pb  Pb94  1  0.24486435  0.75399049  0.50237172  1
  Pb  Pb95  1  0.24836901  0.74971033  0.73862886  1
  Pb  Pb96  1  0.50732494  0.00214696  -0.00460642  1
  Pb  Pb97  1  0.50497168  0.00663879  0.25150178  1
  Pb  Pb98  1  0.49901757  -0.00770050  0.50710691  1
  Pb  Pb99  1  0.50411432  -0.00101772  0.74499899  1
  Pb  Pb100  1  0.50782118  0.24708343  -0.00082905  1
  Pb  Pb101  1  0.50946366  0.25012051  0.25322943  1
  Pb  Pb102  1  0.49378684  0.24874435  0.50274590  1
  Pb  Pb103  1  0.50566047  0.24879791  0.75113764  1
  Pb  Pb104  1  0.49517978  0.49821863  -0.00367894  1
  Pb  Pb105  1  0.49736704  0.50315371  0.25310961  1
  Pb  Pb106  1  0.49798212  0.49649262  0.50258133  1
  Pb  Pb107  1  0.50653144  0.50036478  0.75012358  1
  Pb  Pb108  1  0.49748233  0.75439733  -0.00679857  1
  Pb  Pb109  1  0.49730678  0.74529038  0.25337973  1
  Pb  Pb110  1  0.51012116  0.75134411  0.50970853  1
  Pb  Pb111  1  0.50514179  0.75225111  0.74360135  1
  Pb  Pb112  1  0.75230480  0.00368631  -0.01061017  1
  Pb  Pb113  1  0.75230567  0.00106017  0.24343019  1
  Pb  Pb114  1  0.75259025  0.00140984  0.50467867  1
  Pb  Pb115  1  0.75912703  -0.00750494  0.75793617  1
  Pb  Pb116  1  0.75195642  0.24231711  -0.01198817  1
  Pb  Pb117  1  0.74232232  0.24767926  0.24749251  1
  Pb  Pb118  1  0.74976129  0.24600069  0.50082249  1
  Pb  Pb119  1  0.74305951  0.24853939  0.75779582  1
  Pb  Pb120  1  0.75012959  0.50030335  -0.00843559  1
  Pb  Pb121  1  0.74426800  0.49386646  0.24831497  1
  Pb  Pb122  1  0.75133771  0.51138010  0.50714475  1
  Pb  Pb123  1  0.74977679  0.49746440  0.75197417  1
  Pb  Pb124  1  0.75087673  0.75606652  -0.00833632  1
  Pb  Pb125  1  0.75612366  0.75585753  0.24542792  1
  Pb  Pb126  1  0.74222825  0.74841301  0.50964241  1
  Pb  Pb127  1  0.74618108  0.75001460  0.74762722  1
  O  O128  1  0.12896155  0.00738242  0.16538911  1
  O  O129  1  0.12707424  -0.00319433  0.41114635  1
  O  O130  1  0.12625511  0.00501668  0.65361521  1
  O  O131  1  0.13601746  -0.00041938  0.91286993  1
  O  O132  1  0.12776794  0.24501186  0.16417628  1
  O  O133  1  0.12227298  0.25015068  0.41832288  1
  O  O134  1  0.12297228  0.25433802  0.66189589  1
  O  O135  1  0.13247537  0.24081631  0.91302228  1
  O  O136  1  0.12603917  0.50011534  0.16450368  1
  O  O137  1  0.12268659  0.50270523  0.41152407  1
  O  O138  1  0.12297617  0.49253602  0.66236320  1
  O  O139  1  0.12833642  0.50944538  0.91364516  1
  O  O140  1  0.12852456  0.74922897  0.16771562  1
  O  O141  1  0.12401718  0.74617019  0.41403241  1
  O  O142  1  0.12434689  0.74886795  0.66180429  1
  O  O143  1  0.12960986  0.75278273  0.91568195  1
  O  O144  1  0.37649752  0.00802811  0.16851783  1
  O  O145  1  0.37529299  0.00256199  0.41603031  1
  O  O146  1  0.37334421  0.00490906  0.66115003  1
  O  O147  1  0.37099972  0.00102078  0.90751827  1
  O  O148  1  0.37758036  0.24371907  0.16515131  1
  O  O149  1  0.37598881  0.25196689  0.41290824  1
  O  O150  1  0.37292202  0.25226023  0.66742677  1
  O  O151  1  0.36978289  0.25411753  0.90583720  1
  O  O152  1  0.38062339  0.50502346  0.16661324  1
  O  O153  1  0.37692998  0.49718885  0.41514945  1
  O  O154  1  0.37351148  0.50105678  0.66396936  1
  O  O155  1  0.36887198  0.50536274  0.91324518  1
  O  O156  1  0.37958915  0.74472260  0.16663333  1
  O  O157  1  0.37589852  0.75032692  0.41820407  1
  O  O158  1  0.37379341  0.73980692  0.65468607  1
  O  O159  1  0.37020325  0.74581353  0.91134107  1
  O  O160  1  0.62043189  -0.00661436  0.15852450  1
  O  O161  1  0.62421312  -0.00399604  0.41709548  1
  O  O162  1  0.62531401  0.00667220  0.65950974  1
  O  O163  1  0.61704615  -0.00061099  0.90800394  1
  O  O164  1  0.62236725  0.25688353  0.16068917  1
  O  O165  1  0.62748520  0.24894473  0.41999135  1
  O  O166  1  0.62847217  0.25355419  0.66476798  1
  O  O167  1  0.61868388  0.25312558  0.91318818  1
  O  O168  1  0.62395592  0.49888577  0.16266592  1
  O  O169  1  0.62796764  0.50432052  0.41512119  1
  O  O170  1  0.62779626  0.49144435  0.66242770  1
  O  O171  1  0.62193240  0.50319004  0.91438607  1
  O  O172  1  0.62252324  0.75205671  0.16322291  1
  O  O173  1  0.62603741  0.74987441  0.42037119  1
  O  O174  1  0.62562847  0.74850240  0.66409197  1
  O  O175  1  0.62037236  0.74811866  0.91024035  1
  O  O176  1  0.87268093  0.00187460  0.16293620  1
  O  O177  1  0.87477722  0.00349513  0.41620493  1
  O  O178  1  0.87696469  -0.00575071  0.66661842  1
  O  O179  1  0.87963751  0.00199074  0.91335728  1
  O  O180  1  0.87035138  0.25848767  0.16207204  1
  O  O181  1  0.87401272  0.24609557  0.41209796  1
  O  O182  1  0.87800484  0.25641252  0.66789972  1
  O  O183  1  0.88158144  0.24779813  0.90837852  1
  O  O184  1  0.86981989  0.49029653  0.16341744  1
  O  O185  1  0.87325271  0.49802799  0.41242682  1
  O  O186  1  0.87741002  0.49063500  0.66555494  1
  O  O187  1  0.88194948  0.50985114  0.91150458  1
  O  O188  1  0.87028487  0.75112971  0.16054291  1
  O  O189  1  0.87518867  0.74782568  0.41390440  1
  O  O190  1  0.87618168  0.75652517  0.65869286  1
  O  O191  1  0.88081884  0.74416206  0.91303445  1
  O  O192  1  0.00466453  0.12680942  0.16054579  1
  O  O193  1  -0.00680964  0.12367300  0.41500955  1
  O  O194  1  0.01034544  0.12842563  0.66651139  1
  O  O195  1  0.01343681  0.12053682  0.90903467  1
  O  O196  1  -0.00560345  0.37435929  0.15550374  1
  O  O197  1  -0.01041504  0.37320828  0.41426411  1
  O  O198  1  0.00235586  0.37362265  0.66357560  1
  O  O199  1  0.00252217  0.37719098  0.91746675  1
  O  O200  1  -0.00380533  0.62273710  0.16581193  1
  O  O201  1  0.00104005  0.62365680  0.41394987  1
  O  O202  1  -0.00071105  0.62280911  0.66837040  1
  O  O203  1  0.00654024  0.62960829  0.91380622  1
  O  O204  1  0.00132997  0.87718566  0.15933281  1
  O  O205  1  0.00479659  0.87357298  0.41157519  1
  O  O206  1  -0.00383752  0.87611674  0.66038736  1
  O  O207  1  0.01123548  0.87664049  0.91307137  1
  O  O208  1  0.25353260  0.12623272  0.16447126  1
  O  O209  1  0.25632921  0.12614018  0.41405566  1
  O  O210  1  0.23930473  0.13052357  0.66112820  1
  O  O211  1  0.25507645  0.12518001  0.91942700  1
  O  O212  1  0.25389134  0.37452425  0.16685847  1
  O  O213  1  0.25567670  0.37588647  0.41186229  1
  O  O214  1  0.24270391  0.37509838  0.66049551  1
  O  O215  1  0.25528574  0.37910525  0.91781448  1
  O  O216  1  0.25833638  0.62387307  0.16219419  1
  O  O217  1  0.24492444  0.62320088  0.41074356  1
  O  O218  1  0.25381091  0.61988783  0.65978969  1
  O  O219  1  0.24961101  0.62829615  0.91644237  1
  O  O220  1  0.25377538  0.87701799  0.17193466  1
  O  O221  1  0.24690483  0.87262839  0.41610140  1
  O  O222  1  0.24955413  0.87417016  0.65999134  1
  O  O223  1  0.25079099  0.87371805  0.91899424  1
  O  O224  1  0.49603228  0.12550619  0.16637312  1
  O  O225  1  0.49442791  0.12514150  0.41787377  1
  O  O226  1  0.50795962  0.13105922  0.66025672  1
  O  O227  1  0.48429342  0.12806543  0.91233794  1
  O  O228  1  0.50543027  0.37700490  0.16391052  1
  O  O229  1  0.49644056  0.37546664  0.41533517  1
  O  O230  1  0.50675121  0.37373666  0.65834651  1
  O  O231  1  0.48881891  0.38130965  0.91044925  1
  O  O232  1  0.50264829  0.62515837  0.16874492  1
  O  O233  1  0.50734834  0.62533970  0.41741678  1
  O  O234  1  0.49253121  0.61924240  0.65951495  1
  O  O235  1  0.48818627  0.62454237  0.90949879  1
  O  O236  1  0.50432110  0.87376991  0.16707856  1
  O  O237  1  0.50435647  0.87393303  0.42038801  1
  O  O238  1  0.49681436  0.87581212  0.66096077  1
  O  O239  1  0.49155918  0.87238442  0.90890898  1
  O  O240  1  0.74660371  0.12727183  0.16044339  1
  O  O241  1  0.75559766  0.12227203  0.41532932  1
  O  O242  1  0.74453256  0.12890855  0.66680170  1
  O  O243  1  0.74968019  0.12580831  0.90187034  1
  O  O244  1  0.74461662  0.37594457  0.16184751  1
  O  O245  1  0.75880375  0.37328226  0.41888149  1
  O  O246  1  0.75180235  0.37311406  0.66425992  1
  O  O247  1  0.75277502  0.37839877  0.91140010  1
  O  O248  1  0.74387268  0.62336546  0.16298399  1
  O  O249  1  0.74758448  0.62597325  0.41902681  1
  O  O250  1  0.75483679  0.62134931  0.66771464  1
  O  O251  1  0.75650292  0.62620387  0.90385790  1
  O  O252  1  0.73881427  0.87478806  0.15935538  1
  O  O253  1  0.74507483  0.87476842  0.41778104  1
  O  O254  1  0.75750917  0.87687505  0.66243876  1
  O  O255  1  0.74827424  0.87358001  0.90910678  1
  O  O256  1  0.12595030  0.12442713  0.05032180  1
  O  O257  1  0.12404514  0.13419457  0.28663955  1
  O  O258  1  0.11922998  0.12689319  0.54424480  1
  O  O259  1  0.13259011  0.12267885  0.79870497  1
  O  O260  1  0.13787281  0.37404987  0.03407393  1
  O  O261  1  0.12188657  0.36667373  0.28610698  1
  O  O262  1  0.12134457  0.37433592  0.54658699  1
  O  O263  1  0.12802193  0.37693573  0.79169556  1
  O  O264  1  0.11927203  0.63103398  0.03494205  1
  O  O265  1  0.12243216  0.62477891  0.30004403  1
  O  O266  1  0.11750429  0.62239587  0.53320919  1
  O  O267  1  0.12784530  0.62778745  0.80238014  1
  O  O268  1  0.13827921  0.87522768  0.03583073  1
  O  O269  1  0.12696464  0.87427947  0.30278261  1
  O  O270  1  0.12558712  0.86923461  0.52930864  1
  O  O271  1  0.12909365  0.87397621  0.80260226  1
  O  O272  1  0.37650689  0.12486540  0.04986425  1
  O  O273  1  0.37850885  0.12295085  0.30365165  1
  O  O274  1  0.37245970  0.13381667  0.53360400  1
  O  O275  1  0.36691575  0.12123738  0.79581029  1
  O  O276  1  0.37240134  0.37767769  0.03620703  1
  O  O277  1  0.37867906  0.37745567  0.30074198  1
  O  O278  1  0.37523363  0.37482619  0.53405043  1
  O  O279  1  0.36886012  0.37818071  0.79806336  1
  O  O280  1  0.37969422  0.62479518  0.05249538  1
  O  O281  1  0.38615803  0.62512521  0.28838773  1
  O  O282  1  0.37381562  0.61447011  0.54309599  1
  O  O283  1  0.36825528  0.62212834  0.79699826  1
  O  O284  1  0.37173746  0.87547164  0.03864053  1
  O  O285  1  0.37880322  0.87603347  0.30601900  1
  O  O286  1  0.37220064  0.88324359  0.52922226  1
  O  O287  1  0.36717922  0.87241999  0.79500010  1
  O  O288  1  0.61218428  0.12659599  0.03234650  1
  O  O289  1  0.61843007  0.12872138  0.28809193  1
  O  O290  1  0.63139007  0.12690309  0.54958324  1
  O  O291  1  0.61647382  0.13437111  0.78280664  1
  O  O292  1  0.62215502  0.37849725  0.04749379  1
  O  O293  1  0.63100442  0.37173505  0.28938551  1
  O  O294  1  0.62949787  0.37204326  0.54918389  1
  O  O295  1  0.62416550  0.37480164  0.78283974  1
  O  O296  1  0.62228533  0.62704082  0.04493420  1
  O  O297  1  0.62717082  0.62789190  0.30486158  1
  O  O298  1  0.63228263  0.62699369  0.54033820  1
  O  O299  1  0.61839046  0.61910945  0.77857652  1
  O  O300  1  0.61585523  0.87200123  0.04509611  1
  O  O301  1  0.62535152  0.87441710  0.30595506  1
  O  O302  1  0.62486691  0.87014999  0.53957472  1
  O  O303  1  0.62154430  0.87507733  0.77642570  1
  O  O304  1  0.88003239  0.12481482  0.03292689  1
  O  O305  1  0.87411013  0.12366230  0.29873920  1
  O  O306  1  0.88055656  0.11987543  0.54747862  1
  O  O307  1  0.88275216  0.11748021  0.77661882  1
  O  O308  1  0.87316389  0.37438377  0.04447026  1
  O  O309  1  0.87107258  0.37723247  0.29893084  1
  O  O310  1  0.87394650  0.37346011  0.55314298  1
  O  O311  1  0.88417899  0.37843912  0.78340649  1
  O  O312  1  0.88120265  0.62333440  0.03333473  1
  O  O313  1  0.87080005  0.62443936  0.30067217  1
  O  O314  1  0.87694521  0.61541589  0.53504488  1
  O  O315  1  0.88177584  0.62740803  0.79719698  1
  O  O316  1  0.87355669  0.87992957  0.02879189  1
  O  O317  1  0.86841946  0.87814843  0.28696125  1
  O  O318  1  0.87530642  0.88077847  0.54595013  1
  O  O319  1  0.87906033  0.88210590  0.79016483  1
