# generated using pymatgen
data_VFe(PbO3)2
_symmetry_space_group_name_H-M   'P 1'
_cell_length_a   15.39925126
_cell_length_b   15.39208872
_cell_length_c   18.51570692
_cell_angle_alpha   90.01939615
_cell_angle_beta   89.95187791
_cell_angle_gamma   89.99810362
_symmetry_Int_Tables_number   1
_chemical_formula_structural   VFe(PbO3)2
_chemical_formula_sum   'V32 Fe32 Pb64 O192'
_cell_volume   4388.71402463
_cell_formula_units_Z   32
loop_
 _symmetry_equiv_pos_site_id
 _symmetry_equiv_pos_as_xyz
  1  'x, y, z'
loop_
 _atom_site_type_symbol
 _atom_site_label
 _atom_site_symmetry_multiplicity
 _atom_site_fract_x
 _atom_site_fract_y
 _atom_site_fract_z
 _atom_site_occupancy
  V  V0  1  0.87435928  0.12747359  0.14935078  1
  V  V1  1  0.37515672  0.12506150  0.14118067  1
  V  V2  1  0.37247859  0.13311545  0.38653789  1
  V  V3  1  0.12541688  0.37614551  0.39217492  1
  V  V4  1  0.87516247  0.87437776  0.14891213  1
  V  V5  1  0.12375321  0.12584530  0.14321094  1
  V  V6  1  0.37280870  0.37193806  0.63825975  1
  V  V7  1  0.36789030  0.38397287  0.39080797  1
  V  V8  1  0.38027673  0.37650011  0.88854092  1
  V  V9  1  0.62656981  0.87388174  0.89086902  1
  V  V10  1  0.12440792  0.87583403  0.14115369  1
  V  V11  1  0.87080307  0.62175136  0.39908594  1
  V  V12  1  0.37152121  0.87812994  0.64220509  1
  V  V13  1  0.87174123  0.62620338  0.88629107  1
  V  V14  1  0.37713470  0.87572040  0.13868463  1
  V  V15  1  0.12339542  0.87559614  0.63760834  1
  V  V16  1  0.36953012  0.88125236  0.38602059  1
  V  V17  1  0.87685431  0.62484721  0.14384457  1
  V  V18  1  0.12400042  0.37241253  0.63931530  1
  V  V19  1  0.62699402  0.12753281  0.89117034  1
  V  V20  1  0.62585593  0.37507214  0.14584481  1
  V  V21  1  0.62897369  0.62223629  0.88797858  1
  V  V22  1  0.62241467  0.87621669  0.63161531  1
  V  V23  1  0.37693402  0.12513963  0.89081035  1
  V  V24  1  0.62450515  0.12426292  0.15167524  1
  V  V25  1  0.87084481  0.37564604  0.88676401  1
  V  V26  1  0.37099965  0.62953324  0.38882453  1
  V  V27  1  0.12566524  0.62257418  0.39178038  1
  V  V28  1  0.62146066  0.12138686  0.63223147  1
  V  V29  1  0.37569291  0.37383880  0.13969668  1
  V  V30  1  0.87073467  0.37636092  0.40135164  1
  V  V31  1  0.62586675  0.62599195  0.14674152  1
  Fe  Fe32  1  0.11984183  0.37477598  0.13294594  1
  Fe  Fe33  1  0.88048591  0.87154511  0.38872967  1
  Fe  Fe34  1  0.12306829  0.62349279  0.87756913  1
  Fe  Fe35  1  0.37912432  0.62395178  0.13408926  1
  Fe  Fe36  1  0.37861091  0.87651813  0.88497748  1
  Fe  Fe37  1  0.12573478  0.62502100  0.13296640  1
  Fe  Fe38  1  0.62307658  0.12407462  0.38190706  1
  Fe  Fe39  1  0.61826841  0.37402494  0.39842212  1
  Fe  Fe40  1  0.62649816  0.87597765  0.15032965  1
  Fe  Fe41  1  0.12718816  0.62610455  0.64576919  1
  Fe  Fe42  1  0.12265419  0.87649966  0.88054901  1
  Fe  Fe43  1  0.87124161  0.87484573  0.88294669  1
  Fe  Fe44  1  0.86973363  0.12500961  0.88167314  1
  Fe  Fe45  1  0.87778811  0.12675645  0.38780511  1
  Fe  Fe46  1  0.62431674  0.37548506  0.88245588  1
  Fe  Fe47  1  0.62253756  0.87453595  0.38007372  1
  Fe  Fe48  1  0.62323833  0.62893693  0.62464222  1
  Fe  Fe49  1  0.62057564  0.62606240  0.39751461  1
  Fe  Fe50  1  0.11928276  0.12578095  0.88080498  1
  Fe  Fe51  1  0.87580979  0.62543323  0.62406726  1
  Fe  Fe52  1  0.12921449  0.12362880  0.63861411  1
  Fe  Fe53  1  0.13085382  0.87186383  0.38526381  1
  Fe  Fe54  1  0.12221158  0.37381501  0.88437067  1
  Fe  Fe55  1  0.37526447  0.62437850  0.64581739  1
  Fe  Fe56  1  0.37926496  0.62570079  0.88064368  1
  Fe  Fe57  1  0.37554814  0.12454201  0.63673798  1
  Fe  Fe58  1  0.87659538  0.12376768  0.62734204  1
  Fe  Fe59  1  0.87064702  0.37642396  0.14039080  1
  Fe  Fe60  1  0.87380559  0.87595783  0.62446055  1
  Fe  Fe61  1  0.87525090  0.37389291  0.62162316  1
  Fe  Fe62  1  0.62224625  0.37193208  0.62532707  1
  Fe  Fe63  1  0.12787077  0.12622353  0.38453602  1
  Pb  Pb64  1  -0.00524431  0.00153198  -0.00973568  1
  Pb  Pb65  1  -0.00508023  -0.00078907  0.26026859  1
  Pb  Pb66  1  0.00061130  0.00051588  0.49044220  1
  Pb  Pb67  1  0.00034663  0.00000083  0.74437551  1
  Pb  Pb68  1  -0.00065275  0.25319792  -0.00462495  1
  Pb  Pb69  1  -0.00089779  0.24551559  0.25476337  1
  Pb  Pb70  1  -0.00105584  0.23984148  0.50287908  1
  Pb  Pb71  1  -0.00404302  0.24008792  0.74347796  1
  Pb  Pb72  1  0.00839490  0.49797683  -0.00004523  1
  Pb  Pb73  1  0.00022546  0.49559249  0.24877683  1
  Pb  Pb74  1  -0.00254473  0.50175057  0.50826094  1
  Pb  Pb75  1  0.00030864  0.50213823  0.74241604  1
  Pb  Pb76  1  0.00376052  0.74904911  -0.00831486  1
  Pb  Pb77  1  0.00279015  0.75919082  0.25728428  1
  Pb  Pb78  1  -0.00103847  0.74864722  0.50238017  1
  Pb  Pb79  1  -0.00087930  0.75253260  0.74294707  1
  Pb  Pb80  1  0.24604239  -0.00306946  -0.00688431  1
  Pb  Pb81  1  0.24004499  0.00149008  0.25247860  1
  Pb  Pb82  1  0.24297375  0.00736722  0.50236540  1
  Pb  Pb83  1  0.24245818  -0.00055568  0.75370789  1
  Pb  Pb84  1  0.24290283  0.25507280  -0.00216782  1
  Pb  Pb85  1  0.24517315  0.24695300  0.24924356  1
  Pb  Pb86  1  0.24866154  0.24104256  0.50700436  1
  Pb  Pb87  1  0.24277649  0.24699059  0.75294148  1
  Pb  Pb88  1  0.23954948  0.50954769  -0.00420918  1
  Pb  Pb89  1  0.24781611  0.50420428  0.24108233  1
  Pb  Pb90  1  0.24930880  0.51246650  0.51357980  1
  Pb  Pb91  1  0.24386851  0.49902364  0.75393245  1
  Pb  Pb92  1  0.24889029  0.74352377  -0.01244219  1
  Pb  Pb93  1  0.24757861  0.75488250  0.24465010  1
  Pb  Pb94  1  0.25126288  0.73842781  0.51076074  1
  Pb  Pb95  1  0.25225323  0.74467182  0.75499043  1
  Pb  Pb96  1  0.50975505  -0.00808347  0.00579862  1
  Pb  Pb97  1  0.50379541  0.00082319  0.25447487  1
  Pb  Pb98  1  0.49528654  0.00253671  0.49539193  1
  Pb  Pb99  1  0.49885383  -0.00523499  0.75086378  1
  Pb  Pb100  1  0.50160761  0.24952841  0.00229626  1
  Pb  Pb101  1  0.50871123  0.25578520  0.25811730  1
  Pb  Pb102  1  0.50015294  0.24985591  0.49911604  1
  Pb  Pb103  1  0.50748235  0.25701025  0.74696460  1
  Pb  Pb104  1  0.49724042  0.50564025  0.00065358  1
  Pb  Pb105  1  0.50963983  0.49991048  0.26096589  1
  Pb  Pb106  1  0.50276025  0.50208116  0.50604087  1
  Pb  Pb107  1  0.50571753  0.50223630  0.74063590  1
  Pb  Pb108  1  0.49454811  0.74528080  0.00060844  1
  Pb  Pb109  1  0.51166759  0.74431053  0.25943067  1
  Pb  Pb110  1  0.49813865  0.74608896  0.49989793  1
  Pb  Pb111  1  0.49598556  0.74925421  0.74976186  1
  Pb  Pb112  1  0.74850886  -0.00358709  0.00306494  1
  Pb  Pb113  1  0.75986696  0.00068734  0.26268630  1
  Pb  Pb114  1  0.75581253  -0.00168095  0.48704495  1
  Pb  Pb115  1  0.76310001  -0.00062601  0.74373909  1
  Pb  Pb116  1  0.75531504  0.25686765  0.00263388  1
  Pb  Pb117  1  0.74835603  0.24521973  0.26134354  1
  Pb  Pb118  1  0.75130120  0.24031050  0.49809862  1
  Pb  Pb119  1  0.75512468  0.24853170  0.73715129  1
  Pb  Pb120  1  0.75684324  0.49555048  0.00211396  1
  Pb  Pb121  1  0.74031645  0.49929824  0.26182179  1
  Pb  Pb122  1  0.73720174  0.49895764  0.50551212  1
  Pb  Pb123  1  0.74703370  0.49696425  0.72757180  1
  Pb  Pb124  1  0.74102902  0.75639479  0.00614698  1
  Pb  Pb125  1  0.75209397  0.75400919  0.25992518  1
  Pb  Pb126  1  0.75154361  0.75884650  0.49561924  1
  Pb  Pb127  1  0.75782614  0.75337610  0.73759973  1
  O  O128  1  0.12400115  0.00125243  0.16911080  1
  O  O129  1  0.13223970  -0.00095555  0.40941650  1
  O  O130  1  0.12846500  -0.00700990  0.66223916  1
  O  O131  1  0.12446146  0.00337252  0.91429375  1
  O  O132  1  0.12264740  0.24857170  0.16488864  1
  O  O133  1  0.13254210  0.25943365  0.41317581  1
  O  O134  1  0.13034741  0.25543692  0.66282232  1
  O  O135  1  0.12581297  0.24956459  0.91542702  1
  O  O136  1  0.12478448  0.49927517  0.16444982  1
  O  O137  1  0.13643749  0.49913647  0.41831570  1
  O  O138  1  0.12929350  0.49116428  0.66351387  1
  O  O139  1  0.12309447  0.49865172  0.91170754  1
  O  O140  1  0.12575831  0.75296554  0.16181591  1
  O  O141  1  0.13298383  0.73809639  0.41335334  1
  O  O142  1  0.12971938  0.75990117  0.66314428  1
  O  O143  1  0.12246408  0.74803568  0.90890995  1
  O  O144  1  0.37378269  0.00367780  0.16850571  1
  O  O145  1  0.37028692  -0.00103679  0.40392542  1
  O  O146  1  0.37923436  -0.00481497  0.66742606  1
  O  O147  1  0.38183550  0.00907229  0.91621723  1
  O  O148  1  0.37885859  0.25193742  0.16783240  1
  O  O149  1  0.37261731  0.24820206  0.40911615  1
  O  O150  1  0.37481840  0.25511432  0.66508375  1
  O  O151  1  0.38344491  0.24554095  0.91854814  1
  O  O152  1  0.37985662  0.49064336  0.16075430  1
  O  O153  1  0.36841030  0.49972744  0.41115134  1
  O  O154  1  0.37546643  0.48961715  0.66479934  1
  O  O155  1  0.38375768  0.49313861  0.90670340  1
  O  O156  1  0.37438204  0.75963576  0.15626705  1
  O  O157  1  0.37110304  0.74493677  0.40912127  1
  O  O158  1  0.37738742  0.76096572  0.66546195  1
  O  O159  1  0.38085685  0.75043154  0.91385410  1
  O  O160  1  0.62604144  0.00696300  0.17099386  1
  O  O161  1  0.61850683  -0.00168995  0.40744244  1
  O  O162  1  0.62232600  -0.00070571  0.66085892  1
  O  O163  1  0.62787151  0.00224043  0.91826929  1
  O  O164  1  0.62655379  0.24870267  0.17077519  1
  O  O165  1  0.61748627  0.24691960  0.41479458  1
  O  O166  1  0.62100262  0.24113100  0.65212536  1
  O  O167  1  0.62465605  0.24556146  0.91418037  1
  O  O168  1  0.62455180  0.50213672  0.17276470  1
  O  O169  1  0.62011579  0.49994631  0.41844703  1
  O  O170  1  0.62035404  0.49974042  0.64990901  1
  O  O171  1  0.62642261  0.50541204  0.91092986  1
  O  O172  1  0.62419251  0.74416612  0.16796071  1
  O  O173  1  0.61587068  0.75309810  0.41413291  1
  O  O174  1  0.62279656  0.76003800  0.65282406  1
  O  O175  1  0.62718472  0.74646263  0.91749859  1
  O  O176  1  0.87525741  0.00241218  0.17210488  1
  O  O177  1  0.87824518  -0.00089794  0.40658117  1
  O  O178  1  0.87300284  -0.00092041  0.65544958  1
  O  O179  1  0.86846337  0.00017640  0.91398091  1
  O  O180  1  0.87185156  0.24533042  0.16916393  1
  O  O181  1  0.88115379  0.25869920  0.41234753  1
  O  O182  1  0.87399034  0.24994830  0.65554275  1
  O  O183  1  0.86817593  0.25735029  0.91203416  1
  O  O184  1  0.86861713  0.50875505  0.17018261  1
  O  O185  1  0.88212245  0.50075186  0.41931935  1
  O  O186  1  0.87688948  0.49789658  0.65307428  1
  O  O187  1  0.86750760  0.50103565  0.91169748  1
  O  O188  1  0.87208205  0.74352189  0.17197311  1
  O  O189  1  0.88271011  0.73979310  0.41290144  1
  O  O190  1  0.87443478  0.75235185  0.65594976  1
  O  O191  1  0.86924672  0.74092620  0.91310541  1
  O  O192  1  -0.00426753  0.12502601  0.16829215  1
  O  O193  1  0.00456795  0.12962755  0.41088421  1
  O  O194  1  0.00223617  0.12516227  0.65737424  1
  O  O195  1  -0.00573816  0.12924530  0.91195359  1
  O  O196  1  -0.00478429  0.37627453  0.16771012  1
  O  O197  1  0.01294445  0.38096629  0.41457284  1
  O  O198  1  0.00683773  0.37269575  0.65554373  1
  O  O199  1  -0.01112426  0.37594625  0.90875624  1
  O  O200  1  -0.00727269  0.62481385  0.16300520  1
  O  O201  1  0.01171348  0.61830404  0.41285975  1
  O  O202  1  -0.00027251  0.62598761  0.66082308  1
  O  O203  1  -0.01180622  0.62149204  0.90675866  1
  O  O204  1  0.00052799  0.87456965  0.17056369  1
  O  O205  1  0.00756675  0.86854487  0.41265112  1
  O  O206  1  0.00550733  0.87568505  0.65236872  1
  O  O207  1  -0.00440809  0.87305942  0.91390940  1
  O  O208  1  0.25071300  0.12835382  0.16555536  1
  O  O209  1  0.25663603  0.12609348  0.41383869  1
  O  O210  1  0.25355969  0.12303749  0.66900154  1
  O  O211  1  0.26041691  0.12765002  0.90952933  1
  O  O212  1  0.25820868  0.37212033  0.15806509  1
  O  O213  1  0.25433695  0.37327963  0.42004506  1
  O  O214  1  0.25300272  0.37347237  0.66486507  1
  O  O215  1  0.26393968  0.37028437  0.91236749  1
  O  O216  1  0.25382050  0.62377345  0.16002103  1
  O  O217  1  0.25340796  0.62168098  0.41910190  1
  O  O218  1  0.25182820  0.62638254  0.67313856  1
  O  O219  1  0.25210795  0.62217183  0.90337600  1
  O  O220  1  0.25338778  0.87998311  0.16318935  1
  O  O221  1  0.25841529  0.86931157  0.41761145  1
  O  O222  1  0.25394433  0.87817594  0.66175660  1
  O  O223  1  0.25160575  0.87803221  0.91230292  1
  O  O224  1  0.50283431  0.12618470  0.16686464  1
  O  O225  1  0.48872685  0.12223504  0.40988439  1
  O  O226  1  0.50541741  0.12161253  0.66318719  1
  O  O227  1  0.50711659  0.12384553  0.91972684  1
  O  O228  1  0.50132088  0.37239004  0.16965786  1
  O  O229  1  0.48291070  0.37502930  0.41743352  1
  O  O230  1  0.49456219  0.37121285  0.65889407  1
  O  O231  1  0.49822137  0.37084880  0.91856877  1
  O  O232  1  0.50538033  0.62391687  0.16756057  1
  O  O233  1  0.48522951  0.62162103  0.41414192  1
  O  O234  1  0.50205312  0.62896337  0.66166453  1
  O  O235  1  0.51046705  0.62505436  0.91295864  1
  O  O236  1  0.49167254  0.88200042  0.16384984  1
  O  O237  1  0.48376317  0.87257333  0.41306602  1
  O  O238  1  0.50341400  0.87865030  0.66218970  1
  O  O239  1  0.50685377  0.87802749  0.91945354  1
  O  O240  1  0.75142300  0.12470479  0.17273649  1
  O  O241  1  0.74941846  0.12850589  0.40832195  1
  O  O242  1  0.73909148  0.12278258  0.65447833  1
  O  O243  1  0.74231716  0.12631268  0.91840892  1
  O  O244  1  0.74525005  0.37603725  0.17467683  1
  O  O245  1  0.75453202  0.37800123  0.41229023  1
  O  O246  1  0.74806442  0.37302049  0.64609250  1
  O  O247  1  0.75063626  0.37664760  0.91518984  1
  O  O248  1  0.74573499  0.62540689  0.17257233  1
  O  O249  1  0.75430391  0.62223304  0.41186837  1
  O  O250  1  0.74848603  0.62615917  0.65022673  1
  O  O251  1  0.74749916  0.62456968  0.91796882  1
  O  O252  1  0.75495837  0.87413836  0.17437216  1
  O  O253  1  0.74984118  0.86894803  0.40361969  1
  O  O254  1  0.74079250  0.87826442  0.65199463  1
  O  O255  1  0.74638272  0.87254535  0.92247818  1
  O  O256  1  0.12306485  0.12435645  0.05232595  1
  O  O257  1  0.13106208  0.13164026  0.28373018  1
  O  O258  1  0.13784623  0.12573726  0.53653795  1
  O  O259  1  0.12418853  0.12420869  0.78020664  1
  O  O260  1  0.12144818  0.37594396  0.03248136  1
  O  O261  1  0.12792419  0.37955447  0.30075412  1
  O  O262  1  0.13077395  0.37167464  0.54820241  1
  O  O263  1  0.12905510  0.37357842  0.78511093  1
  O  O264  1  0.12223235  0.61725163  0.03304869  1
  O  O265  1  0.13010314  0.62000887  0.30034248  1
  O  O266  1  0.13914598  0.62484175  0.54371239  1
  O  O267  1  0.11988147  0.62129621  0.77663117  1
  O  O268  1  0.12329686  0.87973024  0.05045388  1
  O  O269  1  0.13296277  0.86728216  0.28443595  1
  O  O270  1  0.13188375  0.87611732  0.54637340  1
  O  O271  1  0.12010378  0.88244614  0.78103373  1
  O  O272  1  0.37618075  0.12551396  0.05052785  1
  O  O273  1  0.37065282  0.13144763  0.29528611  1
  O  O274  1  0.37244026  0.12235964  0.53693896  1
  O  O275  1  0.38356284  0.12667498  0.80026895  1
  O  O276  1  0.38316246  0.36912288  0.04893869  1
  O  O277  1  0.36801415  0.37937178  0.29976519  1
  O  O278  1  0.37077951  0.37131078  0.54711727  1
  O  O279  1  0.38365215  0.36839721  0.79801765  1
  O  O280  1  0.38805680  0.62116174  0.03429925  1
  O  O281  1  0.36967093  0.62540827  0.29756747  1
  O  O282  1  0.36431125  0.62677457  0.54385213  1
  O  O283  1  0.38505859  0.63204226  0.78029151  1
  O  O284  1  0.37787294  0.88371399  0.04767547  1
  O  O285  1  0.36870319  0.87405415  0.29483529  1
  O  O286  1  0.37431385  0.87887968  0.55104255  1
  O  O287  1  0.38651821  0.87770260  0.78598168  1
  O  O288  1  0.62975848  0.12703252  0.06061220  1
  O  O289  1  0.62084393  0.13148655  0.28123580  1
  O  O290  1  0.61720149  0.11681082  0.54086164  1
  O  O291  1  0.62714696  0.12455536  0.80079174  1
  O  O292  1  0.62605817  0.37695070  0.05463912  1
  O  O293  1  0.61535533  0.37911940  0.29530639  1
  O  O294  1  0.61612835  0.37488994  0.52373693  1
  O  O295  1  0.61911845  0.37190991  0.78381758  1
  O  O296  1  0.62772750  0.62186111  0.05583870  1
  O  O297  1  0.61531372  0.62372484  0.29461576  1
  O  O298  1  0.61635472  0.62563516  0.52281264  1
  O  O299  1  0.63195052  0.62669292  0.79757174  1
  O  O300  1  0.63063310  0.87788199  0.04946561  1
  O  O301  1  0.61485849  0.87037593  0.27763058  1
  O  O302  1  0.61686183  0.88016228  0.54054827  1
  O  O303  1  0.62918059  0.87440232  0.80009835  1
  O  O304  1  0.87212517  0.12618400  0.05846605  1
  O  O305  1  0.87698804  0.12706771  0.28563108  1
  O  O306  1  0.87466727  0.12984963  0.52573640  1
  O  O307  1  0.86501108  0.12892383  0.78168708  1
  O  O308  1  0.86444714  0.37701708  0.04064115  1
  O  O309  1  0.88132667  0.38225636  0.30980856  1
  O  O310  1  0.88635823  0.37602083  0.52031615  1
  O  O311  1  0.86842836  0.37571842  0.79629178  1
  O  O312  1  0.87073329  0.62554169  0.05312459  1
  O  O313  1  0.87927469  0.61921425  0.30792034  1
  O  O314  1  0.88619905  0.62517574  0.52247916  1
  O  O315  1  0.86578439  0.62644346  0.79580244  1
  O  O316  1  0.87576631  0.87183750  0.05780361  1
  O  O317  1  0.88445696  0.87041460  0.28574244  1
  O  O318  1  0.87353179  0.86944594  0.52360801  1
  O  O319  1  0.86418467  0.87343542  0.78313163  1
