# generated using pymatgen
data_VFe(PbO3)2
_symmetry_space_group_name_H-M   'P 1'
_cell_length_a   15.39153028
_cell_length_b   15.37997495
_cell_length_c   18.50996556
_cell_angle_alpha   90.03130482
_cell_angle_beta   89.92558399
_cell_angle_gamma   90.00730175
_symmetry_Int_Tables_number   1
_chemical_formula_structural   VFe(PbO3)2
_chemical_formula_sum   'V32 Fe32 Pb64 O192'
_cell_volume   4381.69965319
_cell_formula_units_Z   32
loop_
 _symmetry_equiv_pos_site_id
 _symmetry_equiv_pos_as_xyz
  1  'x, y, z'
loop_
 _atom_site_type_symbol
 _atom_site_label
 _atom_site_symmetry_multiplicity
 _atom_site_fract_x
 _atom_site_fract_y
 _atom_site_fract_z
 _atom_site_occupancy
  V  V0  1  0.62040711  0.87726252  0.13925396  1
  V  V1  1  0.87276905  0.37647184  0.64074497  1
  V  V2  1  0.12439853  0.12019078  0.13599541  1
  V  V3  1  0.12654356  0.62588978  0.89154310  1
  V  V4  1  0.87435431  0.87556140  0.88794724  1
  V  V5  1  0.87728340  0.62512022  0.38695801  1
  V  V6  1  0.87274287  0.37595942  0.38482608  1
  V  V7  1  0.36967010  0.37448728  0.64015712  1
  V  V8  1  0.37402198  0.62829382  0.13119947  1
  V  V9  1  0.62040151  0.37346625  0.89933512  1
  V  V10  1  0.12647184  0.62237642  0.64470832  1
  V  V11  1  0.12530478  0.62681625  0.38740119  1
  V  V12  1  0.62652150  0.12570096  0.89175758  1
  V  V13  1  0.87137859  0.37309907  0.89838959  1
  V  V14  1  0.62691783  0.87474613  0.63770429  1
  V  V15  1  0.37334653  0.37457950  0.89639483  1
  V  V16  1  0.62573167  0.87657112  0.88758956  1
  V  V17  1  0.12653325  0.87543305  0.39224909  1
  V  V18  1  0.87432574  0.87462376  0.13957752  1
  V  V19  1  0.12502710  0.12746989  0.64017332  1
  V  V20  1  0.37098983  0.12703691  0.89090077  1
  V  V21  1  0.61298552  0.37882866  0.38357452  1
  V  V22  1  0.62164645  0.37520610  0.64043710  1
  V  V23  1  0.12227905  0.37333688  0.89357706  1
  V  V24  1  0.37140400  0.62395945  0.39030996  1
  V  V25  1  0.87522092  0.12364615  0.14107515  1
  V  V26  1  0.87604627  0.62514268  0.64119451  1
  V  V27  1  0.36754865  0.37733127  0.38543769  1
  V  V28  1  0.12730175  0.12562599  0.39058038  1
  V  V29  1  0.87451705  0.62264947  0.90252092  1
  V  V30  1  0.37645211  0.87429440  0.39417005  1
  V  V31  1  0.87418082  0.87350045  0.63998765  1
  Fe  Fe32  1  0.12338715  0.87294323  0.64737305  1
  Fe  Fe33  1  0.11998663  0.37684461  0.63628734  1
  Fe  Fe34  1  0.62174231  0.62377158  0.38610131  1
  Fe  Fe35  1  0.37672941  0.12865273  0.63281030  1
  Fe  Fe36  1  0.62647626  0.12137082  0.14101295  1
  Fe  Fe37  1  0.87512493  0.12598453  0.63392514  1
  Fe  Fe38  1  0.62555475  0.87080031  0.38341964  1
  Fe  Fe39  1  0.62628525  0.12619068  0.63466212  1
  Fe  Fe40  1  0.87674873  0.87212483  0.38485990  1
  Fe  Fe41  1  0.37388666  0.12201952  0.13224717  1
  Fe  Fe42  1  0.62411782  0.62878130  0.12553092  1
  Fe  Fe43  1  0.12435208  0.37264553  0.13652591  1
  Fe  Fe44  1  0.12172141  0.12722955  0.88405424  1
  Fe  Fe45  1  0.62633348  0.62417877  0.89722863  1
  Fe  Fe46  1  0.12528427  0.87849101  0.13196108  1
  Fe  Fe47  1  0.37469490  0.37439733  0.12882122  1
  Fe  Fe48  1  0.12489919  0.62879599  0.12853612  1
  Fe  Fe49  1  0.37383878  0.87467430  0.12894403  1
  Fe  Fe50  1  0.37710819  0.62226023  0.64782141  1
  Fe  Fe51  1  0.87605931  0.62720625  0.12551573  1
  Fe  Fe52  1  0.37265267  0.12463470  0.39070688  1
  Fe  Fe53  1  0.37800959  0.87736750  0.88487773  1
  Fe  Fe54  1  0.37352019  0.62267054  0.88149723  1
  Fe  Fe55  1  0.12302650  0.87744792  0.87808677  1
  Fe  Fe56  1  0.37694035  0.87575745  0.63852577  1
  Fe  Fe57  1  0.62838445  0.62337125  0.63954416  1
  Fe  Fe58  1  0.12282823  0.37629210  0.38382644  1
  Fe  Fe59  1  0.62455310  0.12475793  0.38031714  1
  Fe  Fe60  1  0.62482947  0.37339193  0.12960223  1
  Fe  Fe61  1  0.87403600  0.37357434  0.13129260  1
  Fe  Fe62  1  0.87414842  0.12477135  0.88620020  1
  Fe  Fe63  1  0.87769456  0.12499007  0.38654727  1
  Pb  Pb64  1  0.00686826  -0.00120008  -0.00665730  1
  Pb  Pb65  1  -0.00971057  -0.00101308  0.25527765  1
  Pb  Pb66  1  -0.00384836  0.00205063  0.50060175  1
  Pb  Pb67  1  0.00827441  0.00544693  0.75270590  1
  Pb  Pb68  1  -0.00136823  0.25481652  0.00309149  1
  Pb  Pb69  1  0.00028083  0.25122335  0.24818458  1
  Pb  Pb70  1  -0.00161069  0.25158339  0.49921784  1
  Pb  Pb71  1  -0.00268733  0.24114310  0.75391456  1
  Pb  Pb72  1  0.00425538  0.50106402  0.00795166  1
  Pb  Pb73  1  0.00137057  0.49945556  0.23680286  1
  Pb  Pb74  1  0.00475584  0.49604522  0.49829421  1
  Pb  Pb75  1  -0.00378471  0.50006362  0.75474180  1
  Pb  Pb76  1  0.00532726  0.74416615  0.00132575  1
  Pb  Pb77  1  -0.00082668  0.75138223  0.24209088  1
  Pb  Pb78  1  0.00830799  0.75585391  0.50307260  1
  Pb  Pb79  1  0.00082738  0.75308016  0.75500639  1
  Pb  Pb80  1  0.24894027  -0.00970388  -0.00412642  1
  Pb  Pb81  1  0.25792789  0.00092072  0.24690917  1
  Pb  Pb82  1  0.25233955  -0.01132708  0.50941745  1
  Pb  Pb83  1  0.25438294  -0.00519521  0.74925403  1
  Pb  Pb84  1  0.24916606  0.25676817  0.00627527  1
  Pb  Pb85  1  0.25334205  0.25077003  0.24440861  1
  Pb  Pb86  1  0.25081309  0.24773000  0.50074401  1
  Pb  Pb87  1  0.24199188  0.24533424  0.75114425  1
  Pb  Pb88  1  0.24490570  0.49567032  0.00380909  1
  Pb  Pb89  1  0.24322919  0.49458813  0.24202800  1
  Pb  Pb90  1  0.24715960  0.50182274  0.50116719  1
  Pb  Pb91  1  0.25378763  0.50243526  0.75525032  1
  Pb  Pb92  1  0.25122664  0.76300711  -0.00646171  1
  Pb  Pb93  1  0.24876112  0.75322056  0.24029202  1
  Pb  Pb94  1  0.25266052  0.75593724  0.51124699  1
  Pb  Pb95  1  0.26150736  0.76142853  0.75428224  1
  Pb  Pb96  1  0.49793163  0.01043412  0.00460383  1
  Pb  Pb97  1  0.49493847  0.01086448  0.25165213  1
  Pb  Pb98  1  0.50495427  0.00708087  0.49596775  1
  Pb  Pb99  1  0.49499008  -0.00027684  0.74611388  1
  Pb  Pb100  1  0.49484622  0.24277856  0.00952284  1
  Pb  Pb101  1  0.49808078  0.24489255  0.24052422  1
  Pb  Pb102  1  0.50150901  0.24045213  0.50049323  1
  Pb  Pb103  1  0.50053956  0.24798644  0.75011610  1
  Pb  Pb104  1  0.50115355  0.50494127  0.00113570  1
  Pb  Pb105  1  0.50438102  0.50405139  0.23691543  1
  Pb  Pb106  1  0.49562579  0.51565551  0.51050629  1
  Pb  Pb107  1  0.50565706  0.51179050  0.75976022  1
  Pb  Pb108  1  0.49564870  0.74814551  -0.00816600  1
  Pb  Pb109  1  0.50905579  0.74953487  0.25062664  1
  Pb  Pb110  1  0.49311707  0.74623248  0.50348191  1
  Pb  Pb111  1  0.49721286  0.74687305  0.75078004  1
  Pb  Pb112  1  0.74377031  0.00478209  0.00291673  1
  Pb  Pb113  1  0.75317192  -0.00479175  0.25662742  1
  Pb  Pb114  1  0.75048682  0.00414104  0.49016606  1
  Pb  Pb115  1  0.75595612  0.00641768  0.74708811  1
  Pb  Pb116  1  0.74414921  0.25073686  0.00779055  1
  Pb  Pb117  1  0.74370168  0.24575854  0.24697987  1
  Pb  Pb118  1  0.74984578  0.24091560  0.49741695  1
  Pb  Pb119  1  0.75614592  0.24638416  0.75124921  1
  Pb  Pb120  1  0.75022884  0.49119510  0.00939907  1
  Pb  Pb121  1  0.74824654  0.50497165  0.23323399  1
  Pb  Pb122  1  0.74591232  0.50335066  0.49774733  1
  Pb  Pb123  1  0.74547781  0.50435856  0.75829615  1
  Pb  Pb124  1  0.75036779  0.74661923  0.00210640  1
  Pb  Pb125  1  0.74267936  0.74913311  0.24812587  1
  Pb  Pb126  1  0.74307975  0.74887990  0.49492609  1
  Pb  Pb127  1  0.74422353  0.74375025  0.75489401  1
  O  O128  1  0.12086403  0.00591778  0.16468313  1
  O  O129  1  0.12750742  0.00084044  0.41799182  1
  O  O130  1  0.12221640  0.00840853  0.66108546  1
  O  O131  1  0.12285841  0.00166424  0.90756417  1
  O  O132  1  0.12192459  0.23771044  0.16262369  1
  O  O133  1  0.12502423  0.24488979  0.41196056  1
  O  O134  1  0.12270183  0.24953324  0.66540166  1
  O  O135  1  0.12383164  0.25513521  0.91496039  1
  O  O136  1  0.12494055  0.50241920  0.15744070  1
  O  O137  1  0.12532273  0.50514026  0.41510783  1
  O  O138  1  0.11987501  0.50341341  0.67141948  1
  O  O139  1  0.12372457  0.49443206  0.91688786  1
  O  O140  1  0.12445694  0.75327231  0.16193088  1
  O  O141  1  0.12698954  0.74894020  0.41931800  1
  O  O142  1  0.12243944  0.73796929  0.67033568  1
  O  O143  1  0.12313869  0.74474004  0.90223557  1
  O  O144  1  0.37501248  -0.00236457  0.16408588  1
  O  O145  1  0.37174173  -0.00750466  0.41583252  1
  O  O146  1  0.37701540  0.00410629  0.66214062  1
  O  O147  1  0.38060389  0.00984106  0.90797200  1
  O  O148  1  0.37217576  0.24763166  0.15941150  1
  O  O149  1  0.37370388  0.26199848  0.41072631  1
  O  O150  1  0.37655231  0.25812321  0.66840362  1
  O  O151  1  0.37954439  0.24687274  0.91834174  1
  O  O152  1  0.37437606  0.50945497  0.15524073  1
  O  O153  1  0.37211650  0.49520335  0.41580998  1
  O  O154  1  0.37861191  0.48748907  0.66985838  1
  O  O155  1  0.37339423  0.49513456  0.91525710  1
  O  O156  1  0.37494074  0.74625664  0.15957930  1
  O  O157  1  0.37268249  0.74978889  0.41783158  1
  O  O158  1  0.37710483  0.74919829  0.66714177  1
  O  O159  1  0.37531551  0.74897272  0.90472334  1
  O  O160  1  0.62945876  -0.00908996  0.16613703  1
  O  O161  1  0.62244148  -0.00175082  0.40872003  1
  O  O162  1  0.62987709  -0.00708518  0.66073190  1
  O  O163  1  0.62886423  -0.00251602  0.91415830  1
  O  O164  1  0.62756141  0.24842874  0.16072197  1
  O  O165  1  0.62802350  0.26599350  0.41042815  1
  O  O166  1  0.63129090  0.25958009  0.66690227  1
  O  O167  1  0.62879392  0.25169909  0.91787025  1
  O  O168  1  0.62331585  0.50303116  0.15350974  1
  O  O169  1  0.62865501  0.49276679  0.41440460  1
  O  O170  1  0.62976097  0.49079964  0.67012810  1
  O  O171  1  0.62783314  0.49107227  0.91750827  1
  O  O172  1  0.62697842  0.75643499  0.16083569  1
  O  O173  1  0.62167181  0.74608071  0.41818500  1
  O  O174  1  0.63012229  0.75562270  0.66542920  1
  O  O175  1  0.62795422  0.75944821  0.91146083  1
  O  O176  1  0.87591224  -0.00109595  0.16707967  1
  O  O177  1  0.87880452  -0.00145398  0.41627967  1
  O  O178  1  0.87389630  -0.00765521  0.65861582  1
  O  O179  1  0.87234448  -0.00729874  0.91171101  1
  O  O180  1  0.87541522  0.24066075  0.16095146  1
  O  O181  1  0.87907082  0.25854639  0.40868393  1
  O  O182  1  0.87303996  0.25796387  0.66279873  1
  O  O183  1  0.87515168  0.25541337  0.91537395  1
  O  O184  1  0.87632146  0.50147617  0.15357413  1
  O  O185  1  0.87902499  0.50298739  0.41233041  1
  O  O186  1  0.87428472  0.49946409  0.66904263  1
  O  O187  1  0.87752367  0.49528734  0.92045467  1
  O  O188  1  0.87560639  0.75742789  0.15846452  1
  O  O189  1  0.87862591  0.74048482  0.41280795  1
  O  O190  1  0.87360378  0.74953203  0.66969276  1
  O  O191  1  0.87300029  0.75689540  0.91553292  1
  O  O192  1  -0.00198327  0.12148756  0.16325437  1
  O  O193  1  0.00911770  0.12396073  0.41709800  1
  O  O194  1  0.00251024  0.12865969  0.66236727  1
  O  O195  1  -0.00292740  0.12666421  0.91591293  1
  O  O196  1  -0.00142229  0.36942309  0.16221494  1
  O  O197  1  -0.00553533  0.37870948  0.41288949  1
  O  O198  1  -0.00903735  0.37772815  0.66625892  1
  O  O199  1  0.00183606  0.37459190  0.91647737  1
  O  O200  1  -0.00110922  0.62972983  0.15990710  1
  O  O201  1  0.00028682  0.62493739  0.41361169  1
  O  O202  1  -0.00144884  0.62318202  0.67162188  1
  O  O203  1  0.00591433  0.62213069  0.91685263  1
  O  O204  1  -0.00573405  0.87810594  0.16042028  1
  O  O205  1  0.00501646  0.87222541  0.41855790  1
  O  O206  1  -0.00912443  0.87082273  0.66587700  1
  O  O207  1  -0.00694418  0.87371679  0.90682697  1
  O  O208  1  0.24183033  0.12124973  0.15712227  1
  O  O209  1  0.24410433  0.12570059  0.41800472  1
  O  O210  1  0.24547190  0.13053563  0.66220580  1
  O  O211  1  0.25563828  0.12993398  0.90524434  1
  O  O212  1  0.25053316  0.37404528  0.16319572  1
  O  O213  1  0.25199081  0.37725562  0.41176514  1
  O  O214  1  0.25264953  0.37538589  0.66213860  1
  O  O215  1  0.24564806  0.37239464  0.91468268  1
  O  O216  1  0.25597942  0.62813530  0.15639733  1
  O  O217  1  0.24907022  0.62369126  0.41903497  1
  O  O218  1  0.24317264  0.61786403  0.66536991  1
  O  O219  1  0.24337923  0.61835540  0.90882548  1
  O  O220  1  0.25011774  0.87673392  0.16406861  1
  O  O221  1  0.25090050  0.87206613  0.42182624  1
  O  O222  1  0.24961134  0.87573383  0.66735869  1
  O  O223  1  0.24917155  0.87751185  0.90506557  1
  O  O224  1  0.49989017  0.12074181  0.16280625  1
  O  O225  1  0.49934528  0.12948894  0.41349216  1
  O  O226  1  0.50292882  0.13067237  0.66617690  1
  O  O227  1  0.50468244  0.12725119  0.91690572  1
  O  O228  1  0.49869886  0.37584328  0.15699811  1
  O  O229  1  0.49925190  0.37980745  0.40010576  1
  O  O230  1  0.50524082  0.37275104  0.66129512  1
  O  O231  1  0.50298665  0.37268835  0.91613654  1
  O  O232  1  0.49421983  0.62938766  0.15648500  1
  O  O233  1  0.49293212  0.62111559  0.41770377  1
  O  O234  1  0.50562865  0.62097125  0.67064828  1
  O  O235  1  0.49830019  0.62129098  0.91178859  1
  O  O236  1  0.50454288  0.87380933  0.15591603  1
  O  O237  1  0.49236131  0.87157005  0.41430752  1
  O  O238  1  0.51015840  0.87412351  0.66073416  1
  O  O239  1  0.50898133  0.87856512  0.90823948  1
  O  O240  1  0.75824184  0.11865724  0.16386732  1
  O  O241  1  0.74979820  0.12962648  0.40966374  1
  O  O242  1  0.75059914  0.12640617  0.66551007  1
  O  O243  1  0.74758509  0.12508810  0.91685215  1
  O  O244  1  0.75039964  0.37410268  0.16236824  1
  O  O245  1  0.75921357  0.38048261  0.40965669  1
  O  O246  1  0.75448028  0.37790713  0.66796276  1
  O  O247  1  0.75343854  0.37485610  0.91628188  1
  O  O248  1  0.75046974  0.63021653  0.15095770  1
  O  O249  1  0.75791594  0.62166182  0.41017184  1
  O  O250  1  0.75447357  0.62300050  0.67088429  1
  O  O251  1  0.75337299  0.62431779  0.92010117  1
  O  O252  1  0.75380046  0.87613221  0.16365182  1
  O  O253  1  0.75181091  0.87036051  0.41455152  1
  O  O254  1  0.75324559  0.87222726  0.66568311  1
  O  O255  1  0.74945658  0.87592950  0.91579173  1
  O  O256  1  0.12086728  0.11990453  0.04458064  1
  O  O257  1  0.12712695  0.12239811  0.30000092  1
  O  O258  1  0.12541212  0.13130051  0.54901841  1
  O  O259  1  0.11844713  0.13188940  0.78341010  1
  O  O260  1  0.12896453  0.36967171  0.03526544  1
  O  O261  1  0.12652314  0.37574759  0.28448173  1
  O  O262  1  0.11959347  0.38087489  0.53710499  1
  O  O263  1  0.12197686  0.37528145  0.80226694  1
  O  O264  1  0.12179982  0.62678967  0.02818908  1
  O  O265  1  0.12643305  0.62829237  0.29670724  1
  O  O266  1  0.12276265  0.62148768  0.55351376  1
  O  O267  1  0.12115738  0.61396782  0.80077823  1
  O  O268  1  0.13174825  0.88103729  0.03150833  1
  O  O269  1  0.12759945  0.87505543  0.30151430  1
  O  O270  1  0.12697060  0.86525352  0.54640659  1
  O  O271  1  0.11755707  0.87829427  0.77583500  1
  O  O272  1  0.38315215  0.12262082  0.03129190  1
  O  O273  1  0.37363715  0.11843605  0.29050868  1
  O  O274  1  0.37668694  0.13627534  0.53243368  1
  O  O275  1  0.38120203  0.13325894  0.79954557  1
  O  O276  1  0.36677244  0.36988676  0.02832006  1
  O  O277  1  0.36604040  0.37984329  0.29451434  1
  O  O278  1  0.37339150  0.37423404  0.54903585  1
  O  O279  1  0.37366119  0.37005519  0.80510599  1
  O  O280  1  0.37572515  0.62966720  0.03977685  1
  O  O281  1  0.37232971  0.62418187  0.29987059  1
  O  O282  1  0.38166909  0.61620291  0.54622736  1
  O  O283  1  0.37420641  0.61522281  0.77955122  1
  O  O284  1  0.36610513  0.87541444  0.02794010  1
  O  O285  1  0.37212537  0.87241718  0.30329217  1
  O  O286  1  0.36750016  0.87075775  0.53775506  1
  O  O287  1  0.37692883  0.88131269  0.78294440  1
  O  O288  1  0.62573967  0.11528279  0.03897745  1
  O  O289  1  0.62410430  0.12785759  0.27973647  1
  O  O290  1  0.62224208  0.13477017  0.53471249  1
  O  O291  1  0.62581748  0.12574637  0.80033069  1
  O  O292  1  0.63538228  0.37213288  0.02815848  1
  O  O293  1  0.62379506  0.38071901  0.29275176  1
  O  O294  1  0.62601082  0.37717349  0.54961359  1
  O  O295  1  0.62615461  0.37246206  0.80797836  1
  O  O296  1  0.61810852  0.63072421  0.02435347  1
  O  O297  1  0.61806629  0.63065639  0.28631714  1
  O  O298  1  0.62544406  0.61354950  0.53965480  1
  O  O299  1  0.63206075  0.61926522  0.79466724  1
  O  O300  1  0.62817752  0.87900494  0.04800779  1
  O  O301  1  0.62654492  0.86098390  0.28347106  1
  O  O302  1  0.62936194  0.87172265  0.54690967  1
  O  O303  1  0.63029922  0.87762023  0.79663815  1
  O  O304  1  0.87580796  0.11942226  0.04991249  1
  O  O305  1  0.88210329  0.11867683  0.28692269  1
  O  O306  1  0.87706008  0.13142261  0.53379620  1
  O  O307  1  0.87343167  0.12886739  0.78553491  1
  O  O308  1  0.87370411  0.36904089  0.03071279  1
  O  O309  1  0.87453958  0.37733312  0.29395573  1
  O  O310  1  0.87234697  0.37828210  0.54975589  1
  O  O311  1  0.87450653  0.37564500  0.80697651  1
  O  O312  1  0.88488318  0.63376621  0.02370482  1
  O  O313  1  0.87835117  0.62518802  0.29637193  1
  O  O314  1  0.87675507  0.62580256  0.55007580  1
  O  O315  1  0.87746171  0.62390313  0.81051384  1
  O  O316  1  0.87259144  0.87948005  0.04868352  1
  O  O317  1  0.87828321  0.87847280  0.28530398  1
  O  O318  1  0.87531918  0.86684502  0.54930167  1
  O  O319  1  0.87006129  0.87397122  0.79692881  1
