# generated using pymatgen
data_VFe(PbO3)2
_symmetry_space_group_name_H-M   'P 1'
_cell_length_a   15.39586246
_cell_length_b   15.38300829
_cell_length_c   18.49503378
_cell_angle_alpha   89.97315523
_cell_angle_beta   90.06826033
_cell_angle_gamma   89.99354970
_symmetry_Int_Tables_number   1
_chemical_formula_structural   VFe(PbO3)2
_chemical_formula_sum   'V32 Fe32 Pb64 O192'
_cell_volume   4380.26178398
_cell_formula_units_Z   32
loop_
 _symmetry_equiv_pos_site_id
 _symmetry_equiv_pos_as_xyz
  1  'x, y, z'
loop_
 _atom_site_type_symbol
 _atom_site_label
 _atom_site_symmetry_multiplicity
 _atom_site_fract_x
 _atom_site_fract_y
 _atom_site_fract_z
 _atom_site_occupancy
  V  V0  1  0.37509617  0.37556432  0.88938786  1
  V  V1  1  0.37766552  0.12558758  0.13784475  1
  V  V2  1  0.12747739  0.62923452  0.39749932  1
  V  V3  1  0.87227902  0.37270727  0.88371732  1
  V  V4  1  0.87870325  0.87180940  0.39698980  1
  V  V5  1  0.87776471  0.62467435  0.39461889  1
  V  V6  1  0.87552210  0.12047145  0.39750686  1
  V  V7  1  0.37714685  0.37335155  0.63667286  1
  V  V8  1  0.63224317  0.62554622  0.13932901  1
  V  V9  1  0.87848845  0.12537438  0.13778736  1
  V  V10  1  0.12671692  0.87437458  0.64316291  1
  V  V11  1  0.12884132  0.62543408  0.13700384  1
  V  V12  1  0.38433755  0.62517018  0.13791809  1
  V  V13  1  0.62276514  0.86928178  0.64474148  1
  V  V14  1  0.12274237  0.87468586  0.39522774  1
  V  V15  1  0.62265323  0.12205416  0.64006357  1
  V  V16  1  0.87454817  0.37527676  0.14256209  1
  V  V17  1  0.12525934  0.12268643  0.39769140  1
  V  V18  1  0.37454545  0.12246658  0.38591303  1
  V  V19  1  0.37435514  0.62491167  0.88712598  1
  V  V20  1  0.87445597  0.62430409  0.64513396  1
  V  V21  1  0.87781233  0.37291442  0.39713221  1
  V  V22  1  0.87451964  0.87418433  0.13377039  1
  V  V23  1  0.12467347  0.37517870  0.88649855  1
  V  V24  1  0.37806387  0.62355340  0.64017601  1
  V  V25  1  0.87686170  0.12508702  0.88414001  1
  V  V26  1  0.87908205  0.62362215  0.13660791  1
  V  V27  1  0.62248324  0.37347708  0.63967058  1
  V  V28  1  0.37774946  0.12058457  0.64369858  1
  V  V29  1  0.37893185  0.62675576  0.38718364  1
  V  V30  1  0.12619893  0.12501625  0.13961707  1
  V  V31  1  0.62235129  0.62249985  0.64180929  1
  Fe  Fe32  1  0.12685303  0.12922324  0.87841786  1
  Fe  Fe33  1  0.62586367  0.87532975  0.88155878  1
  Fe  Fe34  1  0.87438852  0.87487947  0.87326957  1
  Fe  Fe35  1  0.62657091  0.87387728  0.38706993  1
  Fe  Fe36  1  0.62285805  0.62085694  0.88355926  1
  Fe  Fe37  1  0.12198672  0.87431120  0.13038313  1
  Fe  Fe38  1  0.12786290  0.62433932  0.64381604  1
  Fe  Fe39  1  0.62718824  0.12107751  0.38314076  1
  Fe  Fe40  1  0.62902034  0.12479748  0.13789709  1
  Fe  Fe41  1  0.12864891  0.62148223  0.87683158  1
  Fe  Fe42  1  0.37102428  0.37550835  0.14547964  1
  Fe  Fe43  1  0.37203048  0.37477055  0.38170519  1
  Fe  Fe44  1  0.62621329  0.87424596  0.13219702  1
  Fe  Fe45  1  0.63024429  0.62854754  0.38623662  1
  Fe  Fe46  1  0.62438101  0.12968306  0.88667167  1
  Fe  Fe47  1  0.37550249  0.87635938  0.87560444  1
  Fe  Fe48  1  0.12574913  0.37610410  0.62756645  1
  Fe  Fe49  1  0.12109874  0.37599825  0.13883943  1
  Fe  Fe50  1  0.37639995  0.87289950  0.64701421  1
  Fe  Fe51  1  0.37323519  0.12965711  0.87941074  1
  Fe  Fe52  1  0.87128575  0.37473890  0.63123420  1
  Fe  Fe53  1  0.37024045  0.87442014  0.38730990  1
  Fe  Fe54  1  0.62492347  0.37489465  0.88451218  1
  Fe  Fe55  1  0.62634583  0.37578182  0.38138072  1
  Fe  Fe56  1  0.12451482  0.87521958  0.88031321  1
  Fe  Fe57  1  0.87124973  0.12694568  0.63275296  1
  Fe  Fe58  1  0.12723167  0.12570748  0.63655399  1
  Fe  Fe59  1  0.87546098  0.61978098  0.87850209  1
  Fe  Fe60  1  0.12388335  0.37534728  0.39889295  1
  Fe  Fe61  1  0.62638705  0.37598556  0.14271585  1
  Fe  Fe62  1  0.37300405  0.87500253  0.13522214  1
  Fe  Fe63  1  0.87185602  0.87529237  0.64699932  1
  Pb  Pb64  1  0.00640046  -0.00607541  -0.01135059  1
  Pb  Pb65  1  -0.00267555  -0.00131963  0.24680950  1
  Pb  Pb66  1  -0.00055702  0.00477377  0.51287411  1
  Pb  Pb67  1  -0.00362713  0.00062889  0.74417152  1
  Pb  Pb68  1  0.00482090  0.25386568  -0.00276566  1
  Pb  Pb69  1  0.00380700  0.25488174  0.25619679  1
  Pb  Pb70  1  -0.00075227  0.24301818  0.50963640  1
  Pb  Pb71  1  0.00125417  0.24963723  0.73415555  1
  Pb  Pb72  1  0.00523206  0.50092966  -0.00618932  1
  Pb  Pb73  1  0.00467716  0.49610516  0.25581678  1
  Pb  Pb74  1  0.00752641  0.50125953  0.51117620  1
  Pb  Pb75  1  0.00185542  0.50037049  0.74392713  1
  Pb  Pb76  1  0.00230582  0.74927256  -0.01718132  1
  Pb  Pb77  1  -0.00297622  0.74903101  0.24549179  1
  Pb  Pb78  1  0.00252720  0.74796837  0.51336838  1
  Pb  Pb79  1  0.00365310  0.75290501  0.75391275  1
  Pb  Pb80  1  0.25225058  -0.00213129  -0.01409417  1
  Pb  Pb81  1  0.25279333  -0.00653006  0.24770105  1
  Pb  Pb82  1  0.24822508  0.00200472  0.50632731  1
  Pb  Pb83  1  0.24106402  0.00073535  0.75610302  1
  Pb  Pb84  1  0.25312248  0.25578111  0.00184928  1
  Pb  Pb85  1  0.24551195  0.25815188  0.25505200  1
  Pb  Pb86  1  0.24615271  0.25101390  0.50021075  1
  Pb  Pb87  1  0.24969179  0.24263213  0.74847052  1
  Pb  Pb88  1  0.25257649  0.49052411  0.00444878  1
  Pb  Pb89  1  0.24604283  0.49170002  0.25564126  1
  Pb  Pb90  1  0.24401775  0.50029070  0.50284933  1
  Pb  Pb91  1  0.24774939  0.50188404  0.74646830  1
  Pb  Pb92  1  0.24852630  0.76134677  -0.00673561  1
  Pb  Pb93  1  0.25304056  0.75537189  0.24862604  1
  Pb  Pb94  1  0.25621373  0.75626158  0.51011717  1
  Pb  Pb95  1  0.24676594  0.75744331  0.75529196  1
  Pb  Pb96  1  0.49718564  -0.00114276  -0.01103257  1
  Pb  Pb97  1  0.50881712  -0.00450461  0.24692161  1
  Pb  Pb98  1  0.49872582  -0.00692955  0.49636722  1
  Pb  Pb99  1  0.50474695  -0.00139390  0.75866881  1
  Pb  Pb100  1  0.50646438  0.24750330  0.00087692  1
  Pb  Pb101  1  0.50384965  0.25571363  0.24811003  1
  Pb  Pb102  1  0.50380020  0.25077127  0.48949498  1
  Pb  Pb103  1  0.50271151  0.24567335  0.75636895  1
  Pb  Pb104  1  0.50229391  0.49023453  0.00239034  1
  Pb  Pb105  1  0.50296531  0.49528298  0.25218397  1
  Pb  Pb106  1  0.50425279  0.49723050  0.49175354  1
  Pb  Pb107  1  0.50751995  0.49738773  0.75419783  1
  Pb  Pb108  1  0.50108249  0.76396866  -0.00440263  1
  Pb  Pb109  1  0.50314659  0.76231252  0.25218711  1
  Pb  Pb110  1  0.49870050  0.75929093  0.50038835  1
  Pb  Pb111  1  0.50127252  0.75619407  0.75662399  1
  Pb  Pb112  1  0.73586923  -0.00318101  -0.00371154  1
  Pb  Pb113  1  0.74350135  -0.00117285  0.24886695  1
  Pb  Pb114  1  0.75568092  -0.00416646  0.50531601  1
  Pb  Pb115  1  0.74861200  -0.00471684  0.75275006  1
  Pb  Pb116  1  0.73931823  0.24896912  0.00540663  1
  Pb  Pb117  1  0.74259088  0.24550417  0.25269432  1
  Pb  Pb118  1  0.75428303  0.25055597  0.50085276  1
  Pb  Pb119  1  0.74092154  0.25017259  0.74975511  1
  Pb  Pb120  1  0.74469023  0.49784283  -0.00352002  1
  Pb  Pb121  1  0.74444566  0.50286675  0.25572935  1
  Pb  Pb122  1  0.75340909  0.49584273  0.50142238  1
  Pb  Pb123  1  0.74625377  0.50459533  0.75344183  1
  Pb  Pb124  1  0.75042622  0.75109370  -0.01635975  1
  Pb  Pb125  1  0.74284772  0.75099054  0.25226189  1
  Pb  Pb126  1  0.75514557  0.75527311  0.50671657  1
  Pb  Pb127  1  0.75219153  0.74176794  0.75802462  1
  O  O128  1  0.11994669  0.00599069  0.16276654  1
  O  O129  1  0.12323711  -0.00276040  0.42378990  1
  O  O130  1  0.12878425  -0.00509445  0.66232018  1
  O  O131  1  0.12350760  0.00396441  0.90630536  1
  O  O132  1  0.11987797  0.24381672  0.16826230  1
  O  O133  1  0.12348168  0.24436017  0.41874667  1
  O  O134  1  0.13102809  0.25319596  0.65480927  1
  O  O135  1  0.12623731  0.25809014  0.91196376  1
  O  O136  1  0.12043865  0.50765907  0.16709585  1
  O  O137  1  0.12071789  0.51039474  0.41740829  1
  O  O138  1  0.12712744  0.49733786  0.66391826  1
  O  O139  1  0.12793827  0.49264913  0.91112214  1
  O  O140  1  0.11868837  0.74343800  0.16114475  1
  O  O141  1  0.11965512  0.74864632  0.42395792  1
  O  O142  1  0.12604744  0.75359927  0.66484432  1
  O  O143  1  0.12659875  0.74584641  0.90422845  1
  O  O144  1  0.36836633  0.00775349  0.16248508  1
  O  O145  1  0.37037900  0.00435028  0.41432354  1
  O  O146  1  0.38070366  0.00626030  0.66107201  1
  O  O147  1  0.37519752  0.00191405  0.90098108  1
  O  O148  1  0.36872100  0.24047816  0.16724688  1
  O  O149  1  0.37228698  0.24159801  0.40890825  1
  O  O150  1  0.37889455  0.25746294  0.66013522  1
  O  O151  1  0.37064457  0.26026586  0.91476550  1
  O  O152  1  0.36977384  0.51264816  0.16775177  1
  O  O153  1  0.36994973  0.51100688  0.41125273  1
  O  O154  1  0.38224315  0.49978509  0.66407946  1
  O  O155  1  0.37245860  0.49370265  0.91711810  1
  O  O156  1  0.37135423  0.73962944  0.16594987  1
  O  O157  1  0.36947533  0.74235064  0.41737376  1
  O  O158  1  0.38043282  0.73901390  0.66542069  1
  O  O159  1  0.37497322  0.74148698  0.90489841  1
  O  O160  1  0.62769175  -0.00095079  0.16343970  1
  O  O161  1  0.62659551  -0.00129680  0.41851704  1
  O  O162  1  0.61861921  0.00578604  0.66129106  1
  O  O163  1  0.62594556  0.00391767  0.90996062  1
  O  O164  1  0.62727132  0.24925494  0.16743317  1
  O  O165  1  0.62615284  0.24837066  0.40977224  1
  O  O166  1  0.61937469  0.25236499  0.66098214  1
  O  O167  1  0.62781725  0.25383297  0.91890141  1
  O  O168  1  0.62797081  0.50840640  0.16642700  1
  O  O169  1  0.62789872  0.50197109  0.41445714  1
  O  O170  1  0.62044947  0.49520417  0.66182506  1
  O  O171  1  0.62226884  0.49685086  0.91868871  1
  O  O172  1  0.62705609  0.74328673  0.16202468  1
  O  O173  1  0.62838610  0.75031230  0.41951009  1
  O  O174  1  0.62272863  0.75123916  0.66349224  1
  O  O175  1  0.62414072  0.74653090  0.90632746  1
  O  O176  1  0.87825616  -0.00056447  0.16362609  1
  O  O177  1  0.87861106  0.00081648  0.41877448  1
  O  O178  1  0.86976545  0.00379289  0.66362260  1
  O  O179  1  0.87964659  0.00951686  0.89993813  1
  O  O180  1  0.87883559  0.25438760  0.16637623  1
  O  O181  1  0.87680762  0.25029680  0.41470033  1
  O  O182  1  0.86907623  0.25098135  0.66173027  1
  O  O183  1  0.88017374  0.25818346  0.91369630  1
  O  O184  1  0.87633315  0.49816870  0.16763109  1
  O  O185  1  0.87710648  0.50406973  0.41656165  1
  O  O186  1  0.86873038  0.50394261  0.66158651  1
  O  O187  1  0.88022609  0.48817824  0.91081893  1
  O  O188  1  0.87737801  0.74757605  0.16283433  1
  O  O189  1  0.87910245  0.74665759  0.42243221  1
  O  O190  1  0.86779803  0.74260631  0.66704355  1
  O  O191  1  0.87511515  0.74789988  0.90100032  1
  O  O192  1  0.00034699  0.12559323  0.17076334  1
  O  O193  1  -0.00265679  0.12378506  0.42236288  1
  O  O194  1  -0.00039033  0.12536623  0.65604816  1
  O  O195  1  -0.00460874  0.13413271  0.90981338  1
  O  O196  1  -0.00539066  0.37656871  0.17199708  1
  O  O197  1  -0.00716641  0.37627856  0.42108803  1
  O  O198  1  -0.00152998  0.37706900  0.65260327  1
  O  O199  1  0.00469753  0.37483564  0.90861953  1
  O  O200  1  -0.00046558  0.62382903  0.16705856  1
  O  O201  1  -0.00286226  0.62695430  0.42324063  1
  O  O202  1  -0.00724191  0.62535038  0.66234443  1
  O  O203  1  0.00230603  0.61763905  0.90611305  1
  O  O204  1  -0.00376645  0.87421162  0.16483392  1
  O  O205  1  0.00032572  0.87463947  0.42678831  1
  O  O206  1  0.00553597  0.87370468  0.66183251  1
  O  O207  1  -0.00226297  0.87579352  0.90536288  1
  O  O208  1  0.24190396  0.12506418  0.16233531  1
  O  O209  1  0.25243114  0.12239465  0.41801247  1
  O  O210  1  0.25978780  0.12776064  0.66045262  1
  O  O211  1  0.24942982  0.13034010  0.91214845  1
  O  O212  1  0.24370385  0.37592813  0.17149935  1
  O  O213  1  0.25184447  0.37674851  0.41584404  1
  O  O214  1  0.26161282  0.38057543  0.65522412  1
  O  O215  1  0.24844768  0.37620710  0.91277645  1
  O  O216  1  0.24229919  0.62663968  0.15787945  1
  O  O217  1  0.24436448  0.62838428  0.41489955  1
  O  O218  1  0.26105280  0.62095980  0.66112935  1
  O  O219  1  0.25779131  0.61782544  0.91227901  1
  O  O220  1  0.24589539  0.87322070  0.16404732  1
  O  O221  1  0.24374981  0.87191604  0.42101691  1
  O  O222  1  0.24692010  0.87316465  0.66473137  1
  O  O223  1  0.25186214  0.87322841  0.90505770  1
  O  O224  1  0.49300205  0.12451822  0.15737293  1
  O  O225  1  0.49226449  0.12138866  0.40790084  1
  O  O226  1  0.50022105  0.13091150  0.66721626  1
  O  O227  1  0.49729935  0.13272729  0.91301459  1
  O  O228  1  0.49794762  0.37820952  0.16650111  1
  O  O229  1  0.49734798  0.37719240  0.40926072  1
  O  O230  1  0.49950823  0.37588982  0.66646781  1
  O  O231  1  0.49252787  0.37485871  0.91163000  1
  O  O232  1  0.50064467  0.62462470  0.15716422  1
  O  O233  1  0.49454259  0.62681628  0.40568664  1
  O  O234  1  0.50039196  0.62235625  0.66800751  1
  O  O235  1  0.49021796  0.61625450  0.91369239  1
  O  O236  1  0.49863554  0.87235746  0.16333724  1
  O  O237  1  0.49647704  0.87288872  0.41399842  1
  O  O238  1  0.50617310  0.87641858  0.66789454  1
  O  O239  1  0.49855335  0.87377392  0.90730257  1
  O  O240  1  0.76008460  0.12609304  0.16586112  1
  O  O241  1  0.75795382  0.12346797  0.41361529  1
  O  O242  1  0.73796520  0.12833479  0.66022293  1
  O  O243  1  0.76273271  0.13258155  0.91248171  1
  O  O244  1  0.75962887  0.37616266  0.16741403  1
  O  O245  1  0.75660083  0.37651869  0.41342664  1
  O  O246  1  0.73847605  0.37458325  0.65879825  1
  O  O247  1  0.75735085  0.37577874  0.90506035  1
  O  O248  1  0.75146175  0.62504142  0.16267482  1
  O  O249  1  0.76139699  0.62666604  0.41765120  1
  O  O250  1  0.74489024  0.62301341  0.66551820  1
  O  O251  1  0.75108675  0.61747062  0.91205744  1
  O  O252  1  0.75625027  0.87250645  0.16094362  1
  O  O253  1  0.75801704  0.87460246  0.41863222  1
  O  O254  1  0.73809859  0.87886882  0.66556559  1
  O  O255  1  0.75249416  0.87787138  0.90586870  1
  O  O256  1  0.12084243  0.12885649  0.04892289  1
  O  O257  1  0.12402058  0.11901675  0.30655776  1
  O  O258  1  0.12832408  0.11916849  0.53500478  1
  O  O259  1  0.13420528  0.12841094  0.77734174  1
  O  O260  1  0.12324888  0.37550781  0.03946815  1
  O  O261  1  0.11869595  0.37726856  0.29669447  1
  O  O262  1  0.12907118  0.38356476  0.52536099  1
  O  O263  1  0.12677532  0.37532474  0.79547109  1
  O  O264  1  0.12305512  0.62177581  0.04592437  1
  O  O265  1  0.12206154  0.63256891  0.30664461  1
  O  O266  1  0.12202504  0.62277001  0.54252399  1
  O  O267  1  0.12872348  0.61973184  0.77541739  1
  O  O268  1  0.12333891  0.87530689  0.03095632  1
  O  O269  1  0.12069057  0.87375599  0.30418226  1
  O  O270  1  0.12820920  0.87270460  0.55118265  1
  O  O271  1  0.12837279  0.87460166  0.77869246  1
  O  O272  1  0.37117790  0.12857222  0.04700543  1
  O  O273  1  0.36977583  0.11927353  0.29516549  1
  O  O274  1  0.38088782  0.12720819  0.55263125  1
  O  O275  1  0.37395062  0.13841006  0.77851451  1
  O  O276  1  0.36331518  0.37712761  0.04473025  1
  O  O277  1  0.36777703  0.37756128  0.28066609  1
  O  O278  1  0.38281385  0.37596004  0.54549196  1
  O  O279  1  0.37275007  0.37714758  0.79821431  1
  O  O280  1  0.37772657  0.62503754  0.04737953  1
  O  O281  1  0.37156090  0.63018312  0.29625704  1
  O  O282  1  0.38054301  0.62364017  0.54888295  1
  O  O283  1  0.37440916  0.61858780  0.79590936  1
  O  O284  1  0.37378175  0.86827631  0.03536917  1
  O  O285  1  0.36720472  0.87021178  0.28698812  1
  O  O286  1  0.37687589  0.86647760  0.54541068  1
  O  O287  1  0.37913728  0.86865318  0.77326992  1
  O  O288  1  0.63510891  0.13044386  0.03694962  1
  O  O289  1  0.63211192  0.11778061  0.28250986  1
  O  O290  1  0.61917287  0.12456216  0.54907188  1
  O  O291  1  0.62366310  0.13549247  0.78542697  1
  O  O292  1  0.62996970  0.37739889  0.04213249  1
  O  O293  1  0.62734765  0.38145907  0.28038512  1
  O  O294  1  0.61682572  0.37392173  0.54810688  1
  O  O295  1  0.62160507  0.37307508  0.78433337  1
  O  O296  1  0.63210090  0.62207887  0.04864972  1
  O  O297  1  0.63714988  0.62931753  0.28606240  1
  O  O298  1  0.62244610  0.62427530  0.55069920  1
  O  O299  1  0.62675710  0.61398558  0.78249072  1
  O  O300  1  0.62507130  0.87652606  0.03211340  1
  O  O301  1  0.62655337  0.87011382  0.28573247  1
  O  O302  1  0.62055294  0.87322099  0.55264197  1
  O  O303  1  0.62055225  0.88203119  0.78000477  1
  O  O304  1  0.88163138  0.12669023  0.04727587  1
  O  O305  1  0.88072834  0.12110463  0.30661477  1
  O  O306  1  0.87206864  0.12798653  0.53125233  1
  O  O307  1  0.87392677  0.13361154  0.79296522  1
  O  O308  1  0.87751133  0.37576018  0.05184099  1
  O  O309  1  0.87991200  0.37641424  0.30576643  1
  O  O310  1  0.86255870  0.37466521  0.53083202  1
  O  O311  1  0.87556638  0.37152512  0.79242061  1
  O  O312  1  0.88009972  0.62060741  0.04602218  1
  O  O313  1  0.87972142  0.62821377  0.30371303  1
  O  O314  1  0.87106419  0.62686994  0.55319598  1
  O  O315  1  0.86579220  0.61830948  0.77811200  1
  O  O316  1  0.87645506  0.87577573  0.04299136  1
  O  O317  1  0.88072417  0.87039046  0.30604810  1
  O  O318  1  0.86588525  0.87239499  0.54529157  1
  O  O319  1  0.87253304  0.87757752  0.77141837  1
