# generated using pymatgen
data_VFe(PbO3)2
_symmetry_space_group_name_H-M   'P 1'
_cell_length_a   15.40516818
_cell_length_b   15.39610196
_cell_length_c   18.46477168
_cell_angle_alpha   89.94872712
_cell_angle_beta   89.98324763
_cell_angle_gamma   89.99509021
_symmetry_Int_Tables_number   1
_chemical_formula_structural   VFe(PbO3)2
_chemical_formula_sum   'V32 Fe32 Pb64 O192'
_cell_volume   4379.46409395
_cell_formula_units_Z   32
loop_
 _symmetry_equiv_pos_site_id
 _symmetry_equiv_pos_as_xyz
  1  'x, y, z'
loop_
 _atom_site_type_symbol
 _atom_site_label
 _atom_site_symmetry_multiplicity
 _atom_site_fract_x
 _atom_site_fract_y
 _atom_site_fract_z
 _atom_site_occupancy
  V  V0  1  0.87806005  0.87405518  0.13845373  1
  V  V1  1  0.37577873  0.87427156  0.14194509  1
  V  V2  1  0.62542739  0.86701587  0.39018519  1
  V  V3  1  0.87220372  0.62880842  0.38898457  1
  V  V4  1  0.12654393  0.37522862  0.15327144  1
  V  V5  1  0.87954947  0.37275571  0.89406029  1
  V  V6  1  0.62459976  0.12648056  0.88950954  1
  V  V7  1  0.37029810  0.87992282  0.88310697  1
  V  V8  1  0.87332940  0.37400507  0.63474565  1
  V  V9  1  0.87054116  0.87517838  0.38714993  1
  V  V10  1  0.62459203  0.12386807  0.14206789  1
  V  V11  1  0.87992445  0.87747738  0.88950457  1
  V  V12  1  0.62649319  0.61946746  0.38680850  1
  V  V13  1  0.62872037  0.62701839  0.64286432  1
  V  V14  1  0.87111753  0.86572885  0.63642549  1
  V  V15  1  0.62794049  0.11354684  0.38571257  1
  V  V16  1  0.12563459  0.12625966  0.89168403  1
  V  V17  1  0.87137696  0.12503239  0.63692925  1
  V  V18  1  0.37550966  0.12351484  0.14616533  1
  V  V19  1  0.62698760  0.12889767  0.63784885  1
  V  V20  1  0.37137290  0.37130154  0.88832570  1
  V  V21  1  0.62350173  0.62454070  0.13513942  1
  V  V22  1  0.62580354  0.37632806  0.64221443  1
  V  V23  1  0.87894176  0.62496604  0.13904710  1
  V  V24  1  0.36969295  0.87396514  0.39995494  1
  V  V25  1  0.12599066  0.37308016  0.88800846  1
  V  V26  1  0.87434974  0.37318276  0.15204389  1
  V  V27  1  0.88592950  0.12302422  0.15330075  1
  V  V28  1  0.13013597  0.87579406  0.14457195  1
  V  V29  1  0.37678176  0.37579275  0.14742187  1
  V  V30  1  0.62784380  0.36545262  0.38108580  1
  V  V31  1  0.37300723  0.62620049  0.14359255  1
  Fe  Fe32  1  0.13195832  0.12535040  0.15345233  1
  Fe  Fe33  1  0.12037796  0.62229214  0.63056962  1
  Fe  Fe34  1  0.12460757  0.87729436  0.88180017  1
  Fe  Fe35  1  0.37626589  0.87573069  0.62711944  1
  Fe  Fe36  1  0.38112802  0.62912911  0.39236130  1
  Fe  Fe37  1  0.62266943  0.87518230  0.13447983  1
  Fe  Fe38  1  0.12288564  0.37316660  0.62099886  1
  Fe  Fe39  1  0.37583150  0.37517327  0.62460340  1
  Fe  Fe40  1  0.37477496  0.12713254  0.88411551  1
  Fe  Fe41  1  0.12290958  0.12269391  0.38416438  1
  Fe  Fe42  1  0.86913956  0.37791077  0.37519888  1
  Fe  Fe43  1  0.12131200  0.87780065  0.62653052  1
  Fe  Fe44  1  0.12300560  0.37778019  0.39127989  1
  Fe  Fe45  1  0.87603829  0.62334111  0.88643908  1
  Fe  Fe46  1  0.62938812  0.87685122  0.65046282  1
  Fe  Fe47  1  0.37989400  0.12188977  0.39825409  1
  Fe  Fe48  1  0.12480374  0.62412218  0.88344275  1
  Fe  Fe49  1  0.62535095  0.87857333  0.87761358  1
  Fe  Fe50  1  0.12658036  0.62848152  0.38256322  1
  Fe  Fe51  1  0.87165288  0.61867165  0.63598418  1
  Fe  Fe52  1  0.62422997  0.37230853  0.88831966  1
  Fe  Fe53  1  0.87581171  0.12746279  0.88914652  1
  Fe  Fe54  1  0.86913165  0.12218952  0.37431151  1
  Fe  Fe55  1  0.11975141  0.12838808  0.62285165  1
  Fe  Fe56  1  0.38016989  0.37739082  0.39519036  1
  Fe  Fe57  1  0.37472907  0.62422812  0.87878406  1
  Fe  Fe58  1  0.62162472  0.37388459  0.13816172  1
  Fe  Fe59  1  0.12116614  0.87204687  0.39835450  1
  Fe  Fe60  1  0.37555848  0.12622956  0.62426494  1
  Fe  Fe61  1  0.12745963  0.62434977  0.14876140  1
  Fe  Fe62  1  0.37625464  0.62443646  0.63460446  1
  Fe  Fe63  1  0.62537300  0.62336049  0.88517838  1
  Pb  Pb64  1  0.00113629  0.00295532  0.00314344  1
  Pb  Pb65  1  0.01581886  -0.00742085  0.26333801  1
  Pb  Pb66  1  0.00255147  0.00554962  0.49576702  1
  Pb  Pb67  1  0.00616163  -0.00305030  0.74670955  1
  Pb  Pb68  1  0.00430392  0.24777539  0.00817621  1
  Pb  Pb69  1  0.01491743  0.25344531  0.26667779  1
  Pb  Pb70  1  -0.00138312  0.25029999  0.48377409  1
  Pb  Pb71  1  -0.00499848  0.24686011  0.74364461  1
  Pb  Pb72  1  0.00785306  0.50621665  0.00433567  1
  Pb  Pb73  1  0.00817353  0.49592355  0.26054553  1
  Pb  Pb74  1  0.00658340  0.49853576  0.49511741  1
  Pb  Pb75  1  0.00485435  0.50869976  0.74529316  1
  Pb  Pb76  1  0.00931539  0.74371198  -0.00076942  1
  Pb  Pb77  1  0.01028262  0.75287995  0.25788753  1
  Pb  Pb78  1  0.00539674  0.74329287  0.50414163  1
  Pb  Pb79  1  0.01250518  0.74512306  0.74870281  1
  Pb  Pb80  1  0.24458962  0.00649342  0.00260109  1
  Pb  Pb81  1  0.25308522  0.00914405  0.26565738  1
  Pb  Pb82  1  0.23745747  0.00738540  0.50007474  1
  Pb  Pb83  1  0.24922654  0.00248440  0.73091816  1
  Pb  Pb84  1  0.24432851  0.24473602  0.00741241  1
  Pb  Pb85  1  0.25499802  0.25878634  0.26734216  1
  Pb  Pb86  1  0.24564618  0.25080060  0.48848588  1
  Pb  Pb87  1  0.24980575  0.24799871  0.72968721  1
  Pb  Pb88  1  0.24642048  0.50594226  -0.00112897  1
  Pb  Pb89  1  0.25429881  0.49536853  0.26445766  1
  Pb  Pb90  1  0.24694644  0.50102975  0.49177924  1
  Pb  Pb91  1  0.24947124  0.50125566  0.73313773  1
  Pb  Pb92  1  0.24673312  0.74525988  -0.00678553  1
  Pb  Pb93  1  0.24473648  0.74926809  0.25931236  1
  Pb  Pb94  1  0.24349816  0.73603254  0.50331514  1
  Pb  Pb95  1  0.24546851  0.74972242  0.73448302  1
  Pb  Pb96  1  0.50246816  -0.00472235  -0.00280291  1
  Pb  Pb97  1  0.49456374  0.00024274  0.25713627  1
  Pb  Pb98  1  0.49763380  -0.00665428  0.50925156  1
  Pb  Pb99  1  0.49510952  -0.00114696  0.74316089  1
  Pb  Pb100  1  0.50261252  0.25375037  0.00287407  1
  Pb  Pb101  1  0.48830876  0.24536812  0.25990954  1
  Pb  Pb102  1  0.49211826  0.25031394  0.50203987  1
  Pb  Pb103  1  0.48996790  0.24749725  0.74742007  1
  Pb  Pb104  1  0.50119485  0.49925234  -0.00489411  1
  Pb  Pb105  1  0.48937074  0.50162769  0.25769309  1
  Pb  Pb106  1  0.48893585  0.50430929  0.50634273  1
  Pb  Pb107  1  0.49599553  0.50343328  0.75033611  1
  Pb  Pb108  1  0.50219077  0.75378046  -0.01116706  1
  Pb  Pb109  1  0.49534026  0.74214085  0.25268100  1
  Pb  Pb110  1  0.49752633  0.75320189  0.51117429  1
  Pb  Pb111  1  0.49294944  0.74930747  0.74685260  1
  Pb  Pb112  1  0.74601701  -0.00374470  0.00053119  1
  Pb  Pb113  1  0.75302138  -0.00189027  0.24759101  1
  Pb  Pb114  1  0.74339790  -0.01117677  0.50654308  1
  Pb  Pb115  1  0.75220516  0.00281530  0.75405562  1
  Pb  Pb116  1  0.74693462  0.25310446  0.00613686  1
  Pb  Pb117  1  0.75378710  0.24663527  0.25079411  1
  Pb  Pb118  1  0.75529039  0.24860833  0.49177665  1
  Pb  Pb119  1  0.74763829  0.25328667  0.75542730  1
  Pb  Pb120  1  0.74623996  0.49728782  -0.00089198  1
  Pb  Pb121  1  0.75015426  0.49834064  0.24624915  1
  Pb  Pb122  1  0.75519633  0.50665466  0.50100386  1
  Pb  Pb123  1  0.74462021  0.49729377  0.75785521  1
  Pb  Pb124  1  0.74543635  0.75344327  -0.00724758  1
  Pb  Pb125  1  0.74863022  0.74896662  0.24301071  1
  Pb  Pb126  1  0.74935956  0.74905131  0.50723011  1
  Pb  Pb127  1  0.75018401  0.73359098  0.75999539  1
  O  O128  1  0.12679949  -0.00865194  0.17114611  1
  O  O129  1  0.11983585  -0.00225585  0.41085389  1
  O  O130  1  0.11575366  0.00390885  0.65585126  1
  O  O131  1  0.12537774  0.00736802  0.91481058  1
  O  O132  1  0.13002763  0.25605886  0.17546166  1
  O  O133  1  0.12048611  0.24899202  0.40225551  1
  O  O134  1  0.11934210  0.25091594  0.65538029  1
  O  O135  1  0.12616715  0.24826583  0.92137296  1
  O  O136  1  0.12836615  0.49452151  0.17242898  1
  O  O137  1  0.12123107  0.50551995  0.40727585  1
  O  O138  1  0.11939510  0.49462989  0.65707536  1
  O  O139  1  0.12532811  0.49403092  0.91591469  1
  O  O140  1  0.12567110  0.75736480  0.16796716  1
  O  O141  1  0.11953261  0.74804205  0.41814827  1
  O  O142  1  0.11696122  0.75262914  0.65496462  1
  O  O143  1  0.12520432  0.75225816  0.91341524  1
  O  O144  1  0.37342781  -0.00672470  0.16915942  1
  O  O145  1  0.38620157  -0.00923049  0.41775010  1
  O  O146  1  0.37882309  0.00273450  0.65493996  1
  O  O147  1  0.37295473  -0.00167838  0.91288028  1
  O  O148  1  0.37514409  0.25212210  0.17022093  1
  O  O149  1  0.38621591  0.25018782  0.41004759  1
  O  O150  1  0.38111157  0.25076585  0.65584373  1
  O  O151  1  0.37159733  0.25397978  0.91820030  1
  O  O152  1  0.37497003  0.49768190  0.16837213  1
  O  O153  1  0.38423932  0.50411934  0.41493139  1
  O  O154  1  0.38148611  0.49740407  0.65844945  1
  O  O155  1  0.37234942  0.48968528  0.91174340  1
  O  O156  1  0.37289331  0.75494842  0.16736088  1
  O  O157  1  0.38745822  0.75726002  0.41821599  1
  O  O158  1  0.37907862  0.75073443  0.65986322  1
  O  O159  1  0.37374588  0.75985926  0.90678267  1
  O  O160  1  0.61974489  0.00316397  0.16545961  1
  O  O161  1  0.63253169  -0.00326880  0.40972630  1
  O  O162  1  0.63286204  0.01358947  0.66530348  1
  O  O163  1  0.62542445  0.00619778  0.91281101  1
  O  O164  1  0.61782874  0.24073194  0.16675108  1
  O  O165  1  0.63138323  0.24997690  0.39777962  1
  O  O166  1  0.62820647  0.24839319  0.66558319  1
  O  O167  1  0.62517333  0.24471608  0.91902702  1
  O  O168  1  0.62361923  0.50518522  0.16064214  1
  O  O169  1  0.63116222  0.50617959  0.39897951  1
  O  O170  1  0.62949593  0.49543440  0.66359370  1
  O  O171  1  0.62539013  0.49683463  0.91717969  1
  O  O172  1  0.62334790  0.74640910  0.16159617  1
  O  O173  1  0.63052186  0.75320518  0.41381152  1
  O  O174  1  0.63200792  0.74291995  0.66261913  1
  O  O175  1  0.62600534  0.75374937  0.90789295  1
  O  O176  1  0.87451217  -0.00027995  0.16663534  1
  O  O177  1  0.86404093  -0.00866873  0.40431084  1
  O  O178  1  0.86974964  0.01164511  0.65730267  1
  O  O179  1  0.87846909  -0.00068777  0.91915951  1
  O  O180  1  0.87320363  0.24479880  0.16943956  1
  O  O181  1  0.86469791  0.25043445  0.39991731  1
  O  O182  1  0.86826665  0.25369498  0.66498180  1
  O  O183  1  0.87949608  0.25372373  0.92474630  1
  O  O184  1  0.87282251  0.50717969  0.16561117  1
  O  O185  1  0.86281143  0.51009307  0.40561475  1
  O  O186  1  0.86702154  0.48791045  0.66078969  1
  O  O187  1  0.87877835  0.48946679  0.91779761  1
  O  O188  1  0.87409202  0.74688055  0.16225681  1
  O  O189  1  0.86385906  0.74927548  0.41616120  1
  O  O190  1  0.86835245  0.75228373  0.65055114  1
  O  O191  1  0.87678251  0.75958601  0.91271144  1
  O  O192  1  -0.00043917  0.12491433  0.16719831  1
  O  O193  1  -0.00890765  0.12184317  0.39986043  1
  O  O194  1  -0.01163681  0.13313434  0.65499843  1
  O  O195  1  0.00745400  0.12798018  0.92029725  1
  O  O196  1  0.00615661  0.37446978  0.17233456  1
  O  O197  1  -0.00930616  0.37947688  0.40329092  1
  O  O198  1  -0.01219473  0.37075383  0.65259806  1
  O  O199  1  0.00192382  0.37071455  0.92113965  1
  O  O200  1  -0.00730874  0.62460204  0.16502156  1
  O  O201  1  -0.01272131  0.62944860  0.40412020  1
  O  O202  1  -0.00556021  0.62146883  0.66086025  1
  O  O203  1  -0.00028726  0.62316242  0.91869726  1
  O  O204  1  0.00222327  0.87475937  0.16656773  1
  O  O205  1  -0.01690431  0.87019242  0.40976531  1
  O  O206  1  -0.01606207  0.88108969  0.66169328  1
  O  O207  1  -0.00259464  0.88001522  0.91792239  1
  O  O208  1  0.25923775  0.12298923  0.17672737  1
  O  O209  1  0.25130498  0.12066587  0.40732363  1
  O  O210  1  0.24810384  0.12627881  0.64674931  1
  O  O211  1  0.24441979  0.12724461  0.91732485  1
  O  O212  1  0.25402811  0.37537485  0.17546707  1
  O  O213  1  0.25161326  0.37640251  0.40898975  1
  O  O214  1  0.24999995  0.37369959  0.64794728  1
  O  O215  1  0.25002594  0.37209124  0.91716419  1
  O  O216  1  0.25624032  0.62619252  0.17104846  1
  O  O217  1  0.25316862  0.63093269  0.40783588  1
  O  O218  1  0.24796069  0.62465058  0.65322994  1
  O  O219  1  0.25177496  0.62350012  0.91358484  1
  O  O220  1  0.24982670  0.87391920  0.16894070  1
  O  O221  1  0.25465197  0.87304335  0.41329022  1
  O  O222  1  0.24802376  0.87778016  0.64987175  1
  O  O223  1  0.25365713  0.87932555  0.91004271  1
  O  O224  1  0.49780731  0.12107248  0.17101481  1
  O  O225  1  0.51804692  0.12253669  0.41627582  1
  O  O226  1  0.51002926  0.12759004  0.65642459  1
  O  O227  1  0.50559122  0.12636397  0.91405428  1
  O  O228  1  0.49368302  0.37454782  0.16591404  1
  O  O229  1  0.51956793  0.37939031  0.41330984  1
  O  O230  1  0.50983243  0.37305591  0.66044996  1
  O  O231  1  0.49157723  0.37075171  0.91261802  1
  O  O232  1  0.49760634  0.62681722  0.16558632  1
  O  O233  1  0.51563172  0.63117370  0.41694949  1
  O  O234  1  0.51156898  0.62184674  0.66347345  1
  O  O235  1  0.49700240  0.62428152  0.91350229  1
  O  O236  1  0.49206378  0.87381155  0.16284696  1
  O  O237  1  0.51399735  0.87597854  0.41553683  1
  O  O238  1  0.50255369  0.87763191  0.66290485  1
  O  O239  1  0.49368147  0.88012688  0.90672316  1
  O  O240  1  0.74006537  0.12263594  0.16266094  1
  O  O241  1  0.74309438  0.12387654  0.41308942  1
  O  O242  1  0.75057399  0.13247453  0.66709184  1
  O  O243  1  0.74466493  0.12657117  0.91677261  1
  O  O244  1  0.74849345  0.37294820  0.16336641  1
  O  O245  1  0.74154823  0.37960426  0.41101209  1
  O  O246  1  0.74774495  0.37069394  0.66850632  1
  O  O247  1  0.75911365  0.37044514  0.91670051  1
  O  O248  1  0.75143716  0.62677401  0.16000666  1
  O  O249  1  0.74318524  0.63052488  0.41810792  1
  O  O250  1  0.74624712  0.61931180  0.66908171  1
  O  O251  1  0.75294808  0.62414073  0.91893809  1
  O  O252  1  0.75411475  0.87482572  0.16046457  1
  O  O253  1  0.74804152  0.87284762  0.41933711  1
  O  O254  1  0.76222121  0.88212232  0.67237903  1
  O  O255  1  0.75705397  0.88099023  0.91028049  1
  O  O256  1  0.13655361  0.12617772  0.05194086  1
  O  O257  1  0.12485180  0.11659008  0.27949628  1
  O  O258  1  0.11612250  0.12112642  0.52183508  1
  O  O259  1  0.12407600  0.13014921  0.80105058  1
  O  O260  1  0.12964762  0.37352654  0.06171778  1
  O  O261  1  0.12584467  0.37765880  0.28655653  1
  O  O262  1  0.11573870  0.37690687  0.51892547  1
  O  O263  1  0.12427435  0.37096280  0.79736709  1
  O  O264  1  0.12541525  0.62310453  0.04760063  1
  O  O265  1  0.12217132  0.63528846  0.27900386  1
  O  O266  1  0.11805315  0.62603775  0.52861932  1
  O  O267  1  0.11609684  0.62458393  0.78313785  1
  O  O268  1  0.13060153  0.87829434  0.05313879  1
  O  O269  1  0.11783547  0.86883441  0.29462644  1
  O  O270  1  0.11078105  0.87910349  0.52449892  1
  O  O271  1  0.11412289  0.87917184  0.78255838  1
  O  O272  1  0.37464009  0.12342363  0.05451690  1
  O  O273  1  0.38818527  0.11618464  0.29476961  1
  O  O274  1  0.38714988  0.12538533  0.52255308  1
  O  O275  1  0.37610815  0.13189090  0.78527668  1
  O  O276  1  0.37085356  0.37574067  0.05669542  1
  O  O277  1  0.38089990  0.38017343  0.29108613  1
  O  O278  1  0.38873691  0.37554819  0.52314683  1
  O  O279  1  0.37077108  0.36848207  0.79727791  1
  O  O280  1  0.37296383  0.62566077  0.05222665  1
  O  O281  1  0.39022952  0.62766780  0.29016039  1
  O  O282  1  0.38845758  0.62876475  0.53234424  1
  O  O283  1  0.38088372  0.62154425  0.77857131  1
  O  O284  1  0.37140404  0.87504426  0.05119634  1
  O  O285  1  0.37950355  0.87362539  0.30769806  1
  O  O286  1  0.38933320  0.87379913  0.52592508  1
  O  O287  1  0.37081939  0.88266172  0.79193428  1
  O  O288  1  0.62028459  0.12424337  0.05031066  1
  O  O289  1  0.62494648  0.11349604  0.29395437  1
  O  O290  1  0.63334724  0.12918866  0.54653512  1
  O  O291  1  0.62602893  0.12927278  0.79837441  1
  O  O292  1  0.62146669  0.36590346  0.03783304  1
  O  O293  1  0.62602867  0.37381406  0.28935440  1
  O  O294  1  0.63068431  0.37392758  0.55142124  1
  O  O295  1  0.63008674  0.37170832  0.78870646  1
  O  O296  1  0.62155967  0.62601964  0.04362663  1
  O  O297  1  0.62563793  0.63195954  0.29516101  1
  O  O298  1  0.63202676  0.62248278  0.55090458  1
  O  O299  1  0.63431941  0.61923928  0.78485043  1
  O  O300  1  0.62186753  0.88223624  0.03483548  1
  O  O301  1  0.62679928  0.86855103  0.29843694  1
  O  O302  1  0.63853410  0.87961699  0.54836268  1
  O  O303  1  0.62996994  0.88372626  0.77709455  1
  O  O304  1  0.87553967  0.12389896  0.06135267  1
  O  O305  1  0.86093173  0.11956038  0.27205932  1
  O  O306  1  0.86496200  0.13006471  0.54527283  1
  O  O307  1  0.87957262  0.13248662  0.79047126  1
  O  O308  1  0.88225419  0.37509548  0.06064467  1
  O  O309  1  0.86752535  0.38256267  0.27352848  1
  O  O310  1  0.86447918  0.37233249  0.54312836  1
  O  O311  1  0.88191357  0.37003361  0.80312801  1
  O  O312  1  0.88002623  0.62355724  0.04782531  1
  O  O313  1  0.86456084  0.63436568  0.29786770  1
  O  O314  1  0.86350598  0.61793665  0.53517926  1
  O  O315  1  0.87024903  0.62368299  0.78620282  1
  O  O316  1  0.88066316  0.87625735  0.04754011  1
  O  O317  1  0.86604319  0.86868020  0.29545405  1
  O  O318  1  0.86607265  0.87869686  0.54461350  1
  O  O319  1  0.88309015  0.88072444  0.79860927  1
