# generated using pymatgen
data_VFe(PbO3)2
_symmetry_space_group_name_H-M   'P 1'
_cell_length_a   15.39164137
_cell_length_b   15.38815034
_cell_length_c   18.47121770
_cell_angle_alpha   89.99893807
_cell_angle_beta   89.95949205
_cell_angle_gamma   90.00795023
_symmetry_Int_Tables_number   1
_chemical_formula_structural   VFe(PbO3)2
_chemical_formula_sum   'V32 Fe32 Pb64 O192'
_cell_volume   4374.88629828
_cell_formula_units_Z   32
loop_
 _symmetry_equiv_pos_site_id
 _symmetry_equiv_pos_as_xyz
  1  'x, y, z'
loop_
 _atom_site_type_symbol
 _atom_site_label
 _atom_site_symmetry_multiplicity
 _atom_site_fract_x
 _atom_site_fract_y
 _atom_site_fract_z
 _atom_site_occupancy
  V  V0  1  0.37441658  0.37353139  0.39065489  1
  V  V1  1  0.37261230  0.37556961  0.13492612  1
  V  V2  1  0.62196512  0.12431248  0.38617983  1
  V  V3  1  0.37861152  0.87380076  0.64581477  1
  V  V4  1  0.37941569  0.37751391  0.64546627  1
  V  V5  1  0.87207554  0.12454614  0.64203477  1
  V  V6  1  0.62520909  0.62506381  0.64319476  1
  V  V7  1  0.37402666  0.87498743  0.39153962  1
  V  V8  1  0.12348475  0.37849073  0.88587636  1
  V  V9  1  0.87156899  0.37615248  0.63867398  1
  V  V10  1  0.62076879  0.37266041  0.38710737  1
  V  V11  1  0.12299720  0.62407888  0.64119312  1
  V  V12  1  0.12291845  0.87751014  0.13465950  1
  V  V13  1  0.87569638  0.62430445  0.89415233  1
  V  V14  1  0.37540450  0.12316115  0.39398973  1
  V  V15  1  0.87301761  0.87420043  0.64524844  1
  V  V16  1  0.12751075  0.62503965  0.39128326  1
  V  V17  1  0.12438480  0.62210976  0.88861887  1
  V  V18  1  0.62319946  0.37539047  0.89521491  1
  V  V19  1  0.87418902  0.87384109  0.13518778  1
  V  V20  1  0.37645514  0.62777870  0.64167006  1
  V  V21  1  0.38036089  0.62083442  0.89493853  1
  V  V22  1  0.37227237  0.88140701  0.89173979  1
  V  V23  1  0.12578006  0.37370663  0.13754200  1
  V  V24  1  0.62656947  0.12617230  0.89169996  1
  V  V25  1  0.87294077  0.62571019  0.63704334  1
  V  V26  1  0.62309290  0.87642827  0.38728563  1
  V  V27  1  0.12982959  0.37094172  0.39677791  1
  V  V28  1  0.12414319  0.62649805  0.13996374  1
  V  V29  1  0.37606601  0.62560258  0.39109246  1
  V  V30  1  0.62539964  0.12597868  0.64452548  1
  V  V31  1  0.87567437  0.37625208  0.89466367  1
  Fe  Fe32  1  0.12425487  0.12722036  0.64424859  1
  Fe  Fe33  1  0.87201283  0.62570736  0.38040256  1
  Fe  Fe34  1  0.87682429  0.87658292  0.38269015  1
  Fe  Fe35  1  0.87641749  0.37345331  0.38088132  1
  Fe  Fe36  1  0.87944886  0.62687501  0.13979314  1
  Fe  Fe37  1  0.87476967  0.12735935  0.88717693  1
  Fe  Fe38  1  0.62493024  0.62498132  0.12705877  1
  Fe  Fe39  1  0.62434891  0.12378934  0.12760438  1
  Fe  Fe40  1  0.12398417  0.87237070  0.87794997  1
  Fe  Fe41  1  0.12850013  0.87440102  0.38685471  1
  Fe  Fe42  1  0.37952507  0.12333178  0.65061954  1
  Fe  Fe43  1  0.36885989  0.12346976  0.12796778  1
  Fe  Fe44  1  0.12639109  0.87243814  0.64892789  1
  Fe  Fe45  1  0.62818230  0.37513869  0.63812717  1
  Fe  Fe46  1  0.12371889  0.12754170  0.87854180  1
  Fe  Fe47  1  0.62543037  0.87502051  0.64303865  1
  Fe  Fe48  1  0.62553607  0.37318940  0.13043491  1
  Fe  Fe49  1  0.87470567  0.12428869  0.38693502  1
  Fe  Fe50  1  0.37380976  0.37826612  0.88360601  1
  Fe  Fe51  1  0.87662302  0.87459751  0.88286320  1
  Fe  Fe52  1  0.62333653  0.87743260  0.12327526  1
  Fe  Fe53  1  0.62835099  0.62269014  0.89855753  1
  Fe  Fe54  1  0.12541814  0.12588291  0.13071392  1
  Fe  Fe55  1  0.87918480  0.12317175  0.12717513  1
  Fe  Fe56  1  0.12913368  0.12273091  0.38991908  1
  Fe  Fe57  1  0.87787215  0.37410816  0.13797746  1
  Fe  Fe58  1  0.12394639  0.37916177  0.63433374  1
  Fe  Fe59  1  0.37580838  0.13106218  0.87907580  1
  Fe  Fe60  1  0.36885856  0.62460333  0.12910263  1
  Fe  Fe61  1  0.62582413  0.87360305  0.89528356  1
  Fe  Fe62  1  0.36955150  0.87484805  0.12316716  1
  Fe  Fe63  1  0.61972856  0.62590999  0.38047376  1
  Pb  Pb64  1  0.00182189  0.00602519  -0.01421338  1
  Pb  Pb65  1  -0.00467056  0.00320617  0.25128227  1
  Pb  Pb66  1  0.00512155  -0.00020050  0.49801068  1
  Pb  Pb67  1  0.00673113  0.00227958  0.75279964  1
  Pb  Pb68  1  -0.00458403  0.24579922  0.00053654  1
  Pb  Pb69  1  -0.01038129  0.23798626  0.24966940  1
  Pb  Pb70  1  0.00214449  0.24459633  0.49790036  1
  Pb  Pb71  1  0.00063617  0.24404641  0.75036395  1
  Pb  Pb72  1  -0.01023276  0.50010114  0.00970245  1
  Pb  Pb73  1  -0.01024270  0.49708592  0.25237946  1
  Pb  Pb74  1  0.00137217  0.49745348  0.49747939  1
  Pb  Pb75  1  -0.00377603  0.50055869  0.74945075  1
  Pb  Pb76  1  -0.00400258  0.74731889  -0.00008134  1
  Pb  Pb77  1  -0.00486349  0.75967220  0.25543457  1
  Pb  Pb78  1  0.00066807  0.75788610  0.49814312  1
  Pb  Pb79  1  -0.00393050  0.75752369  0.75534848  1
  Pb  Pb80  1  0.24411579  0.01125553  -0.00773650  1
  Pb  Pb81  1  0.24200135  0.00167262  0.24658035  1
  Pb  Pb82  1  0.23674786  0.00038740  0.51222419  1
  Pb  Pb83  1  0.24683935  0.00903352  0.75186099  1
  Pb  Pb84  1  0.25063176  0.23883016  -0.00550264  1
  Pb  Pb85  1  0.24392247  0.24005166  0.25003505  1
  Pb  Pb86  1  0.25420221  0.23149133  0.51698058  1
  Pb  Pb87  1  0.24773818  0.24751104  0.74933812  1
  Pb  Pb88  1  0.25043551  0.50200285  0.00114839  1
  Pb  Pb89  1  0.24766548  0.49857864  0.24953931  1
  Pb  Pb90  1  0.24909167  0.49556920  0.50533204  1
  Pb  Pb91  1  0.25770570  0.49750657  0.75241916  1
  Pb  Pb92  1  0.25622175  0.75052307  0.00045064  1
  Pb  Pb93  1  0.24784427  0.75667415  0.24671022  1
  Pb  Pb94  1  0.24578937  0.75518135  0.50707328  1
  Pb  Pb95  1  0.25102456  0.75152246  0.75616622  1
  Pb  Pb96  1  0.50453848  0.00413168  0.00127537  1
  Pb  Pb97  1  0.49454367  -0.00195312  0.23210033  1
  Pb  Pb98  1  0.49848422  -0.00123377  0.50509695  1
  Pb  Pb99  1  0.50929854  -0.00870264  0.75894861  1
  Pb  Pb100  1  0.49748733  0.24381380  -0.00060974  1
  Pb  Pb101  1  0.50028137  0.24605352  0.23890357  1
  Pb  Pb102  1  0.49375549  0.24456521  0.50670206  1
  Pb  Pb103  1  0.49469914  0.25255095  0.75655619  1
  Pb  Pb104  1  0.51030189  0.49909935  0.00695412  1
  Pb  Pb105  1  0.50662872  0.51016702  0.24096317  1
  Pb  Pb106  1  0.50340192  0.49430153  0.50023631  1
  Pb  Pb107  1  0.50222909  0.50108972  0.75695331  1
  Pb  Pb108  1  0.49772084  0.75657736  0.00333332  1
  Pb  Pb109  1  0.49958474  0.74993446  0.23160725  1
  Pb  Pb110  1  0.50621517  0.75694616  0.50297789  1
  Pb  Pb111  1  0.51348699  0.74749724  0.76345736  1
  Pb  Pb112  1  0.75255693  0.00246690  -0.00502174  1
  Pb  Pb113  1  0.75410850  0.00276643  0.23939935  1
  Pb  Pb114  1  0.74951371  -0.00214142  0.49742945  1
  Pb  Pb115  1  0.75942257  -0.00303320  0.75846627  1
  Pb  Pb116  1  0.75459378  0.25365063  0.00675338  1
  Pb  Pb117  1  0.75604586  0.24795952  0.23857730  1
  Pb  Pb118  1  0.74524189  0.25498924  0.49547688  1
  Pb  Pb119  1  0.75528848  0.24564572  0.75566479  1
  Pb  Pb120  1  0.75083735  0.49667150  0.01040393  1
  Pb  Pb121  1  0.75088071  0.50251918  0.24034153  1
  Pb  Pb122  1  0.74851061  0.49977589  0.49000995  1
  Pb  Pb123  1  0.74346540  0.50899590  0.75655097  1
  Pb  Pb124  1  0.74299078  0.75087100  -0.00012204  1
  Pb  Pb125  1  0.74469058  0.73946213  0.24334277  1
  Pb  Pb126  1  0.75024079  0.74847570  0.49274932  1
  Pb  Pb127  1  0.74713692  0.75491360  0.75946241  1
  O  O128  1  0.12648316  -0.00709369  0.15475223  1
  O  O129  1  0.13113581  -0.00214922  0.41997816  1
  O  O130  1  0.12466915  -0.00133994  0.66719701  1
  O  O131  1  0.12682434  -0.00131543  0.89966680  1
  O  O132  1  0.12931988  0.25786757  0.15980401  1
  O  O133  1  0.13006276  0.25565851  0.41428805  1
  O  O134  1  0.12339911  0.25713107  0.66334528  1
  O  O135  1  0.12146693  0.26367012  0.90368210  1
  O  O136  1  0.12753079  0.50038091  0.16536879  1
  O  O137  1  0.13082477  0.50558159  0.41818718  1
  O  O138  1  0.12452173  0.50648971  0.66730079  1
  O  O139  1  0.11711759  0.50121636  0.91827035  1
  O  O140  1  0.12590176  0.74632329  0.16071158  1
  O  O141  1  0.13197133  0.74341096  0.41757756  1
  O  O142  1  0.12584814  0.73818034  0.66839009  1
  O  O143  1  0.12268986  0.73798562  0.90926021  1
  O  O144  1  0.36718816  -0.00225584  0.15541907  1
  O  O145  1  0.37874466  -0.00485312  0.41797190  1
  O  O146  1  0.37905315  -0.00982082  0.66698976  1
  O  O147  1  0.37302624  -0.00184880  0.90065091  1
  O  O148  1  0.36759841  0.25912314  0.15923792  1
  O  O149  1  0.37670323  0.25043163  0.42101539  1
  O  O150  1  0.37958232  0.26096950  0.66488817  1
  O  O151  1  0.37560676  0.25554444  0.90816874  1
  O  O152  1  0.36833867  0.49413044  0.16161972  1
  O  O153  1  0.37668209  0.49833595  0.41706200  1
  O  O154  1  0.37956180  0.50415331  0.66978546  1
  O  O155  1  0.37068730  0.50265555  0.91859261  1
  O  O156  1  0.36835847  0.74985892  0.15746689  1
  O  O157  1  0.37799794  0.75470125  0.41653689  1
  O  O158  1  0.37928124  0.74745406  0.67271181  1
  O  O159  1  0.37048057  0.73819314  0.91250310  1
  O  O160  1  0.62461625  -0.00119591  0.15987410  1
  O  O161  1  0.61852603  -0.00275368  0.41441998  1
  O  O162  1  0.62792130  0.00555307  0.67061051  1
  O  O163  1  0.62249036  0.00757236  0.90709996  1
  O  O164  1  0.62137844  0.24874713  0.16044290  1
  O  O165  1  0.62002013  0.25095144  0.41329949  1
  O  O166  1  0.62927063  0.24560047  0.66695673  1
  O  O167  1  0.62752194  0.25447976  0.91540082  1
  O  O168  1  0.62277055  0.49838031  0.15914295  1
  O  O169  1  0.61942844  0.49259248  0.40794112  1
  O  O170  1  0.62770154  0.50596664  0.66805122  1
  O  O171  1  0.63070157  0.49229663  0.91709024  1
  O  O172  1  0.62543202  0.75259260  0.15154574  1
  O  O173  1  0.61897519  0.75769800  0.41019503  1
  O  O174  1  0.62550828  0.74306992  0.66893078  1
  O  O175  1  0.62417911  0.74764840  0.91706974  1
  O  O176  1  0.88281740  -0.00812960  0.15834344  1
  O  O177  1  0.87167643  -0.00073837  0.42010119  1
  O  O178  1  0.87096398  -0.00429272  0.66426983  1
  O  O179  1  0.87453298  0.00099330  0.90725137  1
  O  O180  1  0.88043725  0.24790671  0.16030456  1
  O  O181  1  0.87445265  0.25146317  0.41748853  1
  O  O182  1  0.87182627  0.25617245  0.66061581  1
  O  O183  1  0.87518369  0.25866477  0.91271650  1
  O  O184  1  0.88133600  0.50021408  0.16300377  1
  O  O185  1  0.87492090  0.49896761  0.41056442  1
  O  O186  1  0.87240941  0.50289868  0.66492494  1
  O  O187  1  0.87730719  0.49947807  0.91992982  1
  O  O188  1  0.88065077  0.75810576  0.16274376  1
  O  O189  1  0.87340436  0.75035375  0.41508269  1
  O  O190  1  0.87335467  0.74674443  0.66665607  1
  O  O191  1  0.87805284  0.74131479  0.91201064  1
  O  O192  1  0.00326231  0.12297800  0.15938362  1
  O  O193  1  0.00228255  0.12541590  0.41779970  1
  O  O194  1  -0.00828734  0.12621798  0.66291435  1
  O  O195  1  0.00122564  0.13115164  0.90717941  1
  O  O196  1  0.01208453  0.37785833  0.16207590  1
  O  O197  1  0.00949635  0.37842794  0.41400683  1
  O  O198  1  -0.01069326  0.38087778  0.66252833  1
  O  O199  1  -0.00213073  0.37898820  0.91546709  1
  O  O200  1  0.01096529  0.62519768  0.16802380  1
  O  O201  1  0.01052309  0.62567646  0.41098125  1
  O  O202  1  0.00144368  0.62312210  0.66104537  1
  O  O203  1  -0.00082503  0.62048595  0.91572948  1
  O  O204  1  0.00583083  0.87108377  0.16149022  1
  O  O205  1  0.00280769  0.87279054  0.41564738  1
  O  O206  1  -0.00819107  0.87049909  0.66474165  1
  O  O207  1  0.00155476  0.86991314  0.90918323  1
  O  O208  1  0.24759425  0.12642004  0.16586982  1
  O  O209  1  0.25743276  0.12490359  0.42291018  1
  O  O210  1  0.25291887  0.12739975  0.66733825  1
  O  O211  1  0.24919523  0.12973607  0.90301718  1
  O  O212  1  0.24684452  0.37883058  0.16624320  1
  O  O213  1  0.25064032  0.37917507  0.42058575  1
  O  O214  1  0.25791769  0.38281019  0.66212244  1
  O  O215  1  0.23952922  0.38530376  0.90380952  1
  O  O216  1  0.24192934  0.62309468  0.16669197  1
  O  O217  1  0.25267546  0.62502867  0.42065650  1
  O  O218  1  0.25081852  0.62348319  0.66519354  1
  O  O219  1  0.24145639  0.61739644  0.90942774  1
  O  O220  1  0.24032139  0.87021116  0.15817809  1
  O  O221  1  0.25939427  0.87306144  0.41798283  1
  O  O222  1  0.26121900  0.86805712  0.66963293  1
  O  O223  1  0.25344573  0.86618009  0.90690546  1
  O  O224  1  0.49391226  0.12597840  0.15700406  1
  O  O225  1  0.50011220  0.12451951  0.42211399  1
  O  O226  1  0.51019770  0.12605771  0.66893727  1
  O  O227  1  0.50472180  0.13059615  0.90895313  1
  O  O228  1  0.48916950  0.37549979  0.15596096  1
  O  O229  1  0.49965132  0.37315205  0.41797072  1
  O  O230  1  0.50018038  0.38036133  0.66848677  1
  O  O231  1  0.50597372  0.37844198  0.91050925  1
  O  O232  1  0.49555381  0.62342531  0.15331268  1
  O  O233  1  0.49584388  0.62512275  0.41721005  1
  O  O234  1  0.50529202  0.62409088  0.66708754  1
  O  O235  1  0.49511992  0.61850472  0.91235687  1
  O  O236  1  0.49650564  0.87545894  0.15060907  1
  O  O237  1  0.49809483  0.87609919  0.41802255  1
  O  O238  1  0.49683786  0.87070232  0.67394588  1
  O  O239  1  0.48947318  0.86964638  0.91292594  1
  O  O240  1  0.75279792  0.12143967  0.15500352  1
  O  O241  1  0.74050045  0.12389316  0.41384654  1
  O  O242  1  0.74862908  0.12526634  0.67186900  1
  O  O243  1  0.74402960  0.13019649  0.91354575  1
  O  O244  1  0.75013582  0.37345312  0.16016763  1
  O  O245  1  0.74047924  0.37280334  0.40631270  1
  O  O246  1  0.75633381  0.37892050  0.66837782  1
  O  O247  1  0.75541393  0.37659796  0.91677472  1
  O  O248  1  0.75135562  0.62620124  0.15711427  1
  O  O249  1  0.74388379  0.62578703  0.41123243  1
  O  O250  1  0.74766546  0.62554174  0.66637247  1
  O  O251  1  0.76039675  0.62043530  0.91715715  1
  O  O252  1  0.75778834  0.87731901  0.15059061  1
  O  O253  1  0.73986131  0.87679232  0.40869343  1
  O  O254  1  0.75357251  0.87111758  0.66880120  1
  O  O255  1  0.75316771  0.87307575  0.91404126  1
  O  O256  1  0.13492194  0.12634800  0.02954859  1
  O  O257  1  0.13652403  0.12307338  0.28964392  1
  O  O258  1  0.13299748  0.12475150  0.54171613  1
  O  O259  1  0.11961720  0.13104157  0.77553753  1
  O  O260  1  0.12852345  0.37554431  0.04627017  1
  O  O261  1  0.13361484  0.37921759  0.30607141  1
  O  O262  1  0.12430931  0.38693973  0.53446192  1
  O  O263  1  0.11607884  0.38625783  0.79454647  1
  O  O264  1  0.12376495  0.62379208  0.04842417  1
  O  O265  1  0.13282392  0.62415944  0.30053986  1
  O  O266  1  0.12594841  0.62485771  0.54984927  1
  O  O267  1  0.11989982  0.61796232  0.79742607  1
  O  O268  1  0.12171627  0.87323272  0.04347306  1
  O  O269  1  0.13044047  0.87194910  0.28718980  1
  O  O270  1  0.13303716  0.86641043  0.54734091  1
  O  O271  1  0.12259090  0.86416131  0.77570703  1
  O  O272  1  0.36478777  0.13015717  0.02695351  1
  O  O273  1  0.37472457  0.12410741  0.30299927  1
  O  O274  1  0.37969016  0.13139311  0.54842303  1
  O  O275  1  0.37982842  0.13255119  0.77659983  1
  O  O276  1  0.36769720  0.37762547  0.04353568  1
  O  O277  1  0.37297861  0.37093742  0.30011280  1
  O  O278  1  0.38319594  0.38128339  0.55381978  1
  O  O279  1  0.37891742  0.38434986  0.78348370  1
  O  O280  1  0.36061056  0.62308166  0.02901411  1
  O  O281  1  0.37363865  0.62684174  0.30020021  1
  O  O282  1  0.37838310  0.62763904  0.55081119  1
  O  O283  1  0.37560047  0.61798201  0.80246085  1
  O  O284  1  0.36859427  0.86808520  0.02168658  1
  O  O285  1  0.37333710  0.87545470  0.30076203  1
  O  O286  1  0.38160431  0.86974715  0.55430616  1
  O  O287  1  0.37645783  0.86706033  0.80048751  1
  O  O288  1  0.61671084  0.12180739  0.02685542  1
  O  O289  1  0.61760691  0.12393752  0.29552225  1
  O  O290  1  0.62714435  0.12372437  0.55327193  1
  O  O291  1  0.62886246  0.13270936  0.80012593  1
  O  O292  1  0.62609590  0.37794397  0.02991437  1
  O  O293  1  0.61385604  0.36912860  0.29677520  1
  O  O294  1  0.62763363  0.37721160  0.53908498  1
  O  O295  1  0.63015440  0.37588222  0.80338699  1
  O  O296  1  0.62641586  0.61561632  0.02503294  1
  O  O297  1  0.62031653  0.62731336  0.28088306  1
  O  O298  1  0.62533660  0.62504807  0.55194284  1
  O  O299  1  0.62990190  0.62122711  0.79639480  1
  O  O300  1  0.61947852  0.88267833  0.02130561  1
  O  O301  1  0.61947903  0.87821479  0.29692433  1
  O  O302  1  0.61706765  0.87360600  0.54362475  1
  O  O303  1  0.61995032  0.87019380  0.79152527  1
  O  O304  1  0.87915219  0.12945156  0.02564601  1
  O  O305  1  0.88059908  0.12048580  0.28622280  1
  O  O306  1  0.86485523  0.12421637  0.55105635  1
  O  O307  1  0.86880509  0.13162274  0.78521023  1
  O  O308  1  0.87945063  0.37365908  0.03583135  1
  O  O309  1  0.88339143  0.37039863  0.28091214  1
  O  O310  1  0.86894576  0.37879582  0.54753449  1
  O  O311  1  0.87641848  0.38164364  0.80328014  1
  O  O312  1  0.88931286  0.62698443  0.03867283  1
  O  O313  1  0.87497617  0.62946920  0.27994695  1
  O  O314  1  0.87110510  0.62640990  0.54602928  1
  O  O315  1  0.87634429  0.61892079  0.80232346  1
  O  O316  1  0.88302473  0.87145619  0.04394192  1
  O  O317  1  0.88247580  0.87932216  0.28276979  1
  O  O318  1  0.87045998  0.87162948  0.55399945  1
  O  O319  1  0.87274015  0.86817320  0.78159694  1
