# generated using pymatgen
data_VFe(PbO3)2
_symmetry_space_group_name_H-M   'P 1'
_cell_length_a   15.37697619
_cell_length_b   15.37243786
_cell_length_c   18.55637361
_cell_angle_alpha   89.99709513
_cell_angle_beta   90.04502874
_cell_angle_gamma   89.99881177
_symmetry_Int_Tables_number   1
_chemical_formula_structural   VFe(PbO3)2
_chemical_formula_sum   'V32 Fe32 Pb64 O192'
_cell_volume   4386.38412451
_cell_formula_units_Z   32
loop_
 _symmetry_equiv_pos_site_id
 _symmetry_equiv_pos_as_xyz
  1  'x, y, z'
loop_
 _atom_site_type_symbol
 _atom_site_label
 _atom_site_symmetry_multiplicity
 _atom_site_fract_x
 _atom_site_fract_y
 _atom_site_fract_z
 _atom_site_occupancy
  V  V0  1  0.37309635  0.87364299  0.13660269  1
  V  V1  1  0.37736556  0.87461826  0.39056883  1
  V  V2  1  0.37586567  0.87855019  0.64112844  1
  V  V3  1  0.12612914  0.12960160  0.88746318  1
  V  V4  1  0.12340300  0.62842034  0.88622742  1
  V  V5  1  0.12561127  0.87488756  0.39466095  1
  V  V6  1  0.12280259  0.37232424  0.63855386  1
  V  V7  1  0.12634974  0.12692531  0.39174250  1
  V  V8  1  0.87541567  0.12355011  0.38542744  1
  V  V9  1  0.12341473  0.12279293  0.13725908  1
  V  V10  1  0.12488186  0.62343773  0.63811900  1
  V  V11  1  0.12678173  0.37968672  0.88890834  1
  V  V12  1  0.87565255  0.62661391  0.13931400  1
  V  V13  1  0.87471218  0.87275101  0.88690850  1
  V  V14  1  0.37429111  0.37654460  0.38843142  1
  V  V15  1  0.12655951  0.87763514  0.88632981  1
  V  V16  1  0.87699350  0.87567101  0.13784949  1
  V  V17  1  0.62419943  0.37364010  0.89111669  1
  V  V18  1  0.62385048  0.12800353  0.64595416  1
  V  V19  1  0.12503775  0.62746826  0.13782108  1
  V  V20  1  0.12647570  0.62173372  0.39169965  1
  V  V21  1  0.62457273  0.37516965  0.38685285  1
  V  V22  1  0.62768208  0.37637564  0.64205034  1
  V  V23  1  0.87289352  0.37188631  0.64371989  1
  V  V24  1  0.62652637  0.62341461  0.88554072  1
  V  V25  1  0.62397531  0.62542118  0.39116899  1
  V  V26  1  0.37653124  0.12413069  0.89152812  1
  V  V27  1  0.87339090  0.12460888  0.64353269  1
  V  V28  1  0.87282334  0.87675793  0.64008591  1
  V  V29  1  0.62632165  0.87566978  0.64566837  1
  V  V30  1  0.62403166  0.62662196  0.13681338  1
  V  V31  1  0.87370668  0.87576046  0.39081425  1
  Fe  Fe32  1  0.37239206  0.12253756  0.13196172  1
  Fe  Fe33  1  0.12299301  0.87443728  0.63532248  1
  Fe  Fe34  1  0.37506696  0.62476035  0.88971922  1
  Fe  Fe35  1  0.12427166  0.37622363  0.13713163  1
  Fe  Fe36  1  0.62519222  0.12289767  0.12376523  1
  Fe  Fe37  1  0.37380872  0.37413835  0.88899388  1
  Fe  Fe38  1  0.87638004  0.62632931  0.39239189  1
  Fe  Fe39  1  0.37668473  0.37349869  0.64053063  1
  Fe  Fe40  1  0.87308813  0.62470073  0.63506269  1
  Fe  Fe41  1  0.37479775  0.37601746  0.12954241  1
  Fe  Fe42  1  0.87679809  0.37786484  0.88803055  1
  Fe  Fe43  1  0.62387005  0.86913606  0.13956940  1
  Fe  Fe44  1  0.87548766  0.37505144  0.13261305  1
  Fe  Fe45  1  0.12550285  0.37558074  0.38280331  1
  Fe  Fe46  1  0.12523333  0.87202994  0.13691289  1
  Fe  Fe47  1  0.62520418  0.37781947  0.12927598  1
  Fe  Fe48  1  0.37484342  0.12607452  0.63444036  1
  Fe  Fe49  1  0.62527315  0.62529077  0.63732466  1
  Fe  Fe50  1  0.62580653  0.12399887  0.89541951  1
  Fe  Fe51  1  0.62459709  0.12408270  0.38174975  1
  Fe  Fe52  1  0.37361515  0.62766812  0.39294807  1
  Fe  Fe53  1  0.37309262  0.62674510  0.13061636  1
  Fe  Fe54  1  0.87957134  0.12498541  0.89761498  1
  Fe  Fe55  1  0.37244549  0.87536421  0.88115499  1
  Fe  Fe56  1  0.37705579  0.62514932  0.63346788  1
  Fe  Fe57  1  0.37427011  0.12388280  0.38548602  1
  Fe  Fe58  1  0.87667671  0.62659142  0.88628586  1
  Fe  Fe59  1  0.62340197  0.87400653  0.88140329  1
  Fe  Fe60  1  0.62517328  0.87506352  0.38085718  1
  Fe  Fe61  1  0.87579535  0.37492342  0.38340378  1
  Fe  Fe62  1  0.12361439  0.12562207  0.63598002  1
  Fe  Fe63  1  0.87772270  0.12247474  0.12461412  1
  Pb  Pb64  1  0.00448641  -0.00188678  -0.00033408  1
  Pb  Pb65  1  0.00148696  -0.00079281  0.24674224  1
  Pb  Pb66  1  0.00772131  0.00347309  0.50576667  1
  Pb  Pb67  1  -0.00401490  0.00499296  0.75032741  1
  Pb  Pb68  1  0.00048743  0.25890695  0.00364165  1
  Pb  Pb69  1  -0.00378414  0.25893474  0.24536249  1
  Pb  Pb70  1  0.00322548  0.24903873  0.49680899  1
  Pb  Pb71  1  -0.01408544  0.24873776  0.75995773  1
  Pb  Pb72  1  0.00065696  0.49225127  0.00272075  1
  Pb  Pb73  1  -0.00159021  0.49130460  0.25357109  1
  Pb  Pb74  1  -0.00494772  0.49870741  0.49701788  1
  Pb  Pb75  1  -0.00719648  0.49764062  0.75071024  1
  Pb  Pb76  1  0.00717323  0.75603838  0.00061528  1
  Pb  Pb77  1  -0.00453921  0.74211671  0.25487193  1
  Pb  Pb78  1  0.00282749  0.75490325  0.50331900  1
  Pb  Pb79  1  -0.00294820  0.74336155  0.74784672  1
  Pb  Pb80  1  0.25161701  0.00319620  -0.00047408  1
  Pb  Pb81  1  0.25589468  0.00291052  0.25116311  1
  Pb  Pb82  1  0.24510164  0.00617778  0.50518501  1
  Pb  Pb83  1  0.24925348  0.00034720  0.74417719  1
  Pb  Pb84  1  0.25714208  0.25068198  0.00475125  1
  Pb  Pb85  1  0.25541704  0.24879375  0.24431689  1
  Pb  Pb86  1  0.26101259  0.25054409  0.50464350  1
  Pb  Pb87  1  0.25596696  0.25273881  0.74883652  1
  Pb  Pb88  1  0.25896846  0.49900164  0.00099818  1
  Pb  Pb89  1  0.25104249  0.49655574  0.24453045  1
  Pb  Pb90  1  0.26218016  0.49703893  0.50488228  1
  Pb  Pb91  1  0.25808621  0.50300057  0.75068557  1
  Pb  Pb92  1  0.25636029  0.74782909  -0.00238943  1
  Pb  Pb93  1  0.25557835  0.74438820  0.25277315  1
  Pb  Pb94  1  0.24760848  0.75534639  0.50454030  1
  Pb  Pb95  1  0.26159325  0.75032397  0.75109252  1
  Pb  Pb96  1  0.50870419  -0.00334038  -0.00041111  1
  Pb  Pb97  1  0.50825406  0.00643989  0.24433858  1
  Pb  Pb98  1  0.49979677  0.00519715  0.49520491  1
  Pb  Pb99  1  0.50819624  0.00008079  0.75683261  1
  Pb  Pb100  1  0.50276990  0.25384259  0.00380963  1
  Pb  Pb101  1  0.50212687  0.24333217  0.23553472  1
  Pb  Pb102  1  0.49360531  0.24832196  0.49902369  1
  Pb  Pb103  1  0.49616536  0.25396929  0.75491069  1
  Pb  Pb104  1  0.49927222  0.49557731  -0.00089825  1
  Pb  Pb105  1  0.49334393  0.49951693  0.24270207  1
  Pb  Pb106  1  0.49818750  0.50195245  0.50408893  1
  Pb  Pb107  1  0.48802817  0.50688337  0.75196676  1
  Pb  Pb108  1  0.50049592  0.75626525  -0.00636347  1
  Pb  Pb109  1  0.49333915  0.74662198  0.25082838  1
  Pb  Pb110  1  0.50384346  0.74216332  0.50433694  1
  Pb  Pb111  1  0.49513883  0.75268766  0.75078331  1
  Pb  Pb112  1  0.74550884  0.00543782  -0.00101843  1
  Pb  Pb113  1  0.73766844  0.00323262  0.24348774  1
  Pb  Pb114  1  0.74693566  -0.00015565  0.49604197  1
  Pb  Pb115  1  0.74207430  0.00391856  0.76223411  1
  Pb  Pb116  1  0.75959554  0.24906005  -0.00152824  1
  Pb  Pb117  1  0.74929760  0.24477818  0.23232225  1
  Pb  Pb118  1  0.75103417  0.24995904  0.49364536  1
  Pb  Pb119  1  0.75060254  0.23883587  0.76340651  1
  Pb  Pb120  1  0.75393325  0.49399732  -0.00167928  1
  Pb  Pb121  1  0.75848087  0.49554785  0.24860343  1
  Pb  Pb122  1  0.75184914  0.50585148  0.50153092  1
  Pb  Pb123  1  0.75664951  0.50049085  0.75175200  1
  Pb  Pb124  1  0.74158726  0.75502291  -0.00090963  1
  Pb  Pb125  1  0.75442207  0.74629201  0.25334587  1
  Pb  Pb126  1  0.74751905  0.74032892  0.50534626  1
  Pb  Pb127  1  0.75194178  0.74461504  0.75008785  1
  O  O128  1  0.12384240  0.00080436  0.16615071  1
  O  O129  1  0.12342791  0.00215911  0.41867031  1
  O  O130  1  0.12248417  -0.00171704  0.66551679  1
  O  O131  1  0.12592704  0.00243721  0.91062655  1
  O  O132  1  0.12408428  0.24044654  0.15997637  1
  O  O133  1  0.12359576  0.24432462  0.41039302  1
  O  O134  1  0.12140117  0.25787346  0.66037402  1
  O  O135  1  0.12562235  0.24766734  0.90976678  1
  O  O136  1  0.12111569  0.51172883  0.16268167  1
  O  O137  1  0.12575329  0.50573469  0.41330363  1
  O  O138  1  0.12218977  0.50277157  0.66442309  1
  O  O139  1  0.12485943  0.49845970  0.90806771  1
  O  O140  1  0.12195232  0.74368734  0.16760059  1
  O  O141  1  0.12451725  0.74907433  0.41960375  1
  O  O142  1  0.12268230  0.74364318  0.66096275  1
  O  O143  1  0.12436679  0.74708692  0.90887509  1
  O  O144  1  0.37052344  -0.00930927  0.15993282  1
  O  O145  1  0.37208941  -0.00730449  0.41445108  1
  O  O146  1  0.37643867  -0.00268615  0.66254840  1
  O  O147  1  0.36796258  0.00518060  0.91166977  1
  O  O148  1  0.37165780  0.24929895  0.15967556  1
  O  O149  1  0.37542633  0.25698916  0.41195925  1
  O  O150  1  0.37679501  0.24951600  0.66923114  1
  O  O151  1  0.37027214  0.24359877  0.91445319  1
  O  O152  1  0.37401524  0.50389806  0.16079347  1
  O  O153  1  0.37651853  0.49568937  0.41565947  1
  O  O154  1  0.37429032  0.49902666  0.66453338  1
  O  O155  1  0.37180679  0.49951287  0.91337902  1
  O  O156  1  0.37289069  0.75196569  0.16609376  1
  O  O157  1  0.37289906  0.75782267  0.41981267  1
  O  O158  1  0.37638868  0.75488055  0.66156595  1
  O  O159  1  0.37014243  0.75016004  0.91277486  1
  O  O160  1  0.62544855  -0.00461836  0.15722311  1
  O  O161  1  0.62536600  -0.00186792  0.41632421  1
  O  O162  1  0.62753589  0.00544282  0.66886129  1
  O  O163  1  0.62457790  -0.00465143  0.91497314  1
  O  O164  1  0.62548768  0.24969572  0.15335073  1
  O  O165  1  0.62369598  0.25730296  0.40939695  1
  O  O166  1  0.62830980  0.24684842  0.67065479  1
  O  O167  1  0.62330605  0.25668801  0.91101238  1
  O  O168  1  0.62835113  0.51204287  0.16284101  1
  O  O169  1  0.62335202  0.49951533  0.41503897  1
  O  O170  1  0.62994747  0.49151196  0.66160829  1
  O  O171  1  0.62576211  0.50276135  0.91177824  1
  O  O172  1  0.62893949  0.74144367  0.16859897  1
  O  O173  1  0.62430604  0.74595718  0.41134651  1
  O  O174  1  0.62632607  0.75551414  0.66566022  1
  O  O175  1  0.62717146  0.74485207  0.90862862  1
  O  O176  1  0.88058232  -0.00802875  0.15631310  1
  O  O177  1  0.87640737  -0.00191982  0.41695876  1
  O  O178  1  0.87343044  -0.00110292  0.66720456  1
  O  O179  1  0.88125820  -0.01208352  0.91323534  1
  O  O180  1  0.87857811  0.24727086  0.15420763  1
  O  O181  1  0.87511083  0.24580490  0.41299065  1
  O  O182  1  0.87395201  0.24902727  0.67246218  1
  O  O183  1  0.87811132  0.25371060  0.91575308  1
  O  O184  1  0.87639512  0.51031603  0.16014666  1
  O  O185  1  0.87357507  0.49960327  0.41662421  1
  O  O186  1  0.87239305  0.49492449  0.66335047  1
  O  O187  1  0.87674689  0.50307140  0.91487628  1
  O  O188  1  0.87707456  0.74846720  0.16859385  1
  O  O189  1  0.87627913  0.75869854  0.41618412  1
  O  O190  1  0.87251790  0.75704635  0.66119311  1
  O  O191  1  0.87998817  0.75556346  0.91437109  1
  O  O192  1  0.00558296  0.11973450  0.16175459  1
  O  O193  1  0.00097654  0.12322318  0.41610067  1
  O  O194  1  -0.00533898  0.12551217  0.66682153  1
  O  O195  1  0.01194814  0.12344351  0.91439957  1
  O  O196  1  -0.00021926  0.37851650  0.16555500  1
  O  O197  1  0.00187546  0.37451102  0.41664872  1
  O  O198  1  0.00201984  0.37800401  0.66376125  1
  O  O199  1  0.00918802  0.37448118  0.91434679  1
  O  O200  1  -0.00243383  0.62962194  0.16230195  1
  O  O201  1  0.00743999  0.62774854  0.41746717  1
  O  O202  1  0.00232387  0.62465599  0.66156568  1
  O  O203  1  0.00879831  0.62456308  0.91415257  1
  O  O204  1  -0.00517985  0.86998993  0.16881766  1
  O  O205  1  -0.00222810  0.87666777  0.41833339  1
  O  O206  1  -0.00908473  0.87602454  0.66289129  1
  O  O207  1  0.00296447  0.87268309  0.91380573  1
  O  O208  1  0.24213379  0.12000865  0.16515694  1
  O  O209  1  0.24414533  0.12300581  0.41329654  1
  O  O210  1  0.24935582  0.12614603  0.66409984  1
  O  O211  1  0.24439460  0.12506634  0.91514145  1
  O  O212  1  0.24907134  0.37846689  0.16220194  1
  O  O213  1  0.25571548  0.37643861  0.41090958  1
  O  O214  1  0.23970101  0.37753133  0.66342493  1
  O  O215  1  0.24213483  0.37229597  0.91237072  1
  O  O216  1  0.24258559  0.62770416  0.16095856  1
  O  O217  1  0.24350608  0.62792278  0.41772881  1
  O  O218  1  0.24411154  0.62399074  0.66038644  1
  O  O219  1  0.23843375  0.62321572  0.91280105  1
  O  O220  1  0.25423229  0.87029107  0.16412308  1
  O  O221  1  0.25032721  0.87536249  0.41930533  1
  O  O222  1  0.25507236  0.87478838  0.65976399  1
  O  O223  1  0.24443845  0.87519464  0.91116031  1
  O  O224  1  0.49907089  0.12070255  0.15409559  1
  O  O225  1  0.49968857  0.12559085  0.41354295  1
  O  O226  1  0.50698187  0.12539198  0.66505583  1
  O  O227  1  0.49146586  0.12417676  0.90999316  1
  O  O228  1  0.50084420  0.37946177  0.16186682  1
  O  O229  1  0.50030168  0.37718446  0.41335245  1
  O  O230  1  0.51057193  0.37055169  0.66560570  1
  O  O231  1  0.50437800  0.37708627  0.91303618  1
  O  O232  1  0.50579475  0.62876107  0.15606125  1
  O  O233  1  0.50493874  0.62485836  0.41649607  1
  O  O234  1  0.50129735  0.62452171  0.66503470  1
  O  O235  1  0.50904854  0.62470018  0.90978357  1
  O  O236  1  0.49071778  0.86994503  0.16159070  1
  O  O237  1  0.49440293  0.87456729  0.41117594  1
  O  O238  1  0.49818259  0.87772512  0.66545840  1
  O  O239  1  0.49780346  0.87349341  0.91007646  1
  O  O240  1  0.75251132  0.12045217  0.15075354  1
  O  O241  1  0.75302800  0.12429355  0.41381572  1
  O  O242  1  0.74887396  0.12580991  0.67317084  1
  O  O243  1  0.75274351  0.12291159  0.91488742  1
  O  O244  1  0.75028976  0.38061289  0.16059176  1
  O  O245  1  0.74246942  0.37618712  0.41112106  1
  O  O246  1  0.74654824  0.36928123  0.67041498  1
  O  O247  1  0.74433171  0.37786966  0.91133887  1
  O  O248  1  0.75461516  0.62871114  0.16338200  1
  O  O249  1  0.74332139  0.62528101  0.41563333  1
  O  O250  1  0.75002762  0.62513790  0.66807555  1
  O  O251  1  0.74444936  0.62540315  0.91279280  1
  O  O252  1  0.76115032  0.86893255  0.16127339  1
  O  O253  1  0.75621740  0.87704957  0.41186790  1
  O  O254  1  0.75438553  0.87867043  0.66787730  1
  O  O255  1  0.75753123  0.87219547  0.90713007  1
  O  O256  1  0.12561259  0.11972733  0.04623567  1
  O  O257  1  0.12316392  0.12039492  0.30145566  1
  O  O258  1  0.12192002  0.12133408  0.53589412  1
  O  O259  1  0.12658549  0.12735094  0.79641420  1
  O  O260  1  0.11648479  0.37670703  0.03690499  1
  O  O261  1  0.11980491  0.37856153  0.28349085  1
  O  O262  1  0.12344932  0.37548383  0.54753416  1
  O  O263  1  0.12429313  0.37660666  0.79817802  1
  O  O264  1  0.12336259  0.62937102  0.04686851  1
  O  O265  1  0.12565266  0.62583476  0.30084108  1
  O  O266  1  0.12410397  0.62183352  0.54741893  1
  O  O267  1  0.12221139  0.62793179  0.79510618  1
  O  O268  1  0.11802129  0.87194995  0.03811418  1
  O  O269  1  0.12516588  0.87439639  0.30402860  1
  O  O270  1  0.12187851  0.87466100  0.53513552  1
  O  O271  1  0.12395600  0.87493222  0.79529448  1
  O  O272  1  0.36195179  0.12356818  0.03245650  1
  O  O273  1  0.36657927  0.12085439  0.28608259  1
  O  O274  1  0.37420994  0.13375855  0.53407672  1
  O  O275  1  0.37071995  0.12622097  0.80018477  1
  O  O276  1  0.37428394  0.37394483  0.02818292  1
  O  O277  1  0.37681631  0.37949507  0.29786988  1
  O  O278  1  0.37088611  0.37125992  0.53972935  1
  O  O279  1  0.37425295  0.37164586  0.78762753  1
  O  O280  1  0.36494287  0.62722373  0.03078246  1
  O  O281  1  0.37418494  0.63470879  0.29330730  1
  O  O282  1  0.38084709  0.61981910  0.53240557  1
  O  O283  1  0.37161541  0.62391874  0.78756311  1
  O  O284  1  0.37196074  0.87049120  0.04533807  1
  O  O285  1  0.37219843  0.87046908  0.29973323  1
  O  O286  1  0.37861109  0.87745320  0.55033372  1
  O  O287  1  0.37125737  0.86936754  0.78133482  1
  O  O288  1  0.62017394  0.12002128  0.02188509  1
  O  O289  1  0.62666358  0.11681404  0.28242227  1
  O  O290  1  0.62874552  0.12873206  0.55525053  1
  O  O291  1  0.62838883  0.12013946  0.79305782  1
  O  O292  1  0.62013886  0.38166829  0.02939884  1
  O  O293  1  0.62284970  0.37947201  0.29691127  1
  O  O294  1  0.62905437  0.37037201  0.55131730  1
  O  O295  1  0.62279139  0.37715562  0.80026430  1
  O  O296  1  0.63005128  0.62981248  0.04603208  1
  O  O297  1  0.62474452  0.62195309  0.30079733  1
  O  O298  1  0.62713064  0.62948576  0.53673020  1
  O  O299  1  0.62858013  0.62205147  0.79452598  1
  O  O300  1  0.62419920  0.86246665  0.03876799  1
  O  O301  1  0.62690429  0.87977591  0.28147172  1
  O  O302  1  0.62668810  0.87916272  0.55454585  1
  O  O303  1  0.62391921  0.88436842  0.78093205  1
  O  O304  1  0.88173926  0.11895249  0.02395122  1
  O  O305  1  0.87705673  0.12060232  0.29495636  1
  O  O306  1  0.86983511  0.12768817  0.55284608  1
  O  O307  1  0.88181769  0.12825762  0.79490283  1
  O  O308  1  0.88109151  0.38097925  0.03153879  1
  O  O309  1  0.87909731  0.38010947  0.28367072  1
  O  O310  1  0.87025941  0.36685353  0.55286168  1
  O  O311  1  0.88260610  0.37682012  0.78667024  1
  O  O312  1  0.87473560  0.63128373  0.04883325  1
  O  O313  1  0.87505847  0.63236064  0.29272137  1
  O  O314  1  0.86495158  0.62612640  0.53449180  1
  O  O315  1  0.87821105  0.62861290  0.78613399  1
  O  O316  1  0.88144860  0.86874909  0.04699893  1
  O  O317  1  0.87748045  0.87613416  0.30033700  1
  O  O318  1  0.87023445  0.87940837  0.54939959  1
  O  O319  1  0.87894833  0.87218503  0.79598601  1
