# generated using pymatgen
data_VFe(PbO3)2
_symmetry_space_group_name_H-M   'P 1'
_cell_length_a   15.38793294
_cell_length_b   15.39424450
_cell_length_c   18.50414739
_cell_angle_alpha   90.02087798
_cell_angle_beta   89.99595237
_cell_angle_gamma   90.00038759
_symmetry_Int_Tables_number   1
_chemical_formula_structural   VFe(PbO3)2
_chemical_formula_sum   'V32 Fe32 Pb64 O192'
_cell_volume   4383.36579224
_cell_formula_units_Z   32
loop_
 _symmetry_equiv_pos_site_id
 _symmetry_equiv_pos_as_xyz
  1  'x, y, z'
loop_
 _atom_site_type_symbol
 _atom_site_label
 _atom_site_symmetry_multiplicity
 _atom_site_fract_x
 _atom_site_fract_y
 _atom_site_fract_z
 _atom_site_occupancy
  V  V0  1  0.62726328  0.86906063  0.13343775  1
  V  V1  1  0.12547888  0.37394313  0.64004699  1
  V  V2  1  0.62303103  0.62480026  0.64731806  1
  V  V3  1  0.12497676  0.62673634  0.14362737  1
  V  V4  1  0.87353692  0.62709655  0.14026160  1
  V  V5  1  0.12308749  0.37627173  0.38729133  1
  V  V6  1  0.37577488  0.87280717  0.64438009  1
  V  V7  1  0.87833998  0.87399597  0.88521700  1
  V  V8  1  0.87801844  0.37596854  0.13622087  1
  V  V9  1  0.87760175  0.12621786  0.38392603  1
  V  V10  1  0.37290258  0.87242044  0.13875117  1
  V  V11  1  0.37630702  0.36928532  0.64485470  1
  V  V12  1  0.12534106  0.37347525  0.89415325  1
  V  V13  1  0.12740868  0.63294155  0.63451821  1
  V  V14  1  0.37451467  0.37378109  0.89695949  1
  V  V15  1  0.37439921  0.12583320  0.89892002  1
  V  V16  1  0.12945614  0.12957181  0.64042657  1
  V  V17  1  0.62757300  0.62442576  0.39123688  1
  V  V18  1  0.87811073  0.12475942  0.64268472  1
  V  V19  1  0.37595597  0.62497916  0.39234225  1
  V  V20  1  0.12274659  0.87205165  0.14226218  1
  V  V21  1  0.62523866  0.12630675  0.64552950  1
  V  V22  1  0.37716421  0.12490050  0.64157338  1
  V  V23  1  0.37602016  0.37525897  0.38599468  1
  V  V24  1  0.63004202  0.37397666  0.89355896  1
  V  V25  1  0.12512887  0.12335078  0.89289971  1
  V  V26  1  0.37705554  0.12490659  0.38474767  1
  V  V27  1  0.37724893  0.62806952  0.13595081  1
  V  V28  1  0.62461588  0.37359714  0.64429834  1
  V  V29  1  0.62864447  0.87779960  0.65279978  1
  V  V30  1  0.12533963  0.62689129  0.88360145  1
  V  V31  1  0.62833119  0.12713194  0.38684511  1
  Fe  Fe32  1  0.12584661  0.12841705  0.37887870  1
  Fe  Fe33  1  0.87612130  0.62260108  0.64037045  1
  Fe  Fe34  1  0.37889679  0.87637037  0.38457215  1
  Fe  Fe35  1  0.12442998  0.88195280  0.64081952  1
  Fe  Fe36  1  0.87388988  0.11976897  0.12861181  1
  Fe  Fe37  1  0.37026265  0.87519041  0.88358734  1
  Fe  Fe38  1  0.87792834  0.12700065  0.89634752  1
  Fe  Fe39  1  0.62452970  0.12520190  0.89655115  1
  Fe  Fe40  1  0.37091417  0.62158488  0.87671968  1
  Fe  Fe41  1  0.87023521  0.37433404  0.38311606  1
  Fe  Fe42  1  0.37632820  0.12265469  0.12906635  1
  Fe  Fe43  1  0.37305504  0.37929810  0.12914704  1
  Fe  Fe44  1  0.87055628  0.87691998  0.38325132  1
  Fe  Fe45  1  0.12676450  0.62424166  0.38559210  1
  Fe  Fe46  1  0.87826139  0.37473683  0.88451856  1
  Fe  Fe47  1  0.62512606  0.12332359  0.12443665  1
  Fe  Fe48  1  0.37340150  0.62139749  0.64996899  1
  Fe  Fe49  1  0.62098683  0.87292315  0.38792772  1
  Fe  Fe50  1  0.62516386  0.38142949  0.12707156  1
  Fe  Fe51  1  0.87635424  0.87189575  0.13711706  1
  Fe  Fe52  1  0.62191051  0.37874941  0.38500150  1
  Fe  Fe53  1  0.12609122  0.87652923  0.88044796  1
  Fe  Fe54  1  0.87508076  0.62474751  0.38677797  1
  Fe  Fe55  1  0.87320426  0.37009452  0.64241815  1
  Fe  Fe56  1  0.62238353  0.87537302  0.87702811  1
  Fe  Fe57  1  0.87311236  0.87677598  0.63727533  1
  Fe  Fe58  1  0.12435177  0.38011979  0.13343200  1
  Fe  Fe59  1  0.87932256  0.62166754  0.87986226  1
  Fe  Fe60  1  0.12530839  0.12419813  0.13857442  1
  Fe  Fe61  1  0.62516505  0.62388181  0.88338355  1
  Fe  Fe62  1  0.12661248  0.87798849  0.38364582  1
  Fe  Fe63  1  0.62617715  0.62852813  0.12839799  1
  Pb  Pb64  1  -0.00923550  -0.00424206  0.00575757  1
  Pb  Pb65  1  0.00232715  -0.00025912  0.24757871  1
  Pb  Pb66  1  0.00542960  -0.01104354  0.49787359  1
  Pb  Pb67  1  0.00016915  -0.00150538  0.75126032  1
  Pb  Pb68  1  0.00528878  0.24551550  0.00537158  1
  Pb  Pb69  1  0.00238668  0.24617842  0.24226496  1
  Pb  Pb70  1  -0.00734617  0.25631211  0.49831165  1
  Pb  Pb71  1  -0.01127647  0.24711688  0.75883063  1
  Pb  Pb72  1  0.00204139  0.49741020  -0.00181005  1
  Pb  Pb73  1  -0.00745368  0.50645472  0.25409900  1
  Pb  Pb74  1  -0.01202185  0.50896318  0.50121476  1
  Pb  Pb75  1  -0.00935655  0.49463609  0.75038743  1
  Pb  Pb76  1  -0.00618433  0.75670209  -0.00078832  1
  Pb  Pb77  1  -0.00236758  0.74445000  0.25900945  1
  Pb  Pb78  1  -0.00398216  0.75314462  0.49309302  1
  Pb  Pb79  1  -0.00552924  0.75123422  0.74479202  1
  Pb  Pb80  1  0.24686839  0.00666847  0.00448440  1
  Pb  Pb81  1  0.24613292  -0.00045877  0.25032163  1
  Pb  Pb82  1  0.24211757  -0.00507514  0.49834960  1
  Pb  Pb83  1  0.25221363  -0.00590067  0.75606549  1
  Pb  Pb84  1  0.24606452  0.24432126  0.01165970  1
  Pb  Pb85  1  0.25031343  0.24846158  0.23689483  1
  Pb  Pb86  1  0.24977096  0.25110889  0.49443930  1
  Pb  Pb87  1  0.25074657  0.24891119  0.75684420  1
  Pb  Pb88  1  0.24838794  0.49263178  0.00269623  1
  Pb  Pb89  1  0.24673980  0.50460540  0.24694496  1
  Pb  Pb90  1  0.25586144  0.50513922  0.50437549  1
  Pb  Pb91  1  0.25024153  0.50129012  0.75286946  1
  Pb  Pb92  1  0.25244094  0.75080016  -0.00784601  1
  Pb  Pb93  1  0.24529647  0.75356820  0.25623006  1
  Pb  Pb94  1  0.24420843  0.75712565  0.49780384  1
  Pb  Pb95  1  0.25269460  0.76109495  0.75426852  1
  Pb  Pb96  1  0.50222263  0.00060349  -0.00405224  1
  Pb  Pb97  1  0.50378236  -0.00837969  0.24520435  1
  Pb  Pb98  1  0.50115063  0.00029307  0.49932665  1
  Pb  Pb99  1  0.50072694  -0.00378665  0.75740436  1
  Pb  Pb100  1  0.50100668  0.25628321  0.00786875  1
  Pb  Pb101  1  0.50283512  0.25115128  0.23168762  1
  Pb  Pb102  1  0.50008620  0.25124756  0.49654066  1
  Pb  Pb103  1  0.50842375  0.24393881  0.76018409  1
  Pb  Pb104  1  0.50033496  0.49950657  -0.00144868  1
  Pb  Pb105  1  0.50973463  0.49478230  0.24332970  1
  Pb  Pb106  1  0.49418140  0.50572220  0.50709755  1
  Pb  Pb107  1  0.50183386  0.50315609  0.75793024  1
  Pb  Pb108  1  0.50027785  0.74562836  -0.01600398  1
  Pb  Pb109  1  0.50071624  0.75845037  0.25195870  1
  Pb  Pb110  1  0.49652762  0.74730055  0.50510449  1
  Pb  Pb111  1  0.50612397  0.74887213  0.75872685  1
  Pb  Pb112  1  0.75047680  0.00080232  -0.00482165  1
  Pb  Pb113  1  0.75305143  -0.00490868  0.24196823  1
  Pb  Pb114  1  0.75265249  -0.00490729  0.49999841  1
  Pb  Pb115  1  0.74851266  0.00966644  0.75976032  1
  Pb  Pb116  1  0.75408700  0.24291136  0.00045759  1
  Pb  Pb117  1  0.74600915  0.25513170  0.23722346  1
  Pb  Pb118  1  0.75208467  0.25848591  0.50022723  1
  Pb  Pb119  1  0.75244273  0.23769365  0.76378293  1
  Pb  Pb120  1  0.74554918  0.50584026  -0.00463296  1
  Pb  Pb121  1  0.74929891  0.49346231  0.24992447  1
  Pb  Pb122  1  0.75749703  0.49893155  0.50180136  1
  Pb  Pb123  1  0.75443122  0.50036947  0.75273711  1
  Pb  Pb124  1  0.74646146  0.74598249  -0.00972216  1
  Pb  Pb125  1  0.75740473  0.75140924  0.25293396  1
  Pb  Pb126  1  0.76180995  0.75619515  0.50281815  1
  Pb  Pb127  1  0.75237129  0.74199744  0.75225784  1
  O  O128  1  0.12841843  -0.00960073  0.16135375  1
  O  O129  1  0.12695028  0.00708614  0.41407040  1
  O  O130  1  0.12562685  0.01412958  0.66572663  1
  O  O131  1  0.12777061  0.00726069  0.90884677  1
  O  O132  1  0.12327569  0.25398424  0.16026326  1
  O  O133  1  0.12905724  0.25507123  0.41352290  1
  O  O134  1  0.12429577  0.24456691  0.67163934  1
  O  O135  1  0.12883764  0.25139282  0.91794444  1
  O  O136  1  0.12284227  0.50677973  0.16622500  1
  O  O137  1  0.13033205  0.48989466  0.41380893  1
  O  O138  1  0.12941547  0.48773998  0.65832235  1
  O  O139  1  0.12612137  0.49554619  0.91088571  1
  O  O140  1  0.12759099  0.75235413  0.16955961  1
  O  O141  1  0.12903196  0.75059195  0.41411064  1
  O  O142  1  0.12830668  0.74765362  0.64942957  1
  O  O143  1  0.12742239  0.74314556  0.90312115  1
  O  O144  1  0.37623458  -0.01183465  0.15753030  1
  O  O145  1  0.38101881  0.00967143  0.40958165  1
  O  O146  1  0.37514958  0.00452870  0.66827404  1
  O  O147  1  0.36990867  0.00732675  0.91237001  1
  O  O148  1  0.37597423  0.25118688  0.15335525  1
  O  O149  1  0.37921748  0.24907760  0.41319257  1
  O  O150  1  0.37676946  0.24734966  0.67505781  1
  O  O151  1  0.37077331  0.25139461  0.92176710  1
  O  O152  1  0.37155825  0.51318919  0.15992146  1
  O  O153  1  0.37549217  0.50049373  0.41735481  1
  O  O154  1  0.37254426  0.48776319  0.67119344  1
  O  O155  1  0.36984300  0.49350304  0.90945522  1
  O  O156  1  0.37171596  0.74866185  0.16670870  1
  O  O157  1  0.37629880  0.74270010  0.41495848  1
  O  O158  1  0.37170398  0.75557652  0.66150098  1
  O  O159  1  0.36678522  0.74602688  0.90597165  1
  O  O160  1  0.62174786  -0.01320105  0.15557425  1
  O  O161  1  0.62039510  0.01006253  0.41522911  1
  O  O162  1  0.62407649  0.00407854  0.67255562  1
  O  O163  1  0.62414205  -0.00352378  0.90963209  1
  O  O164  1  0.62674621  0.25335509  0.14965119  1
  O  O165  1  0.62038947  0.24481110  0.41266642  1
  O  O166  1  0.62275815  0.25229927  0.67069445  1
  O  O167  1  0.62051278  0.25797757  0.91793265  1
  O  O168  1  0.62635788  0.50656559  0.16046263  1
  O  O169  1  0.61984908  0.50834039  0.41841495  1
  O  O170  1  0.62182763  0.49478839  0.66806906  1
  O  O171  1  0.62083212  0.49333478  0.90986899  1
  O  O172  1  0.62284586  0.75315490  0.16244871  1
  O  O173  1  0.61786333  0.74058592  0.41929265  1
  O  O174  1  0.62236497  0.74464102  0.66639631  1
  O  O175  1  0.62687302  0.75213002  0.90630406  1
  O  O176  1  0.87421569  -0.00402082  0.16217702  1
  O  O177  1  0.86771282  0.01179348  0.41033925  1
  O  O178  1  0.87221608  0.00901976  0.66845685  1
  O  O179  1  0.88168713  -0.00772888  0.91104219  1
  O  O180  1  0.87421176  0.25795177  0.15192130  1
  O  O181  1  0.86998250  0.24408253  0.41454409  1
  O  O182  1  0.87357875  0.24217241  0.66925543  1
  O  O183  1  0.87783757  0.25406995  0.91994498  1
  O  O184  1  0.87860676  0.50623068  0.16210960  1
  O  O185  1  0.87270994  0.49809391  0.41554319  1
  O  O186  1  0.87678413  0.49579491  0.66470590  1
  O  O187  1  0.88099111  0.49840835  0.91301864  1
  O  O188  1  0.87758922  0.74530180  0.16628789  1
  O  O189  1  0.87186685  0.75081197  0.41394266  1
  O  O190  1  0.87637282  0.74877718  0.66423446  1
  O  O191  1  0.88170545  0.75295615  0.90769348  1
  O  O192  1  -0.00257004  0.12306486  0.16226583  1
  O  O193  1  -0.00725866  0.13012672  0.40380105  1
  O  O194  1  -0.00211733  0.12638059  0.66263448  1
  O  O195  1  0.00956852  0.12925815  0.91406233  1
  O  O196  1  -0.00650574  0.38093469  0.16289271  1
  O  O197  1  0.00592020  0.37075952  0.40899540  1
  O  O198  1  0.00923532  0.36642855  0.66252187  1
  O  O199  1  0.00863308  0.37246410  0.91436529  1
  O  O200  1  -0.00032723  0.62927204  0.16791550  1
  O  O201  1  0.00247251  0.62249221  0.41536084  1
  O  O202  1  0.01444632  0.61911642  0.66121268  1
  O  O203  1  0.01004872  0.62141498  0.91056059  1
  O  O204  1  0.00756974  0.87132626  0.16312706  1
  O  O205  1  -0.00216278  0.88007495  0.40954349  1
  O  O206  1  -0.00076374  0.88131499  0.66542139  1
  O  O207  1  0.00102004  0.87364096  0.91256509  1
  O  O208  1  0.25286539  0.12087456  0.16262176  1
  O  O209  1  0.26002687  0.13016059  0.40581667  1
  O  O210  1  0.24869276  0.13017242  0.66332422  1
  O  O211  1  0.24727798  0.12939543  0.91874143  1
  O  O212  1  0.24977332  0.38168572  0.16153255  1
  O  O213  1  0.25302228  0.37251676  0.41484304  1
  O  O214  1  0.24734505  0.36467678  0.66898466  1
  O  O215  1  0.24807398  0.37333552  0.91805738  1
  O  O216  1  0.25043509  0.62940657  0.16628517  1
  O  O217  1  0.25738667  0.62136291  0.41673998  1
  O  O218  1  0.23959269  0.61813643  0.66598409  1
  O  O219  1  0.24116024  0.61801740  0.91085606  1
  O  O220  1  0.25235152  0.87065949  0.16277694  1
  O  O221  1  0.25563953  0.87846114  0.41593511  1
  O  O222  1  0.25480596  0.88123588  0.66501726  1
  O  O223  1  0.24623306  0.87671837  0.91684070  1
  O  O224  1  0.50183442  0.12123956  0.15699117  1
  O  O225  1  0.49930799  0.12844321  0.41483725  1
  O  O226  1  0.50033791  0.12612077  0.67087144  1
  O  O227  1  0.49188532  0.12895203  0.91380274  1
  O  O228  1  0.49837544  0.38186930  0.15769425  1
  O  O229  1  0.49571916  0.37614966  0.41733766  1
  O  O230  1  0.50270890  0.37162381  0.67196908  1
  O  O231  1  0.49370784  0.37363999  0.91315952  1
  O  O232  1  0.49267778  0.63028520  0.15431611  1
  O  O233  1  0.49549311  0.62241089  0.42048233  1
  O  O234  1  0.50396171  0.62107152  0.67008267  1
  O  O235  1  0.49620509  0.62230819  0.90347444  1
  O  O236  1  0.49735083  0.86774439  0.15836245  1
  O  O237  1  0.49938104  0.87504101  0.42520894  1
  O  O238  1  0.49246994  0.87809128  0.66874628  1
  O  O239  1  0.49570791  0.87449944  0.90776186  1
  O  O240  1  0.74890423  0.12302069  0.15684032  1
  O  O241  1  0.74434389  0.12831649  0.41023749  1
  O  O242  1  0.75042704  0.12644953  0.67088306  1
  O  O243  1  0.75142036  0.12515547  0.91627458  1
  O  O244  1  0.75757791  0.38305456  0.15724105  1
  O  O245  1  0.74487397  0.37449328  0.41763040  1
  O  O246  1  0.74054233  0.37354609  0.66542084  1
  O  O247  1  0.74662944  0.37558036  0.90801685  1
  O  O248  1  0.75735891  0.62837791  0.15845693  1
  O  O249  1  0.74219264  0.62425289  0.41242279  1
  O  O250  1  0.74314012  0.62080488  0.66519325  1
  O  O251  1  0.75356362  0.62299743  0.90731359  1
  O  O252  1  0.74378731  0.86891603  0.15584224  1
  O  O253  1  0.74426869  0.87725030  0.41809128  1
  O  O254  1  0.74920535  0.87615918  0.67140701  1
  O  O255  1  0.75987693  0.87441563  0.90202007  1
  O  O256  1  0.12975787  0.12509996  0.03691605  1
  O  O257  1  0.12462652  0.12338906  0.27908769  1
  O  O258  1  0.12693194  0.13345630  0.54948222  1
  O  O259  1  0.12830463  0.12983097  0.80144188  1
  O  O260  1  0.12331791  0.38216512  0.03343760  1
  O  O261  1  0.12592538  0.37657188  0.29647418  1
  O  O262  1  0.13029902  0.36607093  0.54918789  1
  O  O263  1  0.12751773  0.36967444  0.80281793  1
  O  O264  1  0.12389833  0.62931241  0.05266549  1
  O  O265  1  0.12733278  0.62599594  0.28578111  1
  O  O266  1  0.13137791  0.62000289  0.54336917  1
  O  O267  1  0.12601257  0.62204476  0.79239745  1
  O  O268  1  0.12430345  0.86800304  0.05100010  1
  O  O269  1  0.13326367  0.87913209  0.28362088  1
  O  O270  1  0.12824888  0.89100714  0.53979246  1
  O  O271  1  0.13229236  0.87926534  0.77934816  1
  O  O272  1  0.36817617  0.11843793  0.02859365  1
  O  O273  1  0.38168816  0.12635854  0.29421702  1
  O  O274  1  0.37879078  0.12823777  0.55073351  1
  O  O275  1  0.36894775  0.13185937  0.80740536  1
  O  O276  1  0.37508985  0.38586922  0.02879020  1
  O  O277  1  0.37719816  0.37710937  0.29532518  1
  O  O278  1  0.37640184  0.36803181  0.55367573  1
  O  O279  1  0.36978718  0.36628567  0.80565485  1
  O  O280  1  0.36991669  0.63064627  0.04485375  1
  O  O281  1  0.37872573  0.62264152  0.30192199  1
  O  O282  1  0.37666923  0.61342216  0.54942178  1
  O  O283  1  0.36675999  0.61831420  0.77500653  1
  O  O284  1  0.37091717  0.86650191  0.04780919  1
  O  O285  1  0.38572089  0.87289938  0.28501534  1
  O  O286  1  0.37710754  0.87948953  0.55318154  1
  O  O287  1  0.36386311  0.87789785  0.78255586  1
  O  O288  1  0.62274798  0.11933156  0.02316965  1
  O  O289  1  0.62604863  0.12511786  0.29617287  1
  O  O290  1  0.62656969  0.12675056  0.55474611  1
  O  O291  1  0.62871436  0.13297474  0.79363879  1
  O  O292  1  0.61902083  0.38539029  0.02657482  1
  O  O293  1  0.62602874  0.38443838  0.28522208  1
  O  O294  1  0.62072074  0.37243163  0.55337943  1
  O  O295  1  0.62180223  0.37091215  0.80192478  1
  O  O296  1  0.63118923  0.62704898  0.02804582  1
  O  O297  1  0.62300902  0.62508048  0.30011818  1
  O  O298  1  0.61983946  0.62052731  0.55632203  1
  O  O299  1  0.62503156  0.62235244  0.78192295  1
  O  O300  1  0.62484485  0.86647062  0.04229414  1
  O  O301  1  0.61393334  0.87325572  0.28827805  1
  O  O302  1  0.62202718  0.87815914  0.56126339  1
  O  O303  1  0.61401230  0.87300296  0.77507991  1
  O  O304  1  0.87920458  0.11687904  0.02659263  1
  O  O305  1  0.87083357  0.12781807  0.29303254  1
  O  O306  1  0.87423201  0.12591356  0.55185380  1
  O  O307  1  0.87399755  0.13045530  0.79414400  1
  O  O308  1  0.88052821  0.38339794  0.04529512  1
  O  O309  1  0.86729858  0.37679801  0.28372098  1
  O  O310  1  0.87316995  0.36300018  0.54137871  1
  O  O311  1  0.88445110  0.37265198  0.78280791  1
  O  O312  1  0.87997894  0.62861382  0.04909178  1
  O  O313  1  0.87870753  0.62861487  0.28612299  1
  O  O314  1  0.87674842  0.61960223  0.53917845  1
  O  O315  1  0.88055726  0.62163855  0.77878005  1
  O  O316  1  0.88612716  0.87142137  0.03639452  1
  O  O317  1  0.86378880  0.87270933  0.28261224  1
  O  O318  1  0.86769426  0.88109255  0.53688124  1
  O  O319  1  0.88538705  0.87492680  0.79377741  1
