# generated using pymatgen
data_VFe(PbO3)2
_symmetry_space_group_name_H-M   'P 1'
_cell_length_a   15.40656399
_cell_length_b   15.39500128
_cell_length_c   18.47615271
_cell_angle_alpha   89.98312063
_cell_angle_beta   89.98581936
_cell_angle_gamma   90.00283387
_symmetry_Int_Tables_number   1
_chemical_formula_structural   VFe(PbO3)2
_chemical_formula_sum   'V32 Fe32 Pb64 O192'
_cell_volume   4382.24881321
_cell_formula_units_Z   32
loop_
 _symmetry_equiv_pos_site_id
 _symmetry_equiv_pos_as_xyz
  1  'x, y, z'
loop_
 _atom_site_type_symbol
 _atom_site_label
 _atom_site_symmetry_multiplicity
 _atom_site_fract_x
 _atom_site_fract_y
 _atom_site_fract_z
 _atom_site_occupancy
  V  V0  1  0.87461423  0.62014245  0.64690011  1
  V  V1  1  0.62679649  0.12470626  0.63883811  1
  V  V2  1  0.37523043  0.87410464  0.89406418  1
  V  V3  1  0.62466702  0.62336006  0.14611267  1
  V  V4  1  0.12287042  0.87102974  0.13515183  1
  V  V5  1  0.37901125  0.37162683  0.89456404  1
  V  V6  1  0.12290067  0.37392717  0.64538691  1
  V  V7  1  0.37621086  0.62457660  0.89018664  1
  V  V8  1  0.62637286  0.87732879  0.63785250  1
  V  V9  1  0.12412687  0.12557457  0.64730623  1
  V  V10  1  0.87391623  0.87522513  0.64531834  1
  V  V11  1  0.37809731  0.37778062  0.14218141  1
  V  V12  1  0.87763512  0.87435084  0.38421064  1
  V  V13  1  0.62151717  0.62533095  0.88827864  1
  V  V14  1  0.12426811  0.37300441  0.38207728  1
  V  V15  1  0.62722774  0.87103439  0.14511170  1
  V  V16  1  0.61972931  0.87681692  0.89446233  1
  V  V17  1  0.37594804  0.62760272  0.14960841  1
  V  V18  1  0.62642706  0.37458707  0.64025663  1
  V  V19  1  0.87448372  0.12451555  0.64696232  1
  V  V20  1  0.37742250  0.87347745  0.14729277  1
  V  V21  1  0.37274438  0.62329344  0.63563897  1
  V  V22  1  0.12564158  0.62675074  0.88863635  1
  V  V23  1  0.62209751  0.12662793  0.89582584  1
  V  V24  1  0.87579551  0.62733634  0.13843151  1
  V  V25  1  0.12313125  0.12480491  0.90225159  1
  V  V26  1  0.37254190  0.37287820  0.63748952  1
  V  V27  1  0.37335304  0.87832897  0.63659433  1
  V  V28  1  0.12250397  0.12510247  0.38292868  1
  V  V29  1  0.87551590  0.37208053  0.64638890  1
  V  V30  1  0.62436774  0.37177002  0.14922562  1
  V  V31  1  0.37771892  0.12297236  0.89311115  1
  Fe  Fe32  1  0.87919662  0.62499737  0.38000342  1
  Fe  Fe33  1  0.62389310  0.12270088  0.14527502  1
  Fe  Fe34  1  0.12979625  0.37510339  0.90122832  1
  Fe  Fe35  1  0.87141850  0.12496347  0.89904973  1
  Fe  Fe36  1  0.37316860  0.12763824  0.63628050  1
  Fe  Fe37  1  0.37069971  0.12648749  0.37538544  1
  Fe  Fe38  1  0.87829100  0.37391484  0.37218423  1
  Fe  Fe39  1  0.87312138  0.37893225  0.13995424  1
  Fe  Fe40  1  0.13088813  0.87641060  0.88587003  1
  Fe  Fe41  1  0.37224286  0.62356182  0.38000710  1
  Fe  Fe42  1  0.87497768  0.12201190  0.12584059  1
  Fe  Fe43  1  0.62790234  0.62583146  0.38498559  1
  Fe  Fe44  1  0.37245543  0.37552213  0.38010349  1
  Fe  Fe45  1  0.87108131  0.37816757  0.88852763  1
  Fe  Fe46  1  0.87363388  0.86995652  0.12765778  1
  Fe  Fe47  1  0.62673148  0.62623131  0.63343286  1
  Fe  Fe48  1  0.12272195  0.62371893  0.63835656  1
  Fe  Fe49  1  0.62875647  0.12368847  0.37236971  1
  Fe  Fe50  1  0.12656823  0.37873478  0.12529741  1
  Fe  Fe51  1  0.12808574  0.62474575  0.14309804  1
  Fe  Fe52  1  0.87514510  0.87287772  0.89585934  1
  Fe  Fe53  1  0.37209398  0.87534539  0.37934032  1
  Fe  Fe54  1  0.12122929  0.62484566  0.37596464  1
  Fe  Fe55  1  0.61943903  0.37443803  0.88629186  1
  Fe  Fe56  1  0.37536845  0.12272713  0.14681618  1
  Fe  Fe57  1  0.12112866  0.87651715  0.64296148  1
  Fe  Fe58  1  0.88004622  0.12230954  0.37795810  1
  Fe  Fe59  1  0.87128521  0.62577520  0.88235922  1
  Fe  Fe60  1  0.62708763  0.87617959  0.37863418  1
  Fe  Fe61  1  0.12324794  0.87793003  0.38140211  1
  Fe  Fe62  1  0.62622380  0.37331682  0.37242246  1
  Fe  Fe63  1  0.12850439  0.12565281  0.12458189  1
  Pb  Pb64  1  -0.00586325  -0.00312437  -0.00051315  1
  Pb  Pb65  1  -0.00417507  0.00395427  0.23551316  1
  Pb  Pb66  1  0.00487975  -0.00757711  0.50107173  1
  Pb  Pb67  1  -0.01070051  0.00043046  0.76462325  1
  Pb  Pb68  1  -0.01189772  0.25972486  0.00339327  1
  Pb  Pb69  1  -0.00166317  0.25159198  0.22964101  1
  Pb  Pb70  1  -0.00307038  0.25014768  0.49246769  1
  Pb  Pb71  1  -0.00919651  0.24785358  0.76393031  1
  Pb  Pb72  1  0.00072915  0.49624860  -0.00044085  1
  Pb  Pb73  1  0.00182221  0.50175394  0.24238210  1
  Pb  Pb74  1  0.00115135  0.50384913  0.49338511  1
  Pb  Pb75  1  -0.00131199  0.49124476  0.75949922  1
  Pb  Pb76  1  -0.00068212  0.75139002  -0.00392760  1
  Pb  Pb77  1  0.00024718  0.74307601  0.25056727  1
  Pb  Pb78  1  0.01239911  0.74669126  0.49761040  1
  Pb  Pb79  1  -0.00481001  0.75146202  0.75455220  1
  Pb  Pb80  1  0.25475134  0.00584082  0.00723299  1
  Pb  Pb81  1  0.24676980  -0.00850741  0.24897157  1
  Pb  Pb82  1  0.25180649  -0.00161114  0.49443075  1
  Pb  Pb83  1  0.24309944  -0.00137511  0.75534877  1
  Pb  Pb84  1  0.25052106  0.24467694  0.00877331  1
  Pb  Pb85  1  0.25211828  0.24741695  0.24056388  1
  Pb  Pb86  1  0.25690820  0.24407154  0.49688195  1
  Pb  Pb87  1  0.24145178  0.25545312  0.75962793  1
  Pb  Pb88  1  0.24328774  0.50643687  0.00863083  1
  Pb  Pb89  1  0.25534171  0.50013544  0.25109523  1
  Pb  Pb90  1  0.24595436  0.50588527  0.49154928  1
  Pb  Pb91  1  0.24457474  0.49462456  0.75374915  1
  Pb  Pb92  1  0.24434372  0.74291204  0.00733107  1
  Pb  Pb93  1  0.24813790  0.75876910  0.25776887  1
  Pb  Pb94  1  0.24412509  0.75051504  0.48869561  1
  Pb  Pb95  1  0.24339190  0.75275070  0.74699958  1
  Pb  Pb96  1  0.49993822  0.00930491  0.01585069  1
  Pb  Pb97  1  0.50616869  -0.00149749  0.25463472  1
  Pb  Pb98  1  0.49650499  0.00506051  0.48288479  1
  Pb  Pb99  1  0.50094616  0.00317114  0.74659538  1
  Pb  Pb100  1  0.50204098  0.23671427  0.01483199  1
  Pb  Pb101  1  0.49823405  0.24131432  0.25406181  1
  Pb  Pb102  1  0.49988878  0.24609799  0.48280759  1
  Pb  Pb103  1  0.50348273  0.25346555  0.74833291  1
  Pb  Pb104  1  0.49844570  0.49982643  0.00431235  1
  Pb  Pb105  1  0.49664429  0.49891483  0.25938188  1
  Pb  Pb106  1  0.50505130  0.50050032  0.48729461  1
  Pb  Pb107  1  0.50233493  0.49579195  0.74529068  1
  Pb  Pb108  1  0.49885994  0.75139793  0.00625557  1
  Pb  Pb109  1  0.50532948  0.74714532  0.26082162  1
  Pb  Pb110  1  0.50105494  0.74816236  0.48766672  1
  Pb  Pb111  1  0.49950665  0.74925083  0.74239114  1
  Pb  Pb112  1  0.75408196  0.00263822  0.00619502  1
  Pb  Pb113  1  0.75649593  0.00859182  0.24485766  1
  Pb  Pb114  1  0.75030945  0.00361111  0.48874204  1
  Pb  Pb115  1  0.75822097  0.00048825  0.76114185  1
  Pb  Pb116  1  0.75725839  0.25733583  0.00642597  1
  Pb  Pb117  1  0.76424715  0.24448751  0.24597549  1
  Pb  Pb118  1  0.75144515  0.25073920  0.48199039  1
  Pb  Pb119  1  0.75142227  0.25338042  0.75728597  1
  Pb  Pb120  1  0.75590728  0.49223407  0.00201469  1
  Pb  Pb121  1  0.74623188  0.49964338  0.25496645  1
  Pb  Pb122  1  0.75122552  0.49795305  0.48603070  1
  Pb  Pb123  1  0.75062496  0.49602501  0.75400817  1
  Pb  Pb124  1  0.75287573  0.75079805  0.00107196  1
  Pb  Pb125  1  0.74739129  0.74481545  0.25477617  1
  Pb  Pb126  1  0.74625680  0.74278315  0.49538976  1
  Pb  Pb127  1  0.75687235  0.75203793  0.75569424  1
  O  O128  1  0.13125677  -0.01083839  0.15373516  1
  O  O129  1  0.12301541  0.00854036  0.40977611  1
  O  O130  1  0.12295291  0.00822917  0.67144562  1
  O  O131  1  0.13413569  0.00368286  0.91704021  1
  O  O132  1  0.12938637  0.25295929  0.14828224  1
  O  O133  1  0.12239444  0.24799789  0.41066785  1
  O  O134  1  0.12167412  0.24718168  0.67663343  1
  O  O135  1  0.13586923  0.24359518  0.91855559  1
  O  O136  1  0.12754210  0.49946761  0.16211886  1
  O  O137  1  0.12183285  0.49108167  0.40371160  1
  O  O138  1  0.12288577  0.49612397  0.67141214  1
  O  O139  1  0.13278772  0.51114495  0.91490167  1
  O  O140  1  0.12942193  0.75545951  0.16293319  1
  O  O141  1  0.12122660  0.75108949  0.40672247  1
  O  O142  1  0.12349840  0.74976471  0.66787533  1
  O  O143  1  0.13398223  0.74459306  0.91375146  1
  O  O144  1  0.37657088  -0.01036715  0.16148361  1
  O  O145  1  0.36932013  0.00309796  0.40692136  1
  O  O146  1  0.37530869  -0.00395212  0.66349980  1
  O  O147  1  0.37982453  -0.00551251  0.91683411  1
  O  O148  1  0.37972059  0.26042880  0.15893005  1
  O  O149  1  0.36901665  0.25012841  0.41061576  1
  O  O150  1  0.37343967  0.25465172  0.66744136  1
  O  O151  1  0.38140175  0.25265111  0.91439422  1
  O  O152  1  0.38059287  0.50332077  0.16614999  1
  O  O153  1  0.37097525  0.49804503  0.41457477  1
  O  O154  1  0.37467153  0.49620962  0.66378419  1
  O  O155  1  0.38104209  0.50296196  0.91715037  1
  O  O156  1  0.37757818  0.74627863  0.17024997  1
  O  O157  1  0.37103839  0.74931801  0.40982243  1
  O  O158  1  0.37592398  0.75469794  0.65970570  1
  O  O159  1  0.37765781  0.75282016  0.91778711  1
  O  O160  1  0.61839556  -0.01243404  0.16041573  1
  O  O161  1  0.62824265  0.00061539  0.40918445  1
  O  O162  1  0.62554888  -0.00007380  0.66933960  1
  O  O163  1  0.61619548  -0.00450498  0.91915600  1
  O  O164  1  0.62128640  0.25646228  0.15933729  1
  O  O165  1  0.62732561  0.24805751  0.40249882  1
  O  O166  1  0.62675935  0.24815778  0.66896961  1
  O  O167  1  0.61693979  0.24243418  0.91336399  1
  O  O168  1  0.62333870  0.50806032  0.16625835  1
  O  O169  1  0.62788186  0.49797608  0.40702566  1
  O  O170  1  0.62580468  0.49763883  0.66371056  1
  O  O171  1  0.61672129  0.51013323  0.90950972  1
  O  O172  1  0.62122638  0.74821404  0.16893090  1
  O  O173  1  0.62823831  0.75339357  0.41272853  1
  O  O174  1  0.62498084  0.75604005  0.66474470  1
  O  O175  1  0.61785433  0.75252730  0.91694843  1
  O  O176  1  0.87515941  -0.00643752  0.15298918  1
  O  O177  1  0.87879623  -0.00535123  0.41165124  1
  O  O178  1  0.87373296  -0.00083372  0.67439448  1
  O  O179  1  0.87242899  -0.00185923  0.91794182  1
  O  O180  1  0.87186123  0.24893688  0.15283940  1
  O  O181  1  0.88060539  0.24899002  0.40829387  1
  O  O182  1  0.87567309  0.24865713  0.67420144  1
  O  O183  1  0.87113039  0.25220417  0.91569388  1
  O  O184  1  0.86850400  0.51114658  0.16050793  1
  O  O185  1  0.87967943  0.49686264  0.40702528  1
  O  O186  1  0.87437585  0.50080374  0.66758800  1
  O  O187  1  0.87145107  0.50529356  0.91591331  1
  O  O188  1  0.87192616  0.74559396  0.16181003  1
  O  O189  1  0.88013676  0.75898730  0.41106496  1
  O  O190  1  0.87286249  0.75456119  0.66509250  1
  O  O191  1  0.87190677  0.74547825  0.91751217  1
  O  O192  1  0.00332694  0.12048273  0.14841225  1
  O  O193  1  0.00647089  0.12540338  0.41271808  1
  O  O194  1  0.00092575  0.12577667  0.67640460  1
  O  O195  1  0.00708614  0.12525717  0.91323259  1
  O  O196  1  0.00048432  0.37874685  0.15102845  1
  O  O197  1  0.00774195  0.37066032  0.40971696  1
  O  O198  1  -0.00082170  0.37340908  0.67518482  1
  O  O199  1  0.00071357  0.37811595  0.91407310  1
  O  O200  1  -0.00648521  0.62792210  0.15414412  1
  O  O201  1  0.00081679  0.62375468  0.41518610  1
  O  O202  1  -0.00813369  0.62623161  0.67118625  1
  O  O203  1  0.00880780  0.62729175  0.90483441  1
  O  O204  1  0.00557723  0.87097074  0.14963590  1
  O  O205  1  -0.00371461  0.87926795  0.41391705  1
  O  O206  1  -0.00935783  0.87793226  0.66989158  1
  O  O207  1  0.00595325  0.87275865  0.91274743  1
  O  O208  1  0.24914488  0.12379975  0.15989497  1
  O  O209  1  0.23931012  0.12751278  0.40819408  1
  O  O210  1  0.24213859  0.12748761  0.66854113  1
  O  O211  1  0.26196759  0.12388734  0.91922208  1
  O  O212  1  0.25973734  0.38140091  0.15653640  1
  O  O213  1  0.23863596  0.37218002  0.41112640  1
  O  O214  1  0.24834720  0.37350823  0.66976916  1
  O  O215  1  0.26593957  0.37693398  0.92078217  1
  O  O216  1  0.25931305  0.62451859  0.16393275  1
  O  O217  1  0.24445757  0.62148047  0.40750082  1
  O  O218  1  0.25524601  0.62384215  0.66449569  1
  O  O219  1  0.25515214  0.62687308  0.91728934  1
  O  O220  1  0.25392306  0.86876498  0.16235668  1
  O  O221  1  0.24679546  0.87773267  0.41415273  1
  O  O222  1  0.25730187  0.87735277  0.66261985  1
  O  O223  1  0.26011929  0.87486161  0.91765972  1
  O  O224  1  0.49926489  0.12377204  0.17005722  1
  O  O225  1  0.49954136  0.12569703  0.39873542  1
  O  O226  1  0.50366009  0.12483441  0.66447750  1
  O  O227  1  0.49958415  0.12104406  0.92378116  1
  O  O228  1  0.49984511  0.38252658  0.16856833  1
  O  O229  1  0.50009372  0.37308605  0.40555356  1
  O  O230  1  0.49914362  0.37365209  0.66356561  1
  O  O231  1  0.49588362  0.37816595  0.92231046  1
  O  O232  1  0.50246445  0.62711005  0.16932224  1
  O  O233  1  0.49971704  0.62461728  0.40853904  1
  O  O234  1  0.49518721  0.62559717  0.66223304  1
  O  O235  1  0.50041042  0.63052302  0.91957231  1
  O  O236  1  0.49674521  0.86718668  0.16919645  1
  O  O237  1  0.49901738  0.87708548  0.40687302  1
  O  O238  1  0.49750644  0.87709051  0.66222025  1
  O  O239  1  0.49786758  0.87224469  0.92336618  1
  O  O240  1  0.75047752  0.11990275  0.15598988  1
  O  O241  1  0.75481477  0.12354638  0.40680853  1
  O  O242  1  0.75072791  0.12507651  0.67123919  1
  O  O243  1  0.73675797  0.11940934  0.91430729  1
  O  O244  1  0.74165110  0.38217941  0.16115808  1
  O  O245  1  0.75296742  0.37296477  0.40332010  1
  O  O246  1  0.75066502  0.37334089  0.66953126  1
  O  O247  1  0.74136403  0.37683444  0.91683105  1
  O  O248  1  0.74562513  0.62971933  0.16393824  1
  O  O249  1  0.75597795  0.62683215  0.41218377  1
  O  O250  1  0.75516907  0.62665982  0.66639889  1
  O  O251  1  0.73662930  0.63039270  0.90860576  1
  O  O252  1  0.74377664  0.86798197  0.15647641  1
  O  O253  1  0.75968890  0.87651506  0.40857050  1
  O  O254  1  0.75224349  0.87822818  0.66811016  1
  O  O255  1  0.73520995  0.87477671  0.91675594  1
  O  O256  1  0.13962127  0.12135602  0.02310324  1
  O  O257  1  0.12062558  0.12590208  0.29187493  1
  O  O258  1  0.12026349  0.12865781  0.55680967  1
  O  O259  1  0.13438523  0.12440129  0.80972650  1
  O  O260  1  0.13156917  0.38578140  0.02247227  1
  O  O261  1  0.12453856  0.36935752  0.29103781  1
  O  O262  1  0.12151115  0.37149419  0.55483571  1
  O  O263  1  0.13831373  0.37712660  0.79923164  1
  O  O264  1  0.13540770  0.62678456  0.04108378  1
  O  O265  1  0.11230009  0.62591579  0.27401760  1
  O  O266  1  0.11695128  0.61977099  0.53907325  1
  O  O267  1  0.13340748  0.62585601  0.79720539  1
  O  O268  1  0.13211373  0.86626823  0.04336076  1
  O  O269  1  0.13121474  0.87891096  0.28104782  1
  O  O270  1  0.11675229  0.88207902  0.54296089  1
  O  O271  1  0.13662331  0.87820589  0.78519497  1
  O  O272  1  0.38357707  0.12362060  0.04301688  1
  O  O273  1  0.36949349  0.13455702  0.27379810  1
  O  O274  1  0.36791951  0.12940017  0.53750352  1
  O  O275  1  0.37997657  0.12224694  0.80171129  1
  O  O276  1  0.38462576  0.38340248  0.05072046  1
  O  O277  1  0.36903334  0.38162634  0.28002861  1
  O  O278  1  0.36833858  0.37120166  0.54690530  1
  O  O279  1  0.37954306  0.37546990  0.80308317  1
  O  O280  1  0.38121854  0.62796063  0.05739656  1
  O  O281  1  0.37622592  0.61712375  0.27948081  1
  O  O282  1  0.37144690  0.62171138  0.54489970  1
  O  O283  1  0.37626481  0.62558286  0.79922180  1
  O  O284  1  0.37880265  0.86684474  0.05542503  1
  O  O285  1  0.36264154  0.87415525  0.27848848  1
  O  O286  1  0.37327344  0.88014309  0.54607588  1
  O  O287  1  0.37766414  0.87408390  0.80308642  1
  O  O288  1  0.61106249  0.12240579  0.04196923  1
  O  O289  1  0.62939127  0.11810843  0.27074010  1
  O  O290  1  0.62931929  0.12491496  0.54814982  1
  O  O291  1  0.61635465  0.12038851  0.80470303  1
  O  O292  1  0.61784418  0.38248312  0.05709469  1
  O  O293  1  0.62745111  0.38297817  0.27131566  1
  O  O294  1  0.62760659  0.37093046  0.54972493  1
  O  O295  1  0.61841842  0.37377057  0.78620037  1
  O  O296  1  0.62306993  0.62617861  0.05463335  1
  O  O297  1  0.63212845  0.63183598  0.28356815  1
  O  O298  1  0.63024684  0.62786710  0.53455189  1
  O  O299  1  0.61673692  0.62997912  0.79700461  1
  O  O300  1  0.61746968  0.86518192  0.05345007  1
  O  O301  1  0.62541356  0.87172886  0.27845450  1
  O  O302  1  0.62876352  0.87958707  0.54721176  1
  O  O303  1  0.61666271  0.87749017  0.80351811  1
  O  O304  1  0.87066031  0.12441728  0.02277444  1
  O  O305  1  0.87732193  0.11903883  0.27724735  1
  O  O306  1  0.87864975  0.12272346  0.55625182  1
  O  O307  1  0.87537106  0.12018977  0.79574278  1
  O  O308  1  0.86501493  0.37907859  0.03629343  1
  O  O309  1  0.87649903  0.37140290  0.27055261  1
  O  O310  1  0.87889500  0.37063682  0.55571526  1
  O  O311  1  0.87032418  0.37783410  0.78651098  1
  O  O312  1  0.86853114  0.62818040  0.04655482  1
  O  O313  1  0.88185595  0.63284557  0.27998265  1
  O  O314  1  0.87734994  0.62212503  0.55609808  1
  O  O315  1  0.86927282  0.63199054  0.78232377  1
  O  O316  1  0.87126386  0.86832113  0.02647207  1
  O  O317  1  0.88075913  0.87493617  0.29267258  1
  O  O318  1  0.87478016  0.88122676  0.55513617  1
  O  O319  1  0.86729586  0.87475099  0.79343614  1
