# generated using pymatgen
data_VFe(PbO3)2
_symmetry_space_group_name_H-M   'P 1'
_cell_length_a   15.37190825
_cell_length_b   15.38332046
_cell_length_c   18.52551244
_cell_angle_alpha   89.96976159
_cell_angle_beta   89.97077444
_cell_angle_gamma   89.99678022
_symmetry_Int_Tables_number   1
_chemical_formula_structural   VFe(PbO3)2
_chemical_formula_sum   'V32 Fe32 Pb64 O192'
_cell_volume   4380.74509250
_cell_formula_units_Z   32
loop_
 _symmetry_equiv_pos_site_id
 _symmetry_equiv_pos_as_xyz
  1  'x, y, z'
loop_
 _atom_site_type_symbol
 _atom_site_label
 _atom_site_symmetry_multiplicity
 _atom_site_fract_x
 _atom_site_fract_y
 _atom_site_fract_z
 _atom_site_occupancy
  V  V0  1  0.12482268  0.12633105  0.13568321  1
  V  V1  1  0.87436790  0.87426412  0.39040379  1
  V  V2  1  0.12497465  0.37644991  0.63960970  1
  V  V3  1  0.12538604  0.62382400  0.13890179  1
  V  V4  1  0.37459459  0.62396351  0.63486570  1
  V  V5  1  0.37505310  0.12738523  0.13841900  1
  V  V6  1  0.87646194  0.12298805  0.39007229  1
  V  V7  1  0.12166266  0.37601230  0.89124739  1
  V  V8  1  0.62547142  0.12374899  0.88901123  1
  V  V9  1  0.62254149  0.37397163  0.88514290  1
  V  V10  1  0.12924127  0.87430503  0.88998344  1
  V  V11  1  0.12483699  0.12449093  0.64349664  1
  V  V12  1  0.37725848  0.87345508  0.13953543  1
  V  V13  1  0.62623320  0.86635907  0.89256799  1
  V  V14  1  0.12325146  0.87674497  0.38956162  1
  V  V15  1  0.87616250  0.62514690  0.63732864  1
  V  V16  1  0.87658311  0.62551421  0.38557640  1
  V  V17  1  0.37588297  0.12616205  0.63989920  1
  V  V18  1  0.87391393  0.37435256  0.14340705  1
  V  V19  1  0.37345148  0.87464487  0.64255315  1
  V  V20  1  0.12488194  0.12291712  0.38853308  1
  V  V21  1  0.62609530  0.87750625  0.38752868  1
  V  V22  1  0.37524228  0.37734506  0.15108262  1
  V  V23  1  0.86993133  0.37495075  0.88821153  1
  V  V24  1  0.62451287  0.62450803  0.14267957  1
  V  V25  1  0.87605270  0.37509989  0.63742249  1
  V  V26  1  0.87522675  0.87595667  0.89124444  1
  V  V27  1  0.37745581  0.11866743  0.38938218  1
  V  V28  1  0.62237838  0.12642537  0.14240178  1
  V  V29  1  0.62768562  0.87464102  0.64020522  1
  V  V30  1  0.37414316  0.37466826  0.88752302  1
  V  V31  1  0.62389210  0.37494143  0.14772015  1
  Fe  Fe32  1  0.87311683  0.87493719  0.13235901  1
  Fe  Fe33  1  0.37823197  0.87589051  0.88302619  1
  Fe  Fe34  1  0.12491421  0.12532429  0.88591946  1
  Fe  Fe35  1  0.87461249  0.12594842  0.89377309  1
  Fe  Fe36  1  0.62487283  0.62674997  0.63297373  1
  Fe  Fe37  1  0.62542636  0.61919940  0.88367545  1
  Fe  Fe38  1  0.87469528  0.62373588  0.89197472  1
  Fe  Fe39  1  0.62331926  0.87540672  0.13075484  1
  Fe  Fe40  1  0.62341367  0.37500111  0.63116901  1
  Fe  Fe41  1  0.12652764  0.87580382  0.12984716  1
  Fe  Fe42  1  0.12488117  0.62441349  0.88683149  1
  Fe  Fe43  1  0.87585174  0.12559214  0.63469651  1
  Fe  Fe44  1  0.62773653  0.12159561  0.38800444  1
  Fe  Fe45  1  0.12084377  0.37285218  0.37839091  1
  Fe  Fe46  1  0.37379342  0.62356184  0.88690955  1
  Fe  Fe47  1  0.37404455  0.12595152  0.88604592  1
  Fe  Fe48  1  0.37471847  0.87863793  0.38416492  1
  Fe  Fe49  1  0.12723346  0.37399538  0.14474383  1
  Fe  Fe50  1  0.87329980  0.12891387  0.12977932  1
  Fe  Fe51  1  0.62427679  0.12278347  0.63130500  1
  Fe  Fe52  1  0.12524577  0.87393358  0.63778073  1
  Fe  Fe53  1  0.37687440  0.62367323  0.14736526  1
  Fe  Fe54  1  0.37437004  0.63052581  0.37744379  1
  Fe  Fe55  1  0.87421753  0.62195300  0.13374464  1
  Fe  Fe56  1  0.12301249  0.62874708  0.38465128  1
  Fe  Fe57  1  0.37054485  0.37546309  0.62873718  1
  Fe  Fe58  1  0.62782015  0.62870358  0.38683578  1
  Fe  Fe59  1  0.62902117  0.37308227  0.38588474  1
  Fe  Fe60  1  0.12543831  0.62433972  0.63246882  1
  Fe  Fe61  1  0.37250174  0.37397380  0.38535412  1
  Fe  Fe62  1  0.87666354  0.87416786  0.63598379  1
  Fe  Fe63  1  0.87812997  0.37540463  0.38336570  1
  Pb  Pb64  1  -0.00163500  -0.00490194  0.00116328  1
  Pb  Pb65  1  -0.00400723  -0.00128498  0.23914946  1
  Pb  Pb66  1  -0.00507632  -0.00436369  0.50736202  1
  Pb  Pb67  1  -0.00424604  0.00090455  0.75042155  1
  Pb  Pb68  1  -0.00108721  0.24672998  0.00196672  1
  Pb  Pb69  1  -0.00252075  0.25727689  0.25190272  1
  Pb  Pb70  1  -0.00450345  0.24655528  0.49854498  1
  Pb  Pb71  1  -0.00046777  0.24195447  0.75460965  1
  Pb  Pb72  1  -0.00009446  0.50297270  0.00217237  1
  Pb  Pb73  1  0.00125297  0.49423984  0.25204031  1
  Pb  Pb74  1  0.00798219  0.50328420  0.49339504  1
  Pb  Pb75  1  -0.00162405  0.50749036  0.75168934  1
  Pb  Pb76  1  -0.00042201  0.75501699  0.00133290  1
  Pb  Pb77  1  0.00170443  0.74893841  0.24174817  1
  Pb  Pb78  1  0.00370164  0.75738947  0.50343899  1
  Pb  Pb79  1  0.00520990  0.74717269  0.74811249  1
  Pb  Pb80  1  0.25090954  0.00212393  -0.00487445  1
  Pb  Pb81  1  0.25632003  -0.00444232  0.24740040  1
  Pb  Pb82  1  0.24103168  -0.00696646  0.50349155  1
  Pb  Pb83  1  0.25459945  0.00387011  0.75474656  1
  Pb  Pb84  1  0.24357366  0.25639069  0.00306403  1
  Pb  Pb85  1  0.25379489  0.25386615  0.25512108  1
  Pb  Pb86  1  0.25270242  0.25611115  0.49749148  1
  Pb  Pb87  1  0.24785809  0.24268589  0.75330066  1
  Pb  Pb88  1  0.24741831  0.49759546  0.00506119  1
  Pb  Pb89  1  0.24670467  0.50934843  0.25748403  1
  Pb  Pb90  1  0.24916250  0.50128226  0.48595205  1
  Pb  Pb91  1  0.25010564  0.51157534  0.75159755  1
  Pb  Pb92  1  0.25466169  0.74348035  -0.00106028  1
  Pb  Pb93  1  0.24792762  0.74438654  0.25258025  1
  Pb  Pb94  1  0.24831804  0.74435500  0.49674266  1
  Pb  Pb95  1  0.24946342  0.74373156  0.75022662  1
  Pb  Pb96  1  0.50251133  -0.00397902  -0.00054586  1
  Pb  Pb97  1  0.49840229  -0.00189095  0.25113925  1
  Pb  Pb98  1  0.50875571  0.00254040  0.50238210  1
  Pb  Pb99  1  0.49328232  -0.00257988  0.75270593  1
  Pb  Pb100  1  0.50017988  0.25149910  -0.00130549  1
  Pb  Pb101  1  0.49955010  0.25455626  0.26040509  1
  Pb  Pb102  1  0.50497763  0.26190568  0.49851809  1
  Pb  Pb103  1  0.50137349  0.25368884  0.74113979  1
  Pb  Pb104  1  0.49420213  0.50618376  0.00218422  1
  Pb  Pb105  1  0.50765898  0.49997110  0.26244268  1
  Pb  Pb106  1  0.49878323  0.49798599  0.48782099  1
  Pb  Pb107  1  0.50216368  0.50280770  0.74057250  1
  Pb  Pb108  1  0.49155215  0.73950903  0.00180111  1
  Pb  Pb109  1  0.50073833  0.74392773  0.25379143  1
  Pb  Pb110  1  0.49874512  0.74453293  0.49422143  1
  Pb  Pb111  1  0.49321616  0.74887665  0.75067630  1
  Pb  Pb112  1  0.75084133  -0.00996567  0.00659676  1
  Pb  Pb113  1  0.74741335  0.00314877  0.24487856  1
  Pb  Pb114  1  0.75821340  0.00376693  0.50471084  1
  Pb  Pb115  1  0.75591335  0.00515194  0.74761155  1
  Pb  Pb116  1  0.75219858  0.24814619  0.00328868  1
  Pb  Pb117  1  0.74221503  0.24807107  0.25672220  1
  Pb  Pb118  1  0.74195976  0.25112523  0.49819356  1
  Pb  Pb119  1  0.75202184  0.24287107  0.74471402  1
  Pb  Pb120  1  0.74995941  0.50572259  0.00224365  1
  Pb  Pb121  1  0.74598253  0.49568855  0.25613803  1
  Pb  Pb122  1  0.73896011  0.49736831  0.49749393  1
  Pb  Pb123  1  0.74643506  0.50641691  0.74913988  1
  Pb  Pb124  1  0.75623588  0.74555467  0.00366347  1
  Pb  Pb125  1  0.75012475  0.74982074  0.24387482  1
  Pb  Pb126  1  0.74860788  0.74840083  0.50126253  1
  Pb  Pb127  1  0.75089481  0.73664054  0.75414958  1
  O  O128  1  0.12777830  0.00793272  0.15977341  1
  O  O129  1  0.12143634  0.00042904  0.41728373  1
  O  O130  1  0.12627322  0.00794231  0.66484906  1
  O  O131  1  0.12083150  -0.00683127  0.91177998  1
  O  O132  1  0.12917664  0.24108411  0.16420917  1
  O  O133  1  0.12102820  0.23890449  0.41029851  1
  O  O134  1  0.12455492  0.25042079  0.66637324  1
  O  O135  1  0.12755421  0.25877651  0.91583739  1
  O  O136  1  0.12746735  0.50526910  0.16485453  1
  O  O137  1  0.12176829  0.50025074  0.40531577  1
  O  O138  1  0.12329633  0.49389433  0.66129616  1
  O  O139  1  0.12733301  0.49230406  0.91853601  1
  O  O140  1  0.12690498  0.74596907  0.15847447  1
  O  O141  1  0.12185039  0.76018397  0.41063821  1
  O  O142  1  0.12451287  0.74747476  0.66530280  1
  O  O143  1  0.12179467  0.75642543  0.91326913  1
  O  O144  1  0.37833422  0.00208938  0.16394621  1
  O  O145  1  0.37020895  0.00384830  0.42049259  1
  O  O146  1  0.37245928  0.00367258  0.66610035  1
  O  O147  1  0.37822401  -0.00036880  0.91611967  1
  O  O148  1  0.37737606  0.24814018  0.17051020  1
  O  O149  1  0.37024997  0.23394530  0.41363549  1
  O  O150  1  0.37096742  0.24380162  0.65962705  1
  O  O151  1  0.37349343  0.25749016  0.91437983  1
  O  O152  1  0.37729106  0.49338001  0.16989686  1
  O  O153  1  0.37302724  0.50231023  0.40257269  1
  O  O154  1  0.37281476  0.50606128  0.65462434  1
  O  O155  1  0.37435460  0.49083009  0.91625979  1
  O  O156  1  0.37764239  0.75852707  0.16005423  1
  O  O157  1  0.37409316  0.75603137  0.41270159  1
  O  O158  1  0.37526118  0.74680254  0.66375324  1
  O  O159  1  0.37711225  0.75221754  0.91668596  1
  O  O160  1  0.62264463  0.00751022  0.15976760  1
  O  O161  1  0.62895868  -0.00638269  0.41658839  1
  O  O162  1  0.62237837  -0.00674547  0.66583280  1
  O  O163  1  0.62590949  0.00872452  0.91083317  1
  O  O164  1  0.62364588  0.24847655  0.17006490  1
  O  O165  1  0.62811677  0.24584547  0.41155494  1
  O  O166  1  0.62314086  0.24922895  0.66110450  1
  O  O167  1  0.62317627  0.25331119  0.91798671  1
  O  O168  1  0.62355366  0.49992243  0.17155886  1
  O  O169  1  0.62826637  0.50144548  0.40968810  1
  O  O170  1  0.62574446  0.50055679  0.65965243  1
  O  O171  1  0.62391857  0.49087412  0.91406808  1
  O  O172  1  0.62303065  0.74398351  0.15805476  1
  O  O173  1  0.62980844  0.76042068  0.41321912  1
  O  O174  1  0.62342578  0.75610349  0.66468957  1
  O  O175  1  0.62782182  0.75193107  0.90908782  1
  O  O176  1  0.87363313  0.00468656  0.15877365  1
  O  O177  1  0.87888309  -0.00015632  0.41626813  1
  O  O178  1  0.87631443  -0.00000669  0.66714505  1
  O  O179  1  0.87154462  -0.00531809  0.91320030  1
  O  O180  1  0.87255695  0.25414286  0.16501010  1
  O  O181  1  0.88060672  0.24001357  0.40915386  1
  O  O182  1  0.88013891  0.25663737  0.66151080  1
  O  O183  1  0.87608454  0.26050690  0.91741180  1
  O  O184  1  0.87378736  0.49437285  0.16504040  1
  O  O185  1  0.87828799  0.50958158  0.40653112  1
  O  O186  1  0.87833571  0.49823104  0.66265583  1
  O  O187  1  0.87533110  0.48895454  0.91746692  1
  O  O188  1  0.87333408  0.74699538  0.16144439  1
  O  O189  1  0.87667189  0.75259851  0.41465852  1
  O  O190  1  0.87554154  0.74226109  0.66055483  1
  O  O191  1  0.86975078  0.75686010  0.91424624  1
  O  O192  1  0.00658890  0.12658172  0.15403417  1
  O  O193  1  0.00191962  0.11930059  0.41458340  1
  O  O194  1  0.00553462  0.12786285  0.66469200  1
  O  O195  1  0.00131745  0.12870817  0.91732074  1
  O  O196  1  -0.00503328  0.37344667  0.16166196  1
  O  O197  1  0.00038828  0.37155908  0.41699036  1
  O  O198  1  0.00228335  0.37469283  0.66814382  1
  O  O199  1  0.00184732  0.37551239  0.91192720  1
  O  O200  1  0.00561783  0.62383450  0.15901978  1
  O  O201  1  -0.00654193  0.63252872  0.41179602  1
  O  O202  1  -0.00522425  0.62107283  0.66188691  1
  O  O203  1  0.00090349  0.62191632  0.91783809  1
  O  O204  1  0.00176608  0.87612799  0.16135743  1
  O  O205  1  0.00212783  0.87812627  0.41503322  1
  O  O206  1  0.00045190  0.87471878  0.67088343  1
  O  O207  1  -0.00506645  0.87460366  0.91171260  1
  O  O208  1  0.25251459  0.12478428  0.16313019  1
  O  O209  1  0.24274984  0.11894791  0.41341781  1
  O  O210  1  0.24894726  0.12611509  0.66578206  1
  O  O211  1  0.24879061  0.12503435  0.91806169  1
  O  O212  1  0.25716418  0.37185259  0.16954797  1
  O  O213  1  0.24489382  0.36835337  0.40860560  1
  O  O214  1  0.24230203  0.37253242  0.66064214  1
  O  O215  1  0.25183577  0.37549126  0.91327923  1
  O  O216  1  0.24623818  0.62537035  0.16420162  1
  O  O217  1  0.24936423  0.63073589  0.41065457  1
  O  O218  1  0.25510021  0.62558365  0.66098513  1
  O  O219  1  0.24877421  0.62393587  0.92004008  1
  O  O220  1  0.25655399  0.88036941  0.15819934  1
  O  O221  1  0.24144016  0.88070447  0.41155265  1
  O  O222  1  0.25340464  0.87616527  0.66596346  1
  O  O223  1  0.24601543  0.87574556  0.90733916  1
  O  O224  1  0.50125068  0.12753009  0.16761032  1
  O  O225  1  0.49369865  0.11688628  0.40667451  1
  O  O226  1  0.49344007  0.12253931  0.65951480  1
  O  O227  1  0.50631682  0.13113730  0.91512718  1
  O  O228  1  0.49871009  0.37240457  0.17346063  1
  O  O229  1  0.49959335  0.37095645  0.40890721  1
  O  O230  1  0.49482107  0.37478087  0.66053445  1
  O  O231  1  0.49547507  0.37287968  0.91196140  1
  O  O232  1  0.50700244  0.62236434  0.16990817  1
  O  O233  1  0.49983197  0.63065179  0.40875261  1
  O  O234  1  0.49367894  0.62660976  0.65768509  1
  O  O235  1  0.50104053  0.62153583  0.91648072  1
  O  O236  1  0.49723831  0.87884544  0.16419996  1
  O  O237  1  0.50815053  0.87870948  0.41021165  1
  O  O238  1  0.50058203  0.87510103  0.66759538  1
  O  O239  1  0.50960358  0.87947089  0.91281239  1
  O  O240  1  0.74251052  0.12866530  0.16081433  1
  O  O241  1  0.76012916  0.11942573  0.41177177  1
  O  O242  1  0.74945316  0.12496941  0.66273667  1
  O  O243  1  0.74136503  0.13297462  0.91605733  1
  O  O244  1  0.75092446  0.37469849  0.16763930  1
  O  O245  1  0.75603974  0.37311360  0.41452437  1
  O  O246  1  0.76024469  0.37491118  0.65745917  1
  O  O247  1  0.75176725  0.37294488  0.90917275  1
  O  O248  1  0.74308385  0.62081500  0.16372640  1
  O  O249  1  0.75982590  0.63164096  0.41293143  1
  O  O250  1  0.75687270  0.62277724  0.66255648  1
  O  O251  1  0.74752945  0.62099389  0.91964671  1
  O  O252  1  0.74599540  0.87581666  0.16238645  1
  O  O253  1  0.75030279  0.87783441  0.41402706  1
  O  O254  1  0.74457096  0.87481203  0.66182844  1
  O  O255  1  0.74681197  0.87864472  0.91573091  1
  O  O256  1  0.13040231  0.12837743  0.04423172  1
  O  O257  1  0.12383316  0.12028512  0.29800156  1
  O  O258  1  0.12661476  0.12676926  0.55249448  1
  O  O259  1  0.12862391  0.13265354  0.78586569  1
  O  O260  1  0.13399726  0.37409909  0.04450715  1
  O  O261  1  0.11581549  0.37034373  0.27641046  1
  O  O262  1  0.12042029  0.37291508  0.54881692  1
  O  O263  1  0.12432850  0.37755287  0.80055356  1
  O  O264  1  0.12811395  0.62073127  0.04732065  1
  O  O265  1  0.13033611  0.63262377  0.28429605  1
  O  O266  1  0.12406732  0.62701845  0.53265523  1
  O  O267  1  0.12974172  0.61861588  0.78650403  1
  O  O268  1  0.11884325  0.87629165  0.03081845  1
  O  O269  1  0.12165891  0.87992929  0.29856919  1
  O  O270  1  0.12126323  0.87879146  0.53776311  1
  O  O271  1  0.12261062  0.87372690  0.79896088  1
  O  O272  1  0.37791970  0.12968134  0.04746622  1
  O  O273  1  0.37103456  0.11572785  0.29792120  1
  O  O274  1  0.37123773  0.12195810  0.54951182  1
  O  O275  1  0.36945265  0.12358997  0.78618954  1
  O  O276  1  0.37755365  0.37358185  0.05981383  1
  O  O277  1  0.37522895  0.36107108  0.28505120  1
  O  O278  1  0.37177614  0.36830040  0.52877516  1
  O  O279  1  0.37368351  0.37644035  0.79685064  1
  O  O280  1  0.38405369  0.62479993  0.04591532  1
  O  O281  1  0.37145424  0.63547684  0.27464370  1
  O  O282  1  0.37280019  0.63094884  0.54397555  1
  O  O283  1  0.36919207  0.62203100  0.78698256  1
  O  O284  1  0.38101819  0.87737356  0.04815828  1
  O  O285  1  0.37484670  0.88588507  0.28484883  1
  O  O286  1  0.37648768  0.87639956  0.55151427  1
  O  O287  1  0.38340267  0.87668587  0.78302480  1
  O  O288  1  0.61885353  0.13309203  0.05141897  1
  O  O289  1  0.63367096  0.12067067  0.28782409  1
  O  O290  1  0.62454308  0.11618000  0.53118255  1
  O  O291  1  0.62540133  0.12790069  0.79788743  1
  O  O292  1  0.62202078  0.37581808  0.05670283  1
  O  O293  1  0.63004781  0.37412617  0.28362111  1
  O  O294  1  0.62642874  0.37237492  0.53016720  1
  O  O295  1  0.62140902  0.37147632  0.79398717  1
  O  O296  1  0.62185111  0.61587185  0.05134174  1
  O  O297  1  0.62595672  0.62966600  0.28667069  1
  O  O298  1  0.63222254  0.63295998  0.53299389  1
  O  O299  1  0.63351211  0.62218024  0.78333365  1
  O  O300  1  0.62518612  0.88245518  0.03097533  1
  O  O301  1  0.62784626  0.87880003  0.29625187  1
  O  O302  1  0.62330735  0.87614588  0.54908401  1
  O  O303  1  0.62880325  0.87468911  0.80207628  1
  O  O304  1  0.87066646  0.13658188  0.02962441  1
  O  O305  1  0.87815828  0.11921672  0.29888209  1
  O  O306  1  0.87851976  0.12111674  0.53514500  1
  O  O307  1  0.87206054  0.13160632  0.79301146  1
  O  O308  1  0.87103408  0.37359953  0.05209573  1
  O  O309  1  0.88490458  0.37429691  0.28351592  1
  O  O310  1  0.88206510  0.37598973  0.54684972  1
  O  O311  1  0.87398583  0.37539458  0.79737820  1
  O  O312  1  0.86789856  0.61920314  0.03344009  1
  O  O313  1  0.87556307  0.62965101  0.29432310  1
  O  O314  1  0.87491176  0.62309439  0.54682778  1
  O  O315  1  0.86890981  0.62042266  0.79144699  1
  O  O316  1  0.87205951  0.87610197  0.03162439  1
  O  O317  1  0.87607409  0.87643069  0.29943924  1
  O  O318  1  0.88167910  0.87872960  0.53604937  1
  O  O319  1  0.87290139  0.87471002  0.80024193  1
