# generated using pymatgen
data_VFe(PbO3)2
_symmetry_space_group_name_H-M   'P 1'
_cell_length_a   15.38995420
_cell_length_b   15.37997919
_cell_length_c   18.49252430
_cell_angle_alpha   89.97190522
_cell_angle_beta   90.01322470
_cell_angle_gamma   89.99145716
_symmetry_Int_Tables_number   1
_chemical_formula_structural   VFe(PbO3)2
_chemical_formula_sum   'V32 Fe32 Pb64 O192'
_cell_volume   4377.12757328
_cell_formula_units_Z   32
loop_
 _symmetry_equiv_pos_site_id
 _symmetry_equiv_pos_as_xyz
  1  'x, y, z'
loop_
 _atom_site_type_symbol
 _atom_site_label
 _atom_site_symmetry_multiplicity
 _atom_site_fract_x
 _atom_site_fract_y
 _atom_site_fract_z
 _atom_site_occupancy
  V  V0  1  0.12235412  0.62171443  0.13578414  1
  V  V1  1  0.62276150  0.12364147  0.89048040  1
  V  V2  1  0.87734772  0.37343234  0.64204345  1
  V  V3  1  0.87223121  0.12293671  0.89301892  1
  V  V4  1  0.12604673  0.62507433  0.89112574  1
  V  V5  1  0.62577715  0.37475281  0.38651828  1
  V  V6  1  0.12527703  0.12402795  0.64241320  1
  V  V7  1  0.62705336  0.37762562  0.64129500  1
  V  V8  1  0.62618028  0.87755245  0.89426318  1
  V  V9  1  0.12917429  0.62530779  0.64240886  1
  V  V10  1  0.87480431  0.62554507  0.38839231  1
  V  V11  1  0.37351191  0.12356493  0.88848838  1
  V  V12  1  0.37753554  0.37368614  0.13599931  1
  V  V13  1  0.12552930  0.37318445  0.13893177  1
  V  V14  1  0.38061274  0.62790580  0.89397714  1
  V  V15  1  0.12268489  0.87220899  0.64223954  1
  V  V16  1  0.12431408  0.12148608  0.38512165  1
  V  V17  1  0.12325615  0.37659101  0.64486642  1
  V  V18  1  0.12910267  0.62786440  0.38671222  1
  V  V19  1  0.37383051  0.87192583  0.38534820  1
  V  V20  1  0.87472395  0.87506594  0.38851430  1
  V  V21  1  0.13120500  0.87588291  0.89992833  1
  V  V22  1  0.87448369  0.37530587  0.89005918  1
  V  V23  1  0.87521958  0.12634249  0.64116585  1
  V  V24  1  0.87557913  0.87534132  0.89297617  1
  V  V25  1  0.62500638  0.12928814  0.13918049  1
  V  V26  1  0.37844437  0.62431744  0.64121370  1
  V  V27  1  0.87349009  0.87526940  0.13524509  1
  V  V28  1  0.62245467  0.62461567  0.38886402  1
  V  V29  1  0.62972245  0.62643152  0.89387628  1
  V  V30  1  0.87745147  0.62371098  0.64323604  1
  V  V31  1  0.87332481  0.37491347  0.13602963  1
  Fe  Fe32  1  0.62614107  0.12559039  0.62965564  1
  Fe  Fe33  1  0.12290067  0.87437488  0.13025399  1
  Fe  Fe34  1  0.62606962  0.62368940  0.63653143  1
  Fe  Fe35  1  0.62536430  0.12382242  0.38939941  1
  Fe  Fe36  1  0.37544988  0.62569645  0.37699703  1
  Fe  Fe37  1  0.62781044  0.87196799  0.63160215  1
  Fe  Fe38  1  0.87706554  0.62451540  0.12794685  1
  Fe  Fe39  1  0.12374438  0.12731745  0.12800277  1
  Fe  Fe40  1  0.87750040  0.62806928  0.89616286  1
  Fe  Fe41  1  0.37154661  0.62249048  0.13803367  1
  Fe  Fe42  1  0.37440565  0.37708628  0.64177799  1
  Fe  Fe43  1  0.12314623  0.12341556  0.89446990  1
  Fe  Fe44  1  0.37911188  0.87437954  0.89638924  1
  Fe  Fe45  1  0.37343480  0.12550913  0.63285583  1
  Fe  Fe46  1  0.62450592  0.37348703  0.12655742  1
  Fe  Fe47  1  0.12560427  0.37519100  0.88462065  1
  Fe  Fe48  1  0.12369152  0.37458087  0.38303006  1
  Fe  Fe49  1  0.87973418  0.87624370  0.63573973  1
  Fe  Fe50  1  0.62513061  0.87202874  0.38256388  1
  Fe  Fe51  1  0.12421523  0.87323082  0.38170567  1
  Fe  Fe52  1  0.87622549  0.12591776  0.37881782  1
  Fe  Fe53  1  0.37453739  0.37789328  0.38417464  1
  Fe  Fe54  1  0.62629368  0.62046718  0.13066419  1
  Fe  Fe55  1  0.37455676  0.37533103  0.88285857  1
  Fe  Fe56  1  0.62516655  0.37296292  0.89880930  1
  Fe  Fe57  1  0.62582129  0.87540070  0.13777118  1
  Fe  Fe58  1  0.37527381  0.87599521  0.12768594  1
  Fe  Fe59  1  0.37317502  0.12492082  0.38248714  1
  Fe  Fe60  1  0.37285732  0.87349836  0.63659426  1
  Fe  Fe61  1  0.37371948  0.12607491  0.13829981  1
  Fe  Fe62  1  0.87442975  0.12455742  0.14060327  1
  Fe  Fe63  1  0.87361999  0.37725094  0.38320151  1
  Pb  Pb64  1  0.00567360  0.00144298  0.00779883  1
  Pb  Pb65  1  0.00282487  0.00293022  0.24196253  1
  Pb  Pb66  1  -0.00414027  -0.00580035  0.49730479  1
  Pb  Pb67  1  0.00872902  0.00608325  0.75700308  1
  Pb  Pb68  1  0.00132272  0.24216176  0.00114202  1
  Pb  Pb69  1  -0.00566892  0.25067996  0.24882259  1
  Pb  Pb70  1  -0.00134959  0.25079940  0.49214687  1
  Pb  Pb71  1  0.01107820  0.24734680  0.75860557  1
  Pb  Pb72  1  -0.00436409  0.50195744  0.00052139  1
  Pb  Pb73  1  -0.00041554  0.48999172  0.25152308  1
  Pb  Pb74  1  0.00132864  0.50032688  0.49646504  1
  Pb  Pb75  1  -0.00059226  0.50162537  0.75556173  1
  Pb  Pb76  1  0.00446571  0.75574289  0.00461151  1
  Pb  Pb77  1  0.00322745  0.75398988  0.24673022  1
  Pb  Pb78  1  -0.00554264  0.75289387  0.50171720  1
  Pb  Pb79  1  -0.00514085  0.74338327  0.75630580  1
  Pb  Pb80  1  0.26143201  0.00491437  0.00920142  1
  Pb  Pb81  1  0.24690758  -0.00036721  0.23657445  1
  Pb  Pb82  1  0.25828801  -0.00010455  0.49846030  1
  Pb  Pb83  1  0.25628727  -0.00165602  0.75251010  1
  Pb  Pb84  1  0.24588699  0.24866421  -0.00491757  1
  Pb  Pb85  1  0.25611282  0.24925660  0.25037488  1
  Pb  Pb86  1  0.25593157  0.25125184  0.49606258  1
  Pb  Pb87  1  0.24831574  0.25368672  0.75098552  1
  Pb  Pb88  1  0.25638259  0.50262757  0.00085698  1
  Pb  Pb89  1  0.25050976  0.49219990  0.25294872  1
  Pb  Pb90  1  0.25800542  0.49205112  0.49981104  1
  Pb  Pb91  1  0.25123686  0.49439319  0.75467385  1
  Pb  Pb92  1  0.25986090  0.74772224  0.00979312  1
  Pb  Pb93  1  0.25076029  0.75397734  0.24069582  1
  Pb  Pb94  1  0.25682484  0.75391609  0.49858271  1
  Pb  Pb95  1  0.25913562  0.75632922  0.75871623  1
  Pb  Pb96  1  0.49381647  -0.00001424  0.00720931  1
  Pb  Pb97  1  0.49775504  -0.00252264  0.24553680  1
  Pb  Pb98  1  0.50081760  0.00247802  0.49516992  1
  Pb  Pb99  1  0.49908304  -0.00203144  0.73934077  1
  Pb  Pb100  1  0.49846803  0.25330535  -0.00141198  1
  Pb  Pb101  1  0.50028341  0.23872036  0.25598118  1
  Pb  Pb102  1  0.49030811  0.24017547  0.49841407  1
  Pb  Pb103  1  0.49591153  0.24849016  0.74516563  1
  Pb  Pb104  1  0.50499757  0.50061474  0.00295316  1
  Pb  Pb105  1  0.49350152  0.50092433  0.24378096  1
  Pb  Pb106  1  0.49326433  0.49754188  0.49948741  1
  Pb  Pb107  1  0.50834738  0.48306743  0.76208035  1
  Pb  Pb108  1  0.51098955  0.75068931  0.01006336  1
  Pb  Pb109  1  0.49797576  0.74716895  0.23711547  1
  Pb  Pb110  1  0.50243854  0.75834584  0.50049103  1
  Pb  Pb111  1  0.50073285  0.75789355  0.74820340  1
  Pb  Pb112  1  0.75115698  0.00129037  0.00659002  1
  Pb  Pb113  1  0.73825821  -0.00007024  0.25405352  1
  Pb  Pb114  1  0.74143231  -0.00081377  0.49639927  1
  Pb  Pb115  1  0.74644449  -0.00433538  0.74331947  1
  Pb  Pb116  1  0.75694272  0.24402222  0.00523778  1
  Pb  Pb117  1  0.74896360  0.24013847  0.25403587  1
  Pb  Pb118  1  0.74979655  0.24414597  0.49475632  1
  Pb  Pb119  1  0.74549639  0.25642229  0.75306972  1
  Pb  Pb120  1  0.74934795  0.50418078  0.00334914  1
  Pb  Pb121  1  0.75061225  0.49781710  0.24001395  1
  Pb  Pb122  1  0.74470016  0.50576084  0.50134126  1
  Pb  Pb123  1  0.75310826  0.50132069  0.75658602  1
  Pb  Pb124  1  0.74343252  0.75305734  0.00741126  1
  Pb  Pb125  1  0.74369928  0.74938981  0.24349814  1
  Pb  Pb126  1  0.74324828  0.75088080  0.50411065  1
  Pb  Pb127  1  0.75242716  0.74833974  0.74733420  1
  O  O128  1  0.12054518  0.00010840  0.15502979  1
  O  O129  1  0.12400958  0.00216821  0.41075760  1
  O  O130  1  0.12296838  -0.00318873  0.66873304  1
  O  O131  1  0.11880226  -0.00706712  0.91675834  1
  O  O132  1  0.12333033  0.25796850  0.15855168  1
  O  O133  1  0.12351665  0.24253751  0.41008810  1
  O  O134  1  0.12241180  0.24979728  0.66849869  1
  O  O135  1  0.12314680  0.25079022  0.91447313  1
  O  O136  1  0.12273573  0.49864045  0.16226561  1
  O  O137  1  0.12088513  0.51222140  0.41399261  1
  O  O138  1  0.12396432  0.50237456  0.66967248  1
  O  O139  1  0.12411669  0.50726023  0.91059952  1
  O  O140  1  0.12120361  0.74183385  0.15652667  1
  O  O141  1  0.11976413  0.74381108  0.41538602  1
  O  O142  1  0.12251166  0.75344604  0.66630946  1
  O  O143  1  0.12271396  0.75183940  0.91917393  1
  O  O144  1  0.37550687  -0.00027067  0.16258745  1
  O  O145  1  0.37184363  -0.00824591  0.40835240  1
  O  O146  1  0.37069942  -0.00059228  0.66488443  1
  O  O147  1  0.37973873  0.00667354  0.91490384  1
  O  O148  1  0.37068363  0.25776407  0.16130883  1
  O  O149  1  0.37355431  0.25201760  0.41263568  1
  O  O150  1  0.37431648  0.25105429  0.66439246  1
  O  O151  1  0.37771095  0.24167483  0.90994795  1
  O  O152  1  0.36834318  0.49104330  0.16080392  1
  O  O153  1  0.37518472  0.50487135  0.41588715  1
  O  O154  1  0.37134910  0.50962178  0.66668734  1
  O  O155  1  0.37177793  0.50944128  0.91279728  1
  O  O156  1  0.37249135  0.75003121  0.15583907  1
  O  O157  1  0.37429370  0.75139034  0.41121979  1
  O  O158  1  0.37033035  0.74391104  0.66963484  1
  O  O159  1  0.37179187  0.74387637  0.91971539  1
  O  O160  1  0.62662364  0.00797962  0.16185830  1
  O  O161  1  0.62663821  -0.00461100  0.41127817  1
  O  O162  1  0.62935468  0.00015047  0.65966223  1
  O  O163  1  0.62769546  0.00519053  0.91763567  1
  O  O164  1  0.62515286  0.24848185  0.16122946  1
  O  O165  1  0.62491393  0.26002073  0.41036384  1
  O  O166  1  0.62919791  0.25826693  0.66292136  1
  O  O167  1  0.62651644  0.23989105  0.91538647  1
  O  O168  1  0.62620162  0.49458809  0.16008089  1
  O  O169  1  0.62996162  0.50406116  0.41405960  1
  O  O170  1  0.62959417  0.49583658  0.66943329  1
  O  O171  1  0.62297497  0.50835186  0.91452878  1
  O  O172  1  0.62785090  0.74661912  0.16098376  1
  O  O173  1  0.62920567  0.74302308  0.41182688  1
  O  O174  1  0.62836430  0.74693464  0.66746571  1
  O  O175  1  0.62586782  0.74846411  0.91679331  1
  O  O176  1  0.87486249  -0.00693310  0.16070383  1
  O  O177  1  0.87746970  -0.00693733  0.40672807  1
  O  O178  1  0.87857410  0.00932582  0.66340961  1
  O  O179  1  0.86999547  -0.00352119  0.91877125  1
  O  O180  1  0.87779430  0.25875420  0.16097691  1
  O  O181  1  0.87674192  0.25120727  0.41256184  1
  O  O182  1  0.87672106  0.24914084  0.66967760  1
  O  O183  1  0.87233252  0.25057816  0.91510784  1
  O  O184  1  0.87910120  0.49342556  0.15920274  1
  O  O185  1  0.87399462  0.50805724  0.41406747  1
  O  O186  1  0.87769840  0.49789432  0.67134914  1
  O  O187  1  0.87590115  0.49421138  0.91261901  1
  O  O188  1  0.87453256  0.75419985  0.15631606  1
  O  O189  1  0.87681109  0.74662923  0.41511280  1
  O  O190  1  0.88077016  0.74616723  0.66588509  1
  O  O191  1  0.87221165  0.75867142  0.91601632  1
  O  O192  1  0.00041188  0.12852672  0.16096445  1
  O  O193  1  0.00453808  0.12242405  0.41099150  1
  O  O194  1  -0.00161799  0.12698306  0.67036840  1
  O  O195  1  -0.00885235  0.12251560  0.91553963  1
  O  O196  1  0.00203572  0.37697345  0.16107378  1
  O  O197  1  0.00051590  0.37945666  0.41666871  1
  O  O198  1  -0.00126314  0.37571293  0.67027410  1
  O  O199  1  -0.00733523  0.37325227  0.91340597  1
  O  O200  1  0.00427829  0.62132167  0.16045164  1
  O  O201  1  -0.00552581  0.62618119  0.41390631  1
  O  O202  1  0.00306236  0.62399609  0.67150539  1
  O  O203  1  0.00837203  0.62874790  0.91691400  1
  O  O204  1  -0.00739358  0.87243608  0.15988759  1
  O  O205  1  -0.00370436  0.87144762  0.41559671  1
  O  O206  1  0.00649467  0.87626741  0.66908954  1
  O  O207  1  -0.00809439  0.87602805  0.91713223  1
  O  O208  1  0.24664612  0.12820290  0.16050601  1
  O  O209  1  0.24268932  0.12304932  0.41058951  1
  O  O210  1  0.24393198  0.12485524  0.66611398  1
  O  O211  1  0.25646121  0.12108138  0.90888989  1
  O  O212  1  0.24519675  0.37630059  0.16090321  1
  O  O213  1  0.24615109  0.37850710  0.41535246  1
  O  O214  1  0.24513336  0.37735788  0.66755071  1
  O  O215  1  0.25129368  0.37505659  0.91288537  1
  O  O216  1  0.23826009  0.62080341  0.16247961  1
  O  O217  1  0.24448972  0.62871477  0.40436925  1
  O  O218  1  0.24892992  0.62681425  0.67020612  1
  O  O219  1  0.24419579  0.62936885  0.91549954  1
  O  O220  1  0.24789112  0.87311350  0.15437924  1
  O  O221  1  0.25250684  0.87027138  0.41073464  1
  O  O222  1  0.24050161  0.87402430  0.66915840  1
  O  O223  1  0.24571390  0.87615153  0.91458565  1
  O  O224  1  0.50582268  0.12877359  0.16286584  1
  O  O225  1  0.49817579  0.12395080  0.41305678  1
  O  O226  1  0.50201712  0.12658620  0.66063086  1
  O  O227  1  0.50392458  0.12339246  0.91251803  1
  O  O228  1  0.49318076  0.37562609  0.15191352  1
  O  O229  1  0.50889813  0.38292292  0.41264733  1
  O  O230  1  0.50828142  0.37904087  0.66298392  1
  O  O231  1  0.49605307  0.37584992  0.91673785  1
  O  O232  1  0.49917843  0.61967643  0.15786462  1
  O  O233  1  0.50687548  0.62482015  0.40718011  1
  O  O234  1  0.49346098  0.62721435  0.66130975  1
  O  O235  1  0.49859457  0.62852512  0.91337147  1
  O  O236  1  0.50006494  0.87626376  0.15793176  1
  O  O237  1  0.49357288  0.87077171  0.40819610  1
  O  O238  1  0.49996266  0.87158257  0.66151373  1
  O  O239  1  0.50741705  0.87487053  0.91701868  1
  O  O240  1  0.74427193  0.12840264  0.16445531  1
  O  O241  1  0.75340135  0.12477504  0.41315812  1
  O  O242  1  0.75772431  0.12945336  0.66249840  1
  O  O243  1  0.74768762  0.12376640  0.91833154  1
  O  O244  1  0.75586979  0.37549870  0.15179662  1
  O  O245  1  0.74383678  0.37980867  0.41297283  1
  O  O246  1  0.75135139  0.37634537  0.67039777  1
  O  O247  1  0.75804694  0.37493785  0.91698268  1
  O  O248  1  0.75423745  0.62011829  0.15817029  1
  O  O249  1  0.75405085  0.62658655  0.41367675  1
  O  O250  1  0.75643586  0.62176541  0.66830227  1
  O  O251  1  0.74591457  0.62558666  0.91203970  1
  O  O252  1  0.75666984  0.87588342  0.16371486  1
  O  O253  1  0.75849522  0.86964419  0.40953912  1
  O  O254  1  0.75551729  0.87429723  0.66440491  1
  O  O255  1  0.75082168  0.87631336  0.91907794  1
  O  O256  1  0.12091602  0.12782180  0.02551073  1
  O  O257  1  0.12326687  0.12171527  0.29413182  1
  O  O258  1  0.12238345  0.12258714  0.55175693  1
  O  O259  1  0.11646540  0.12245562  0.79305304  1
  O  O260  1  0.12506290  0.37658018  0.04743722  1
  O  O261  1  0.12251889  0.38211681  0.28344601  1
  O  O262  1  0.12135219  0.37673564  0.55369585  1
  O  O263  1  0.12504080  0.37346355  0.78444625  1
  O  O264  1  0.12334021  0.61886377  0.04433200  1
  O  O265  1  0.12133282  0.62845473  0.29569208  1
  O  O266  1  0.12797194  0.62534929  0.55157087  1
  O  O267  1  0.12479185  0.63001350  0.79986370  1
  O  O268  1  0.11410376  0.87311524  0.02888082  1
  O  O269  1  0.11811927  0.86745968  0.28266184  1
  O  O270  1  0.12371762  0.87470066  0.55110081  1
  O  O271  1  0.12211201  0.87330898  0.80857364  1
  O  O272  1  0.37703493  0.11839920  0.03694321  1
  O  O273  1  0.37758194  0.13371342  0.28162250  1
  O  O274  1  0.37060181  0.12354735  0.53183255  1
  O  O275  1  0.37734429  0.12173173  0.79712164  1
  O  O276  1  0.36991511  0.37376012  0.04426431  1
  O  O277  1  0.37026239  0.37810956  0.28414342  1
  O  O278  1  0.37364671  0.38582392  0.54109638  1
  O  O279  1  0.37886773  0.38097272  0.78151902  1
  O  O280  1  0.36221345  0.62128744  0.03648765  1
  O  O281  1  0.37580462  0.61997991  0.27726127  1
  O  O282  1  0.37305426  0.62770530  0.54974670  1
  O  O283  1  0.37529508  0.63088217  0.80301613  1
  O  O284  1  0.37354303  0.88379931  0.02470557  1
  O  O285  1  0.37201859  0.87073218  0.29440276  1
  O  O286  1  0.36803083  0.86781592  0.53670150  1
  O  O287  1  0.37173606  0.86992336  0.79547224  1
  O  O288  1  0.62620421  0.12830800  0.04772835  1
  O  O289  1  0.62679020  0.13278370  0.28788711  1
  O  O290  1  0.62952536  0.12589284  0.52914415  1
  O  O291  1  0.62614473  0.12325205  0.79961237  1
  O  O292  1  0.62097761  0.37657034  0.02513978  1
  O  O293  1  0.62535890  0.37705283  0.29547621  1
  O  O294  1  0.63202906  0.38154619  0.55076145  1
  O  O295  1  0.62517362  0.37718843  0.79708201  1
  O  O296  1  0.62389822  0.62730463  0.02910781  1
  O  O297  1  0.62867573  0.62192582  0.29797519  1
  O  O298  1  0.63282189  0.62353557  0.53684578  1
  O  O299  1  0.62532319  0.62748353  0.80259215  1
  O  O300  1  0.63109669  0.86843959  0.03625956  1
  O  O301  1  0.63272152  0.87544358  0.28188752  1
  O  O302  1  0.62694025  0.86403203  0.53043806  1
  O  O303  1  0.62970036  0.87813372  0.80282712  1
  O  O304  1  0.86639940  0.12824507  0.03930702  1
  O  O305  1  0.87388326  0.13241960  0.27818375  1
  O  O306  1  0.87929331  0.12940187  0.55032975  1
  O  O307  1  0.87008457  0.12282729  0.80199704  1
  O  O308  1  0.88042128  0.37524920  0.04446123  1
  O  O309  1  0.87903206  0.37869962  0.28375059  1
  O  O310  1  0.87483457  0.37510633  0.55135921  1
  O  O311  1  0.87189140  0.37283034  0.79843935  1
  O  O312  1  0.87683803  0.61604189  0.02637154  1
  O  O313  1  0.87497796  0.62596050  0.29765244  1
  O  O314  1  0.87837298  0.62190606  0.55201073  1
  O  O315  1  0.88291810  0.62729830  0.79566419  1
  O  O316  1  0.87131139  0.87717499  0.04357323  1
  O  O317  1  0.87930535  0.86891231  0.29777172  1
  O  O318  1  0.88481504  0.87598561  0.53623238  1
  O  O319  1  0.87538271  0.87792204  0.80175899  1
