# generated using pymatgen
data_VFe(PbO3)2
_symmetry_space_group_name_H-M   'P 1'
_cell_length_a   15.38570521
_cell_length_b   15.37761175
_cell_length_c   18.51009976
_cell_angle_alpha   89.96509347
_cell_angle_beta   90.00366352
_cell_angle_gamma   90.00182330
_symmetry_Int_Tables_number   1
_chemical_formula_structural   VFe(PbO3)2
_chemical_formula_sum   'V32 Fe32 Pb64 O192'
_cell_volume   4379.40365527
_cell_formula_units_Z   32
loop_
 _symmetry_equiv_pos_site_id
 _symmetry_equiv_pos_as_xyz
  1  'x, y, z'
loop_
 _atom_site_type_symbol
 _atom_site_label
 _atom_site_symmetry_multiplicity
 _atom_site_fract_x
 _atom_site_fract_y
 _atom_site_fract_z
 _atom_site_occupancy
  V  V0  1  0.12398561  0.87273035  0.63884556  1
  V  V1  1  0.87467974  0.12513770  0.88834865  1
  V  V2  1  0.62761671  0.12223542  0.63324823  1
  V  V3  1  0.37797534  0.87701655  0.14132159  1
  V  V4  1  0.62527245  0.62656290  0.88680900  1
  V  V5  1  0.12367284  0.37431464  0.39566654  1
  V  V6  1  0.62319064  0.37470381  0.13853500  1
  V  V7  1  0.87441703  0.62473095  0.64162034  1
  V  V8  1  0.12613659  0.61958140  0.89304384  1
  V  V9  1  0.62307375  0.12340067  0.88439309  1
  V  V10  1  0.87401087  0.12432150  0.39333609  1
  V  V11  1  0.12447067  0.87430268  0.38889055  1
  V  V12  1  0.87716694  0.87320246  0.39239421  1
  V  V13  1  0.62530056  0.62260378  0.39384241  1
  V  V14  1  0.37799586  0.87136377  0.39787196  1
  V  V15  1  0.12374850  0.12177601  0.88367788  1
  V  V16  1  0.12859674  0.12573533  0.13982521  1
  V  V17  1  0.12394483  0.62499516  0.64218636  1
  V  V18  1  0.12599087  0.12340992  0.39991663  1
  V  V19  1  0.37979523  0.62640492  0.64008886  1
  V  V20  1  0.12546629  0.87391613  0.89105746  1
  V  V21  1  0.62540961  0.37730242  0.63924644  1
  V  V22  1  0.12422777  0.62432364  0.39001407  1
  V  V23  1  0.62288499  0.87498592  0.13887944  1
  V  V24  1  0.37928051  0.87610036  0.88474380  1
  V  V25  1  0.37820913  0.62423881  0.14090393  1
  V  V26  1  0.37552468  0.37320050  0.14021624  1
  V  V27  1  0.12450386  0.36851612  0.88835291  1
  V  V28  1  0.87586321  0.62528393  0.38660726  1
  V  V29  1  0.87541479  0.37596440  0.39181299  1
  V  V30  1  0.62820936  0.87557342  0.39421002  1
  V  V31  1  0.37580982  0.37669573  0.39533783  1
  Fe  Fe32  1  0.87668889  0.62583622  0.89437847  1
  Fe  Fe33  1  0.37137925  0.12325337  0.88126020  1
  Fe  Fe34  1  0.12104891  0.12519496  0.63062920  1
  Fe  Fe35  1  0.87693866  0.87285045  0.63363229  1
  Fe  Fe36  1  0.62150195  0.62638688  0.13327204  1
  Fe  Fe37  1  0.12851518  0.62464035  0.13014318  1
  Fe  Fe38  1  0.12327082  0.37876562  0.63284533  1
  Fe  Fe39  1  0.37500818  0.12425485  0.62849964  1
  Fe  Fe40  1  0.62648378  0.37469177  0.38645765  1
  Fe  Fe41  1  0.62448993  0.37251408  0.88256972  1
  Fe  Fe42  1  0.87641672  0.37141278  0.12930227  1
  Fe  Fe43  1  0.13123792  0.87680987  0.13428626  1
  Fe  Fe44  1  0.87302362  0.12486490  0.63345869  1
  Fe  Fe45  1  0.62641441  0.12505530  0.38828557  1
  Fe  Fe46  1  0.37366838  0.37777380  0.63779204  1
  Fe  Fe47  1  0.37711104  0.12608806  0.13758293  1
  Fe  Fe48  1  0.37283166  0.87136509  0.63168811  1
  Fe  Fe49  1  0.87609034  0.87898431  0.12962627  1
  Fe  Fe50  1  0.87313703  0.12601009  0.13431903  1
  Fe  Fe51  1  0.87289407  0.62488511  0.12693473  1
  Fe  Fe52  1  0.62028902  0.12431280  0.13906622  1
  Fe  Fe53  1  0.37282649  0.62675458  0.88164151  1
  Fe  Fe54  1  0.37344460  0.62569670  0.38759506  1
  Fe  Fe55  1  0.37353453  0.12501644  0.40012844  1
  Fe  Fe56  1  0.62530100  0.87736168  0.88130716  1
  Fe  Fe57  1  0.87430212  0.87720626  0.89172031  1
  Fe  Fe58  1  0.87289223  0.37447310  0.89212464  1
  Fe  Fe59  1  0.37573120  0.37555797  0.87898718  1
  Fe  Fe60  1  0.62566185  0.87108185  0.63561430  1
  Fe  Fe61  1  0.62886505  0.62287457  0.63433696  1
  Fe  Fe62  1  0.87468390  0.37691686  0.63295325  1
  Fe  Fe63  1  0.13130981  0.37328180  0.13310815  1
  Pb  Pb64  1  -0.00323400  -0.00085022  0.00334655  1
  Pb  Pb65  1  -0.00002332  -0.00249248  0.24462329  1
  Pb  Pb66  1  -0.00258876  0.00544280  0.50650478  1
  Pb  Pb67  1  -0.00830013  -0.00457463  0.74639987  1
  Pb  Pb68  1  -0.00606848  0.24960876  0.00305061  1
  Pb  Pb69  1  -0.00091169  0.25365781  0.24526075  1
  Pb  Pb70  1  -0.00072473  0.24302504  0.50776918  1
  Pb  Pb71  1  -0.00226797  0.25290950  0.73819414  1
  Pb  Pb72  1  -0.00619389  0.49784237  0.00335812  1
  Pb  Pb73  1  0.00084556  0.50009465  0.23558980  1
  Pb  Pb74  1  -0.00170520  0.49242582  0.50320235  1
  Pb  Pb75  1  -0.01270889  0.49825281  0.75589353  1
  Pb  Pb76  1  -0.00487095  0.75179853  0.00265299  1
  Pb  Pb77  1  0.00146348  0.74985855  0.23538035  1
  Pb  Pb78  1  -0.00484236  0.75201733  0.50065514  1
  Pb  Pb79  1  -0.01079641  0.74462887  0.75790903  1
  Pb  Pb80  1  0.24796346  -0.00243231  -0.00131047  1
  Pb  Pb81  1  0.25835950  0.00612762  0.25609710  1
  Pb  Pb82  1  0.25446214  -0.00132780  0.50718891  1
  Pb  Pb83  1  0.25630373  0.00852215  0.74294899  1
  Pb  Pb84  1  0.25135310  0.25198754  -0.00591810  1
  Pb  Pb85  1  0.25825142  0.24309583  0.25659551  1
  Pb  Pb86  1  0.24754198  0.25860589  0.50929431  1
  Pb  Pb87  1  0.25337035  0.24955446  0.73726064  1
  Pb  Pb88  1  0.24497483  0.49947980  -0.00055158  1
  Pb  Pb89  1  0.25238105  0.50321916  0.24901193  1
  Pb  Pb90  1  0.24924552  0.49355545  0.50736096  1
  Pb  Pb91  1  0.25605620  0.49836753  0.75118027  1
  Pb  Pb92  1  0.24319484  0.75195648  0.00187009  1
  Pb  Pb93  1  0.25271478  0.74616345  0.24931592  1
  Pb  Pb94  1  0.25161999  0.75302697  0.50286543  1
  Pb  Pb95  1  0.25242315  0.74346010  0.75275590  1
  Pb  Pb96  1  0.50078872  0.01470554  0.00254146  1
  Pb  Pb97  1  0.49962919  0.01149312  0.25897890  1
  Pb  Pb98  1  0.49726172  0.00046338  0.50290292  1
  Pb  Pb99  1  0.49497539  0.00118951  0.74081843  1
  Pb  Pb100  1  0.49476629  0.24405586  -0.00608820  1
  Pb  Pb101  1  0.50601454  0.24598701  0.25750074  1
  Pb  Pb102  1  0.50025688  0.24539100  0.49955856  1
  Pb  Pb103  1  0.49474208  0.25190232  0.74464997  1
  Pb  Pb104  1  0.49809285  0.50037806  -0.00963021  1
  Pb  Pb105  1  0.50424180  0.49430306  0.25357363  1
  Pb  Pb106  1  0.49459599  0.49804387  0.50350424  1
  Pb  Pb107  1  0.49985297  0.49138252  0.75329457  1
  Pb  Pb108  1  0.50583667  0.74528558  -0.00283913  1
  Pb  Pb109  1  0.49513311  0.74566120  0.25461487  1
  Pb  Pb110  1  0.51248264  0.74931179  0.50778180  1
  Pb  Pb111  1  0.50786228  0.75461877  0.74652650  1
  Pb  Pb112  1  0.75350576  0.00067315  -0.00058597  1
  Pb  Pb113  1  0.74781566  0.00551468  0.24680695  1
  Pb  Pb114  1  0.75624425  -0.00814676  0.50432365  1
  Pb  Pb115  1  0.75416452  -0.01442427  0.74906581  1
  Pb  Pb116  1  0.75177467  0.24712480  -0.00063450  1
  Pb  Pb117  1  0.74462376  0.24821290  0.24784458  1
  Pb  Pb118  1  0.75559306  0.25135242  0.50027004  1
  Pb  Pb119  1  0.75081734  0.25788245  0.74789771  1
  Pb  Pb120  1  0.75263509  0.49972651  -0.00301619  1
  Pb  Pb121  1  0.75062828  0.49819810  0.24140096  1
  Pb  Pb122  1  0.75313138  0.49983267  0.50147126  1
  Pb  Pb123  1  0.75318363  0.49232689  0.75678661  1
  Pb  Pb124  1  0.75304249  0.75124595  -0.00347615  1
  Pb  Pb125  1  0.75356294  0.74807055  0.24127313  1
  Pb  Pb126  1  0.74557225  0.75078106  0.50601277  1
  Pb  Pb127  1  0.75042896  0.75476059  0.75125499  1
  O  O128  1  0.13145015  0.00749091  0.16685065  1
  O  O129  1  0.12224508  0.00106966  0.41670107  1
  O  O130  1  0.12190893  -0.01104710  0.65596445  1
  O  O131  1  0.12536248  0.00135339  0.91282094  1
  O  O132  1  0.13172174  0.24325371  0.16713179  1
  O  O133  1  0.12308353  0.24841404  0.41926149  1
  O  O134  1  0.12421276  0.25150576  0.65776918  1
  O  O135  1  0.12528185  0.24959518  0.90844173  1
  O  O136  1  0.13090780  0.49919879  0.16395510  1
  O  O137  1  0.12228222  0.50530117  0.41405041  1
  O  O138  1  0.12213897  0.51030455  0.66605911  1
  O  O139  1  0.12786217  0.50032615  0.90920645  1
  O  O140  1  0.13072967  0.75039788  0.16243278  1
  O  O141  1  0.12132737  0.74723034  0.41416736  1
  O  O142  1  0.12152553  0.74483046  0.67005373  1
  O  O143  1  0.12751059  0.75530444  0.91219879  1
  O  O144  1  0.37726591  -0.00573213  0.16688680  1
  O  O145  1  0.37103112  -0.00972290  0.41783025  1
  O  O146  1  0.37509894  -0.00228950  0.65794688  1
  O  O147  1  0.37090403  -0.00704156  0.91150449  1
  O  O148  1  0.37716981  0.25656682  0.16665486  1
  O  O149  1  0.37112528  0.25869766  0.41784358  1
  O  O150  1  0.37627358  0.24942062  0.65518148  1
  O  O151  1  0.37270573  0.24884423  0.90827965  1
  O  O152  1  0.37720764  0.49627930  0.16498026  1
  O  O153  1  0.37297610  0.49883537  0.41716324  1
  O  O154  1  0.37201577  0.50953436  0.66345700  1
  O  O155  1  0.37214631  0.50155583  0.91101715  1
  O  O156  1  0.37764854  0.75242022  0.16667739  1
  O  O157  1  0.37108558  0.75226654  0.41801878  1
  O  O158  1  0.36889676  0.74372839  0.66289235  1
  O  O159  1  0.36938279  0.75978733  0.91118507  1
  O  O160  1  0.61800382  -0.00936115  0.16667138  1
  O  O161  1  0.62668624  -0.00515858  0.41740443  1
  O  O162  1  0.62436510  0.00585588  0.65109261  1
  O  O163  1  0.62631192  0.00746238  0.91127619  1
  O  O164  1  0.61861880  0.25698051  0.16469428  1
  O  O165  1  0.62636065  0.25112074  0.41739843  1
  O  O166  1  0.62490470  0.25489749  0.65972727  1
  O  O167  1  0.62617069  0.23941482  0.90981944  1
  O  O168  1  0.62095101  0.49429022  0.16271197  1
  O  O169  1  0.62658203  0.50507964  0.41472477  1
  O  O170  1  0.62497685  0.49641363  0.66281770  1
  O  O171  1  0.62272665  0.50764581  0.90916488  1
  O  O172  1  0.62040210  0.75758350  0.16610721  1
  O  O173  1  0.62722241  0.74767478  0.41774025  1
  O  O174  1  0.62739034  0.74467696  0.66719387  1
  O  O175  1  0.62289169  0.74789143  0.91093775  1
  O  O176  1  0.87482313  0.00154948  0.16657652  1
  O  O177  1  0.87730789  0.00193060  0.41497159  1
  O  O178  1  0.87488591  -0.00141477  0.66223947  1
  O  O179  1  0.87881670  0.00888186  0.91456262  1
  O  O180  1  0.87479801  0.24942766  0.16741580  1
  O  O181  1  0.87659229  0.24686476  0.41370574  1
  O  O182  1  0.87091441  0.25123074  0.66028907  1
  O  O183  1  0.87802317  0.24259118  0.91243295  1
  O  O184  1  0.87217631  0.49698687  0.15745512  1
  O  O185  1  0.87590038  0.50352457  0.41506584  1
  O  O186  1  0.87647768  0.50586066  0.66563432  1
  O  O187  1  0.87746867  0.49954178  0.91762148  1
  O  O188  1  0.87263158  0.75317343  0.15806610  1
  O  O189  1  0.87753966  0.74808492  0.41549730  1
  O  O190  1  0.87814633  0.74396265  0.66463053  1
  O  O191  1  0.87880625  0.75226361  0.91529357  1
  O  O192  1  0.01002917  0.12557072  0.16272825  1
  O  O193  1  -0.00224740  0.12510922  0.41737085  1
  O  O194  1  -0.00147725  0.12363435  0.66405739  1
  O  O195  1  0.00264406  0.12558333  0.91181692  1
  O  O196  1  0.00375877  0.37142532  0.16060295  1
  O  O197  1  -0.00093740  0.37626964  0.41789188  1
  O  O198  1  -0.00073466  0.37930273  0.66051987  1
  O  O199  1  0.00900589  0.37503634  0.91347571  1
  O  O200  1  0.00011324  0.62479499  0.15607826  1
  O  O201  1  0.00141642  0.62538020  0.41542309  1
  O  O202  1  -0.00085741  0.62599629  0.66850752  1
  O  O203  1  0.01105475  0.62723131  0.91731154  1
  O  O204  1  0.00358604  0.87894095  0.16051668  1
  O  O205  1  0.00186805  0.87453091  0.41725170  1
  O  O206  1  0.00602969  0.86828446  0.66469428  1
  O  O207  1  0.00877053  0.87874417  0.91412167  1
  O  O208  1  0.25036344  0.12515087  0.16909431  1
  O  O209  1  0.24199621  0.12485009  0.41999149  1
  O  O210  1  0.24747746  0.12153845  0.65412302  1
  O  O211  1  0.24176702  0.12377262  0.90990925  1
  O  O212  1  0.25975672  0.37465818  0.16754795  1
  O  O213  1  0.25024025  0.37788962  0.41893398  1
  O  O214  1  0.24758936  0.38086014  0.66263176  1
  O  O215  1  0.24340691  0.37445459  0.91028970  1
  O  O216  1  0.25739445  0.62475090  0.16621382  1
  O  O217  1  0.24093737  0.62648968  0.41363990  1
  O  O218  1  0.24397682  0.62680813  0.66328599  1
  O  O219  1  0.24468290  0.62928360  0.91362698  1
  O  O220  1  0.26084628  0.87490939  0.16694995  1
  O  O221  1  0.24550442  0.87283007  0.41742164  1
  O  O222  1  0.24098333  0.86790657  0.66234421  1
  O  O223  1  0.24744751  0.87842054  0.91390915  1
  O  O224  1  0.49769396  0.12456161  0.17370196  1
  O  O225  1  0.50070896  0.12274182  0.41671419  1
  O  O226  1  0.50882519  0.12793294  0.65800452  1
  O  O227  1  0.50347206  0.12223348  0.90589942  1
  O  O228  1  0.49661504  0.37648323  0.16683756  1
  O  O229  1  0.49454997  0.37865691  0.41577776  1
  O  O230  1  0.50490814  0.37848493  0.66112031  1
  O  O231  1  0.50073348  0.37474813  0.91127887  1
  O  O232  1  0.49797987  0.62536279  0.16964967  1
  O  O233  1  0.50573821  0.62670505  0.41363200  1
  O  O234  1  0.49511892  0.62645004  0.65685277  1
  O  O235  1  0.50174565  0.62941684  0.90967040  1
  O  O236  1  0.49618748  0.87332956  0.17001059  1
  O  O237  1  0.49719698  0.87158567  0.41506317  1
  O  O238  1  0.49839668  0.87003411  0.65855607  1
  O  O239  1  0.49431250  0.87584907  0.90424331  1
  O  O240  1  0.74603221  0.12469586  0.16509986  1
  O  O241  1  0.75722562  0.12335936  0.41424812  1
  O  O242  1  0.74115073  0.12883722  0.66102643  1
  O  O243  1  0.75339170  0.12447339  0.90841173  1
  O  O244  1  0.74135154  0.37293108  0.15752974  1
  O  O245  1  0.75436930  0.37713169  0.41474269  1
  O  O246  1  0.74526983  0.37842589  0.66321144  1
  O  O247  1  0.74626167  0.37217006  0.91755401  1
  O  O248  1  0.74621789  0.62566492  0.16253654  1
  O  O249  1  0.75052552  0.62629944  0.41454300  1
  O  O250  1  0.75831245  0.62413679  0.66133763  1
  O  O251  1  0.74263723  0.62712768  0.91004630  1
  O  O252  1  0.74083796  0.87683824  0.15836117  1
  O  O253  1  0.75329864  0.87378468  0.41645011  1
  O  O254  1  0.75160694  0.87223622  0.66245546  1
  O  O255  1  0.74731029  0.87939548  0.91542420  1
  O  O256  1  0.13103442  0.12577213  0.04888535  1
  O  O257  1  0.12385861  0.12570608  0.30876192  1
  O  O258  1  0.11133708  0.12387002  0.52980245  1
  O  O259  1  0.12374234  0.12090679  0.79290994  1
  O  O260  1  0.13681145  0.37320477  0.03388555  1
  O  O261  1  0.12734022  0.37332959  0.30485590  1
  O  O262  1  0.12895336  0.38289965  0.53101944  1
  O  O263  1  0.12364973  0.37234260  0.79763417  1
  O  O264  1  0.13628482  0.62428915  0.03055749  1
  O  O265  1  0.12345156  0.62472069  0.29920355  1
  O  O266  1  0.12091121  0.62732422  0.55118829  1
  O  O267  1  0.12488323  0.62555438  0.80179393  1
  O  O268  1  0.13572252  0.87951324  0.03473211  1
  O  O269  1  0.12539804  0.87613393  0.29820360  1
  O  O270  1  0.12292556  0.86515426  0.54742619  1
  O  O271  1  0.12653318  0.87562806  0.80041349  1
  O  O272  1  0.38437708  0.12412731  0.03762431  1
  O  O273  1  0.36633072  0.12289402  0.29791201  1
  O  O274  1  0.37744587  0.11830792  0.52635427  1
  O  O275  1  0.37380893  0.11612847  0.78133081  1
  O  O276  1  0.37490136  0.37273708  0.04930073  1
  O  O277  1  0.37403703  0.37686462  0.30407967  1
  O  O278  1  0.37125883  0.38634943  0.53670088  1
  O  O279  1  0.37865727  0.37998741  0.77756797  1
  O  O280  1  0.37812024  0.62654143  0.04972605  1
  O  O281  1  0.37286073  0.62896729  0.28849440  1
  O  O282  1  0.37318258  0.62580387  0.54824769  1
  O  O283  1  0.36774257  0.62765380  0.78235479  1
  O  O284  1  0.37953955  0.87627551  0.05067321  1
  O  O285  1  0.37440773  0.87178773  0.30657408  1
  O  O286  1  0.36573642  0.87189902  0.53160568  1
  O  O287  1  0.37284699  0.87694403  0.79321190  1
  O  O288  1  0.61305777  0.12161997  0.03905641  1
  O  O289  1  0.62396710  0.12516909  0.28736083  1
  O  O290  1  0.62850146  0.12857429  0.54188416  1
  O  O291  1  0.62602615  0.12274155  0.79376483  1
  O  O292  1  0.61825748  0.37384566  0.04799570  1
  O  O293  1  0.62076617  0.37722767  0.28704055  1
  O  O294  1  0.62685773  0.37839223  0.54773156  1
  O  O295  1  0.62710598  0.37680420  0.78246504  1
  O  O296  1  0.61674485  0.63092204  0.03460691  1
  O  O297  1  0.62734657  0.62544887  0.30272736  1
  O  O298  1  0.62864407  0.63036191  0.53439830  1
  O  O299  1  0.62435140  0.62730118  0.79547938  1
  O  O300  1  0.61689602  0.87451322  0.04795222  1
  O  O301  1  0.62673784  0.87262862  0.30338998  1
  O  O302  1  0.62878572  0.86332029  0.53355075  1
  O  O303  1  0.62955063  0.87288283  0.78113225  1
  O  O304  1  0.87781437  0.12836836  0.03429819  1
  O  O305  1  0.87638532  0.12365311  0.30237796  1
  O  O306  1  0.87765502  0.12382997  0.53282211  1
  O  O307  1  0.87565930  0.12352514  0.79751206  1
  O  O308  1  0.87859792  0.36616808  0.02841051  1
  O  O309  1  0.87690623  0.37546263  0.30077319  1
  O  O310  1  0.87103230  0.38288373  0.53242110  1
  O  O311  1  0.86840843  0.38089305  0.79033504  1
  O  O312  1  0.87421963  0.62626760  0.02605889  1
  O  O313  1  0.87480619  0.62591639  0.29601528  1
  O  O314  1  0.87977588  0.62428308  0.55024654  1
  O  O315  1  0.88431884  0.62346615  0.79289594  1
  O  O316  1  0.87783913  0.88524973  0.02890511  1
  O  O317  1  0.87639714  0.87459856  0.30158628  1
  O  O318  1  0.87648143  0.87384557  0.53311648  1
  O  O319  1  0.87389732  0.88200003  0.78992761  1
