# generated using pymatgen
data_VFe(PbO3)2
_symmetry_space_group_name_H-M   'P 1'
_cell_length_a   15.38200797
_cell_length_b   15.38543913
_cell_length_c   18.52674573
_cell_angle_alpha   90.01495294
_cell_angle_beta   90.01846533
_cell_angle_gamma   89.99457060
_symmetry_Int_Tables_number   1
_chemical_formula_structural   VFe(PbO3)2
_chemical_formula_sum   'V32 Fe32 Pb64 O192'
_cell_volume   4384.51974474
_cell_formula_units_Z   32
loop_
 _symmetry_equiv_pos_site_id
 _symmetry_equiv_pos_as_xyz
  1  'x, y, z'
loop_
 _atom_site_type_symbol
 _atom_site_label
 _atom_site_symmetry_multiplicity
 _atom_site_fract_x
 _atom_site_fract_y
 _atom_site_fract_z
 _atom_site_occupancy
  V  V0  1  0.62546310  0.37854621  0.64048550  1
  V  V1  1  0.12271252  0.37457642  0.39092932  1
  V  V2  1  0.37409217  0.38301945  0.13286594  1
  V  V3  1  0.87435335  0.62636441  0.64103587  1
  V  V4  1  0.37162664  0.62679513  0.39117040  1
  V  V5  1  0.62763507  0.63153084  0.88788985  1
  V  V6  1  0.37459215  0.37258672  0.65329693  1
  V  V7  1  0.87539146  0.62405162  0.13888901  1
  V  V8  1  0.37450255  0.12796332  0.88558917  1
  V  V9  1  0.87492814  0.37009368  0.13744597  1
  V  V10  1  0.62456831  0.87624681  0.14116708  1
  V  V11  1  0.37510606  0.12430377  0.64029438  1
  V  V12  1  0.62539729  0.87780913  0.38794881  1
  V  V13  1  0.62524720  0.87367544  0.63975632  1
  V  V14  1  0.87500053  0.37342804  0.64801640  1
  V  V15  1  0.62393461  0.37604997  0.88740771  1
  V  V16  1  0.37456916  0.87349239  0.14199958  1
  V  V17  1  0.62472994  0.12716099  0.63994919  1
  V  V18  1  0.87667024  0.12623584  0.38844280  1
  V  V19  1  0.12449846  0.37730325  0.65089721  1
  V  V20  1  0.12482254  0.12311057  0.13609727  1
  V  V21  1  0.37638391  0.62690891  0.64378835  1
  V  V22  1  0.12524583  0.87490460  0.64218074  1
  V  V23  1  0.12552060  0.12560238  0.64497154  1
  V  V24  1  0.37652105  0.12759533  0.13893328  1
  V  V25  1  0.86921984  0.87183893  0.88726932  1
  V  V26  1  0.37311112  0.37690520  0.38955292  1
  V  V27  1  0.12413119  0.87614544  0.38523521  1
  V  V28  1  0.12539215  0.62535137  0.64745777  1
  V  V29  1  0.62457668  0.62497959  0.14269209  1
  V  V30  1  0.12159360  0.87624814  0.89162897  1
  V  V31  1  0.37650058  0.87678274  0.88717349  1
  Fe  Fe32  1  0.37866885  0.62766650  0.12735295  1
  Fe  Fe33  1  0.87376860  0.12442906  0.12940061  1
  Fe  Fe34  1  0.12632325  0.87502338  0.13113973  1
  Fe  Fe35  1  0.62267226  0.12306645  0.88486459  1
  Fe  Fe36  1  0.12429623  0.12511782  0.38602308  1
  Fe  Fe37  1  0.37199881  0.12598394  0.38505957  1
  Fe  Fe38  1  0.37906160  0.37538262  0.87783777  1
  Fe  Fe39  1  0.87331112  0.87462215  0.14255604  1
  Fe  Fe40  1  0.12640993  0.37301911  0.88130628  1
  Fe  Fe41  1  0.12757389  0.62448352  0.12929343  1
  Fe  Fe42  1  0.12631049  0.12034091  0.88268611  1
  Fe  Fe43  1  0.62546723  0.37413099  0.38111927  1
  Fe  Fe44  1  0.62433148  0.12396117  0.13864712  1
  Fe  Fe45  1  0.87609325  0.12422145  0.64362511  1
  Fe  Fe46  1  0.12687860  0.37341399  0.12927098  1
  Fe  Fe47  1  0.87411921  0.12430493  0.88425774  1
  Fe  Fe48  1  0.12871971  0.62525488  0.38648058  1
  Fe  Fe49  1  0.37235150  0.87601150  0.63645201  1
  Fe  Fe50  1  0.37750848  0.62633626  0.89087795  1
  Fe  Fe51  1  0.87715994  0.87560997  0.63599598  1
  Fe  Fe52  1  0.62326428  0.62525702  0.39404169  1
  Fe  Fe53  1  0.87259799  0.62507229  0.88640886  1
  Fe  Fe54  1  0.62409581  0.37648712  0.14331027  1
  Fe  Fe55  1  0.37406502  0.87529473  0.38588046  1
  Fe  Fe56  1  0.87571319  0.87572449  0.38110331  1
  Fe  Fe57  1  0.87845923  0.62344652  0.38326930  1
  Fe  Fe58  1  0.12365956  0.62717383  0.88502490  1
  Fe  Fe59  1  0.87226925  0.37667044  0.87973530  1
  Fe  Fe60  1  0.62470115  0.12441031  0.38306261  1
  Fe  Fe61  1  0.62288688  0.87460556  0.88189788  1
  Fe  Fe62  1  0.87753341  0.37579499  0.38171187  1
  Fe  Fe63  1  0.62454509  0.62409026  0.63007495  1
  Pb  Pb64  1  -0.01056876  0.00054620  -0.00008477  1
  Pb  Pb65  1  -0.00211599  -0.00422907  0.24415312  1
  Pb  Pb66  1  -0.00889772  -0.00051740  0.50450238  1
  Pb  Pb67  1  -0.00586676  0.00647080  0.75342756  1
  Pb  Pb68  1  0.00029425  0.25080491  -0.01399479  1
  Pb  Pb69  1  0.00621929  0.24551375  0.24577688  1
  Pb  Pb70  1  -0.00735955  0.24181340  0.50522678  1
  Pb  Pb71  1  0.00516295  0.25186657  0.75745206  1
  Pb  Pb72  1  0.00638821  0.49843681  -0.01123173  1
  Pb  Pb73  1  -0.00371277  0.50006535  0.24639963  1
  Pb  Pb74  1  -0.00257261  0.50288680  0.49899915  1
  Pb  Pb75  1  -0.00230019  0.49935772  0.75856340  1
  Pb  Pb76  1  0.00762860  0.74965198  0.00214061  1
  Pb  Pb77  1  0.00214736  0.75078893  0.24496537  1
  Pb  Pb78  1  -0.00337026  0.75163640  0.49364305  1
  Pb  Pb79  1  0.00099751  0.74077896  0.75498043  1
  Pb  Pb80  1  0.24818606  -0.00781284  0.00052545  1
  Pb  Pb81  1  0.25655803  0.00173146  0.25314679  1
  Pb  Pb82  1  0.25257955  -0.00095389  0.49726948  1
  Pb  Pb83  1  0.24787445  0.00355634  0.75163650  1
  Pb  Pb84  1  0.24557405  0.25940623  -0.00673111  1
  Pb  Pb85  1  0.25016087  0.24124740  0.24949972  1
  Pb  Pb86  1  0.24896967  0.24827234  0.50140236  1
  Pb  Pb87  1  0.24296481  0.25180603  0.75708973  1
  Pb  Pb88  1  0.24725859  0.50169778  -0.01202677  1
  Pb  Pb89  1  0.24180732  0.50776325  0.24143222  1
  Pb  Pb90  1  0.24997527  0.49783892  0.50487913  1
  Pb  Pb91  1  0.25056756  0.50197318  0.75994504  1
  Pb  Pb92  1  0.24659359  0.74324843  -0.00030357  1
  Pb  Pb93  1  0.24335091  0.74422054  0.24524503  1
  Pb  Pb94  1  0.25144082  0.75895873  0.50281577  1
  Pb  Pb95  1  0.25054219  0.74033442  0.75796762  1
  Pb  Pb96  1  0.50747683  0.00539133  -0.00126910  1
  Pb  Pb97  1  0.48948623  0.00025606  0.25511707  1
  Pb  Pb98  1  0.49461703  -0.00013121  0.49627668  1
  Pb  Pb99  1  0.51090225  -0.00138409  0.75063687  1
  Pb  Pb100  1  0.51983888  0.25414014  0.00859220  1
  Pb  Pb101  1  0.50577787  0.24803921  0.25121818  1
  Pb  Pb102  1  0.50220833  0.24737025  0.49480660  1
  Pb  Pb103  1  0.50570627  0.24792650  0.75217677  1
  Pb  Pb104  1  0.49941259  0.49807397  -0.00245869  1
  Pb  Pb105  1  0.51436737  0.50387031  0.25817707  1
  Pb  Pb106  1  0.50496169  0.50092864  0.50189772  1
  Pb  Pb107  1  0.49022208  0.50640893  0.75616448  1
  Pb  Pb108  1  0.49540197  0.74836876  -0.00010931  1
  Pb  Pb109  1  0.50399395  0.74626720  0.25349619  1
  Pb  Pb110  1  0.50309339  0.75245186  0.50251021  1
  Pb  Pb111  1  0.50170199  0.75261534  0.75024431  1
  Pb  Pb112  1  0.75051122  0.00697119  -0.00035965  1
  Pb  Pb113  1  0.75242429  0.00372621  0.24662798  1
  Pb  Pb114  1  0.75991419  -0.00048656  0.50200366  1
  Pb  Pb115  1  0.75116790  0.00661173  0.75173095  1
  Pb  Pb116  1  0.75185857  0.24098424  -0.00447412  1
  Pb  Pb117  1  0.74214512  0.24732776  0.24696502  1
  Pb  Pb118  1  0.74995846  0.25227592  0.49477561  1
  Pb  Pb119  1  0.75431278  0.24473425  0.75422078  1
  Pb  Pb120  1  0.74880081  0.49406529  -0.00097722  1
  Pb  Pb121  1  0.76103720  0.49862353  0.25643581  1
  Pb  Pb122  1  0.74943458  0.50039360  0.49214273  1
  Pb  Pb123  1  0.75779782  0.50285737  0.75228676  1
  Pb  Pb124  1  0.75924903  0.76010773  0.00702673  1
  Pb  Pb125  1  0.75603934  0.74434589  0.25652636  1
  Pb  Pb126  1  0.75306779  0.74821622  0.49437932  1
  Pb  Pb127  1  0.74888328  0.75107654  0.74756202  1
  O  O128  1  0.12699032  0.00598612  0.15917488  1
  O  O129  1  0.12710759  -0.00600515  0.40971933  1
  O  O130  1  0.12700592  -0.00493677  0.66405931  1
  O  O131  1  0.12818912  -0.00639570  0.91601138  1
  O  O132  1  0.12795455  0.24496588  0.16156147  1
  O  O133  1  0.12650205  0.25822630  0.41929170  1
  O  O134  1  0.12591029  0.24961836  0.66940939  1
  O  O135  1  0.12857445  0.24491389  0.90802164  1
  O  O136  1  0.12803433  0.49801313  0.15757718  1
  O  O137  1  0.13002262  0.49218299  0.41849128  1
  O  O138  1  0.12525839  0.50287145  0.67146176  1
  O  O139  1  0.12670960  0.49994814  0.90385905  1
  O  O140  1  0.12662180  0.74960473  0.16253676  1
  O  O141  1  0.12600392  0.75670394  0.41357884  1
  O  O142  1  0.12586837  0.75098937  0.66834493  1
  O  O143  1  0.12545800  0.75882733  0.91236934  1
  O  O144  1  0.37547638  -0.00112743  0.16605173  1
  O  O145  1  0.37211931  0.00002830  0.41686084  1
  O  O146  1  0.37449288  0.00431874  0.66289844  1
  O  O147  1  0.37549419  -0.00634376  0.91503431  1
  O  O148  1  0.37373721  0.24146032  0.15999688  1
  O  O149  1  0.37096929  0.25832320  0.41311684  1
  O  O150  1  0.37559657  0.24667373  0.67081443  1
  O  O151  1  0.37509578  0.24304783  0.89801253  1
  O  O152  1  0.37327013  0.49727310  0.14426393  1
  O  O153  1  0.37038789  0.49766601  0.41973044  1
  O  O154  1  0.37558582  0.50565814  0.66894627  1
  O  O155  1  0.38086958  0.49878281  0.91109942  1
  O  O156  1  0.37976166  0.75693473  0.16138456  1
  O  O157  1  0.37229659  0.74432155  0.41047439  1
  O  O158  1  0.37381447  0.74566894  0.66501189  1
  O  O159  1  0.37686496  0.75911678  0.91307540  1
  O  O160  1  0.62460227  -0.00775397  0.16081358  1
  O  O161  1  0.62557918  -0.00433135  0.41326819  1
  O  O162  1  0.62271453  -0.00215260  0.66121521  1
  O  O163  1  0.62215497  -0.00271227  0.91353862  1
  O  O164  1  0.62046948  0.25058330  0.16596951  1
  O  O165  1  0.62385877  0.25015521  0.41564786  1
  O  O166  1  0.62550181  0.25267144  0.66677350  1
  O  O167  1  0.62278762  0.25453964  0.91037994  1
  O  O168  1  0.62110236  0.50656950  0.16429273  1
  O  O169  1  0.61991509  0.49679074  0.41577742  1
  O  O170  1  0.62548636  0.49600639  0.65843480  1
  O  O171  1  0.62372426  0.49924827  0.91058713  1
  O  O172  1  0.62190383  0.74914753  0.16855400  1
  O  O173  1  0.62229563  0.75807273  0.41601692  1
  O  O174  1  0.62379629  0.75255038  0.66033864  1
  O  O175  1  0.62519598  0.74657540  0.91125388  1
  O  O176  1  0.87421551  0.00216340  0.16493496  1
  O  O177  1  0.87682339  0.00531142  0.41256211  1
  O  O178  1  0.87600696  -0.00299891  0.66871945  1
  O  O179  1  0.87501627  -0.01140064  0.91080372  1
  O  O180  1  0.87688157  0.25390213  0.15555883  1
  O  O181  1  0.87916078  0.24596884  0.41370740  1
  O  O182  1  0.87436031  0.25252198  0.66817746  1
  O  O183  1  0.87080828  0.25158677  0.90597230  1
  O  O184  1  0.87161432  0.50394868  0.16168528  1
  O  O185  1  0.87877161  0.49844497  0.41814750  1
  O  O186  1  0.87455488  0.50543388  0.66657061  1
  O  O187  1  0.86921404  0.49993100  0.91590014  1
  O  O188  1  0.86905058  0.74153895  0.16501150  1
  O  O189  1  0.87718544  0.75139807  0.41127759  1
  O  O190  1  0.87608608  0.74590907  0.66190591  1
  O  O191  1  0.87449572  0.75600268  0.91636603  1
  O  O192  1  0.00612964  0.12644918  0.15757778  1
  O  O193  1  -0.00312429  0.12620051  0.41696838  1
  O  O194  1  0.00581713  0.12438348  0.66863781  1
  O  O195  1  0.00040419  0.11844578  0.90871927  1
  O  O196  1  -0.00537970  0.37808320  0.15817869  1
  O  O197  1  0.00730602  0.37506021  0.41373027  1
  O  O198  1  -0.00110332  0.37710006  0.67141316  1
  O  O199  1  -0.00110017  0.37424414  0.90498410  1
  O  O200  1  -0.00723955  0.62454556  0.15399888  1
  O  O201  1  0.00522322  0.62326246  0.41686371  1
  O  O202  1  -0.00348012  0.62501128  0.66810451  1
  O  O203  1  -0.00196786  0.62842131  0.91230917  1
  O  O204  1  0.00163279  0.87359711  0.16341341  1
  O  O205  1  0.00635258  0.87696137  0.40977126  1
  O  O206  1  0.00843646  0.87302675  0.66654206  1
  O  O207  1  0.00114551  0.87472977  0.90924057  1
  O  O208  1  0.25055656  0.12242849  0.16195167  1
  O  O209  1  0.24755738  0.12874967  0.41992404  1
  O  O210  1  0.25037615  0.12509147  0.66721097  1
  O  O211  1  0.25939335  0.11698959  0.91272901  1
  O  O212  1  0.26004033  0.36882107  0.16169757  1
  O  O213  1  0.25069254  0.37562261  0.42036428  1
  O  O214  1  0.25049593  0.37709890  0.67101932  1
  O  O215  1  0.25512757  0.37306737  0.90551964  1
  O  O216  1  0.25560206  0.62737690  0.15929776  1
  O  O217  1  0.25512918  0.62232748  0.42151064  1
  O  O218  1  0.25370913  0.62482301  0.66990353  1
  O  O219  1  0.25043461  0.63026433  0.90893061  1
  O  O220  1  0.25733844  0.87716207  0.16028808  1
  O  O221  1  0.24394897  0.87348152  0.41405126  1
  O  O222  1  0.24362590  0.87253941  0.66822652  1
  O  O223  1  0.25306373  0.87526289  0.91205880  1
  O  O224  1  0.49296951  0.12008976  0.16130644  1
  O  O225  1  0.49811013  0.12594476  0.41464126  1
  O  O226  1  0.50091354  0.12651293  0.66466110  1
  O  O227  1  0.49067769  0.11987392  0.91278473  1
  O  O228  1  0.48540846  0.37121774  0.16534355  1
  O  O229  1  0.48971343  0.37630325  0.41174452  1
  O  O230  1  0.50830824  0.37404754  0.66733820  1
  O  O231  1  0.50591369  0.37446483  0.91265980  1
  O  O232  1  0.50349324  0.62734411  0.16434882  1
  O  O233  1  0.48714778  0.62262986  0.41847619  1
  O  O234  1  0.49629878  0.62578566  0.66205203  1
  O  O235  1  0.51093083  0.62563955  0.91474031  1
  O  O236  1  0.50246606  0.87564384  0.16670432  1
  O  O237  1  0.50465624  0.87629674  0.41407488  1
  O  O238  1  0.50315512  0.87387494  0.66215769  1
  O  O239  1  0.49433328  0.87466461  0.91162113  1
  O  O240  1  0.75025771  0.12629983  0.16275847  1
  O  O241  1  0.75798773  0.12580680  0.41193097  1
  O  O242  1  0.74466057  0.12417178  0.66414450  1
  O  O243  1  0.74804275  0.12174833  0.91189642  1
  O  O244  1  0.75686829  0.37787543  0.16221894  1
  O  O245  1  0.75161053  0.37312461  0.41050220  1
  O  O246  1  0.74431631  0.37505758  0.66581444  1
  O  O247  1  0.74068526  0.37561296  0.91249463  1
  O  O248  1  0.74482393  0.62500400  0.16677471  1
  O  O249  1  0.75079340  0.62561840  0.41331694  1
  O  O250  1  0.75416045  0.62611145  0.65827464  1
  O  O251  1  0.74131915  0.62444036  0.91632333  1
  O  O252  1  0.73981113  0.86982139  0.16736444  1
  O  O253  1  0.74484282  0.87655159  0.41150251  1
  O  O254  1  0.74392344  0.87435662  0.66110638  1
  O  O255  1  0.75332367  0.87223454  0.90865725  1
  O  O256  1  0.12804110  0.12460517  0.04548352  1
  O  O257  1  0.12350638  0.13498291  0.28707032  1
  O  O258  1  0.12448767  0.12688211  0.55350906  1
  O  O259  1  0.13134295  0.11973841  0.78235245  1
  O  O260  1  0.13127401  0.36872826  0.02992782  1
  O  O261  1  0.12641199  0.37388767  0.29994066  1
  O  O262  1  0.12332111  0.37566065  0.55964921  1
  O  O263  1  0.12507823  0.36896586  0.77927091  1
  O  O264  1  0.12613419  0.63225674  0.02873280  1
  O  O265  1  0.13653903  0.62283023  0.28715845  1
  O  O266  1  0.12701154  0.62601134  0.55634182  1
  O  O267  1  0.12461693  0.63414404  0.78284721  1
  O  O268  1  0.12848974  0.87265241  0.03166363  1
  O  O269  1  0.12559267  0.87276066  0.29395800  1
  O  O270  1  0.12646340  0.87249969  0.55115670  1
  O  O271  1  0.12539859  0.87768316  0.80077107  1
  O  O272  1  0.37436623  0.12431304  0.04832038  1
  O  O273  1  0.36740506  0.11989621  0.28476182  1
  O  O274  1  0.37359269  0.12836041  0.54921363  1
  O  O275  1  0.37431571  0.11656093  0.79469319  1
  O  O276  1  0.37625555  0.36853721  0.04182069  1
  O  O277  1  0.36885968  0.38112612  0.29958152  1
  O  O278  1  0.37737851  0.37477195  0.56189551  1
  O  O279  1  0.38401941  0.38251108  0.77645387  1
  O  O280  1  0.38264946  0.63415889  0.02729205  1
  O  O281  1  0.37129322  0.62054408  0.30036881  1
  O  O282  1  0.37197597  0.62446058  0.55292895  1
  O  O283  1  0.38106684  0.62639369  0.78944337  1
  O  O284  1  0.37997663  0.87689390  0.05119402  1
  O  O285  1  0.37562930  0.88483298  0.28628963  1
  O  O286  1  0.36821134  0.87199485  0.53696302  1
  O  O287  1  0.37603545  0.87745472  0.79585706  1
  O  O288  1  0.61982268  0.12788371  0.03681462  1
  O  O289  1  0.62674991  0.12945206  0.28327012  1
  O  O290  1  0.62418099  0.12833758  0.54883081  1
  O  O291  1  0.62065448  0.12347172  0.78431626  1
  O  O292  1  0.61658065  0.37267952  0.04270814  1
  O  O293  1  0.61639746  0.37574934  0.28008186  1
  O  O294  1  0.62447503  0.37219306  0.54937630  1
  O  O295  1  0.62382270  0.37644793  0.79653128  1
  O  O296  1  0.62711196  0.62857426  0.05220184  1
  O  O297  1  0.61101045  0.62482840  0.29347198  1
  O  O298  1  0.61756503  0.62703386  0.53033775  1
  O  O299  1  0.62800048  0.63097485  0.79609425  1
  O  O300  1  0.62590434  0.87102494  0.05005210  1
  O  O301  1  0.62362796  0.87513698  0.29710243  1
  O  O302  1  0.62356220  0.87444447  0.54862440  1
  O  O303  1  0.61922433  0.87216089  0.78225065  1
  O  O304  1  0.87139020  0.11664718  0.02895313  1
  O  O305  1  0.87955657  0.12707218  0.29754978  1
  O  O306  1  0.88274045  0.12202877  0.54265624  1
  O  O307  1  0.86903121  0.11830118  0.78196127  1
  O  O308  1  0.87218433  0.37720067  0.04669220  1
  O  O309  1  0.88027189  0.38452102  0.28229653  1
  O  O310  1  0.87556515  0.37603542  0.55673775  1
  O  O311  1  0.86714824  0.38481244  0.77886153  1
  O  O312  1  0.86500626  0.62691947  0.04828628  1
  O  O313  1  0.87406901  0.61652211  0.28290578  1
  O  O314  1  0.88116129  0.62305653  0.55015790  1
  O  O315  1  0.86897068  0.62653216  0.78639542  1
  O  O316  1  0.86646624  0.87127162  0.04211865  1
  O  O317  1  0.87393502  0.87402286  0.28099995  1
  O  O318  1  0.87720113  0.88557951  0.53595896  1
  O  O319  1  0.87132348  0.86864534  0.79592776  1
