# generated using pymatgen
data_VFe(PbO3)2
_symmetry_space_group_name_H-M   'P 1'
_cell_length_a   15.38540122
_cell_length_b   15.39980059
_cell_length_c   18.52307985
_cell_angle_alpha   89.96543201
_cell_angle_beta   90.05629850
_cell_angle_gamma   90.01054286
_symmetry_Int_Tables_number   1
_chemical_formula_structural   VFe(PbO3)2
_chemical_formula_sum   'V32 Fe32 Pb64 O192'
_cell_volume   4388.70941430
_cell_formula_units_Z   32
loop_
 _symmetry_equiv_pos_site_id
 _symmetry_equiv_pos_as_xyz
  1  'x, y, z'
loop_
 _atom_site_type_symbol
 _atom_site_label
 _atom_site_symmetry_multiplicity
 _atom_site_fract_x
 _atom_site_fract_y
 _atom_site_fract_z
 _atom_site_occupancy
  V  V0  1  0.62510661  0.12060456  0.38985696  1
  V  V1  1  0.62720843  0.87201191  0.65626860  1
  V  V2  1  0.87496004  0.62629841  0.63571543  1
  V  V3  1  0.87330643  0.37339997  0.88460698  1
  V  V4  1  0.37817552  0.87694495  0.64987671  1
  V  V5  1  0.62215230  0.37525200  0.39584555  1
  V  V6  1  0.12211573  0.37304594  0.88373840  1
  V  V7  1  0.37545821  0.12745203  0.13653911  1
  V  V8  1  0.87837699  0.37805682  0.14661525  1
  V  V9  1  0.62525537  0.87340229  0.38780423  1
  V  V10  1  0.12654576  0.12775575  0.88720160  1
  V  V11  1  0.37557060  0.37422314  0.63590356  1
  V  V12  1  0.12689459  0.62364325  0.14149376  1
  V  V13  1  0.62558729  0.62702737  0.39509862  1
  V  V14  1  0.87893235  0.12710494  0.88614900  1
  V  V15  1  0.12686462  0.87527310  0.39227525  1
  V  V16  1  0.37601282  0.62673370  0.39347098  1
  V  V17  1  0.88006090  0.12671013  0.14014562  1
  V  V18  1  0.12739550  0.87378794  0.64428239  1
  V  V19  1  0.37645198  0.37406962  0.39112202  1
  V  V20  1  0.12305801  0.12169500  0.39294842  1
  V  V21  1  0.62362217  0.37340226  0.88494615  1
  V  V22  1  0.62274734  0.12272249  0.63945578  1
  V  V23  1  0.87278598  0.12236910  0.39816389  1
  V  V24  1  0.87948822  0.62403175  0.13851372  1
  V  V25  1  0.37649047  0.62245763  0.13534196  1
  V  V26  1  0.12527557  0.12711931  0.14242375  1
  V  V27  1  0.37244474  0.37315316  0.88732511  1
  V  V28  1  0.87241683  0.87265933  0.39331305  1
  V  V29  1  0.12627830  0.12284347  0.63492347  1
  V  V30  1  0.37432012  0.12357263  0.64162397  1
  V  V31  1  0.87308321  0.62481123  0.39759572  1
  Fe  Fe32  1  0.62668314  0.87478335  0.12894049  1
  Fe  Fe33  1  0.37404073  0.62102063  0.87645731  1
  Fe  Fe34  1  0.12849629  0.37134491  0.62625899  1
  Fe  Fe35  1  0.12313386  0.63011944  0.39979459  1
  Fe  Fe36  1  0.37336537  0.87696748  0.88105778  1
  Fe  Fe37  1  0.87439787  0.12225840  0.63088019  1
  Fe  Fe38  1  0.37100631  0.87318645  0.13262733  1
  Fe  Fe39  1  0.62857343  0.62187361  0.13077361  1
  Fe  Fe40  1  0.87850886  0.87368739  0.87428800  1
  Fe  Fe41  1  0.62708174  0.87680118  0.87483680  1
  Fe  Fe42  1  0.87238926  0.37279287  0.62576848  1
  Fe  Fe43  1  0.37649368  0.12140431  0.38543573  1
  Fe  Fe44  1  0.87220945  0.37544811  0.39935802  1
  Fe  Fe45  1  0.62099227  0.37149405  0.63166193  1
  Fe  Fe46  1  0.37846686  0.87276057  0.38479993  1
  Fe  Fe47  1  0.12619024  0.37603717  0.39873752  1
  Fe  Fe48  1  0.62990817  0.12830601  0.12928020  1
  Fe  Fe49  1  0.37430273  0.62610912  0.64612837  1
  Fe  Fe50  1  0.37056440  0.37820706  0.13728989  1
  Fe  Fe51  1  0.12254667  0.87646976  0.13489716  1
  Fe  Fe52  1  0.87769247  0.61920227  0.87923291  1
  Fe  Fe53  1  0.87464149  0.87800700  0.65045926  1
  Fe  Fe54  1  0.37431743  0.12945584  0.88623535  1
  Fe  Fe55  1  0.62785247  0.12821862  0.89131426  1
  Fe  Fe56  1  0.12610287  0.62555923  0.63266154  1
  Fe  Fe57  1  0.87947352  0.87250748  0.13148277  1
  Fe  Fe58  1  0.62459507  0.37607966  0.13657508  1
  Fe  Fe59  1  0.12493652  0.37496201  0.14317032  1
  Fe  Fe60  1  0.12478018  0.62027923  0.87634711  1
  Fe  Fe61  1  0.62746275  0.62157834  0.87804742  1
  Fe  Fe62  1  0.62366410  0.62452460  0.64314559  1
  Fe  Fe63  1  0.12373092  0.87462156  0.87779805  1
  Pb  Pb64  1  -0.00036477  -0.01324561  -0.00085079  1
  Pb  Pb65  1  0.00052121  -0.00256551  0.24977734  1
  Pb  Pb66  1  -0.01097268  -0.00372546  0.50927615  1
  Pb  Pb67  1  -0.00102653  -0.00457759  0.75074359  1
  Pb  Pb68  1  0.00466147  0.25451758  0.00129696  1
  Pb  Pb69  1  -0.00319927  0.26299128  0.26367955  1
  Pb  Pb70  1  -0.00333773  0.25512880  0.50194403  1
  Pb  Pb71  1  -0.00349074  0.25455347  0.73583746  1
  Pb  Pb72  1  0.00524864  0.49973526  -0.00528750  1
  Pb  Pb73  1  0.00997302  0.49993094  0.26582221  1
  Pb  Pb74  1  0.00872330  0.49791918  0.50346257  1
  Pb  Pb75  1  0.00317842  0.50237408  0.73829879  1
  Pb  Pb76  1  0.00051657  0.75276947  -0.01416497  1
  Pb  Pb77  1  0.00580466  0.74412134  0.25296860  1
  Pb  Pb78  1  -0.00708206  0.75863732  0.50819599  1
  Pb  Pb79  1  -0.00414669  0.74428969  0.75212843  1
  Pb  Pb80  1  0.25472687  -0.01593846  -0.00033078  1
  Pb  Pb81  1  0.26076607  -0.00140792  0.25249477  1
  Pb  Pb82  1  0.25299248  -0.00391761  0.50001284  1
  Pb  Pb83  1  0.25049727  -0.00482649  0.75771068  1
  Pb  Pb84  1  0.24947437  0.26206179  0.00530823  1
  Pb  Pb85  1  0.24634677  0.25322071  0.25372006  1
  Pb  Pb86  1  0.24858940  0.25067953  0.49996934  1
  Pb  Pb87  1  0.25543757  0.24518731  0.74856823  1
  Pb  Pb88  1  0.25217839  0.49499230  -0.00337873  1
  Pb  Pb89  1  0.24032071  0.49878694  0.25870277  1
  Pb  Pb90  1  0.24810438  0.50640119  0.50501631  1
  Pb  Pb91  1  0.24200103  0.50900151  0.74387746  1
  Pb  Pb92  1  0.25019082  0.74993864  -0.01600909  1
  Pb  Pb93  1  0.25131949  0.75454426  0.24875980  1
  Pb  Pb94  1  0.25666296  0.73929297  0.51098539  1
  Pb  Pb95  1  0.24980248  0.75183795  0.75373228  1
  Pb  Pb96  1  0.50111559  -0.00541953  -0.01157431  1
  Pb  Pb97  1  0.49600842  -0.00213201  0.24132746  1
  Pb  Pb98  1  0.49977693  -0.00551152  0.49903879  1
  Pb  Pb99  1  0.49840225  -0.00185071  0.76090024  1
  Pb  Pb100  1  0.50656398  0.24963813  0.00080944  1
  Pb  Pb101  1  0.50180907  0.24925765  0.24407272  1
  Pb  Pb102  1  0.50422464  0.25122571  0.50133899  1
  Pb  Pb103  1  0.50001237  0.23784169  0.75439319  1
  Pb  Pb104  1  0.50802628  0.50150489  -0.00370549  1
  Pb  Pb105  1  0.50343355  0.49852920  0.24638537  1
  Pb  Pb106  1  0.50266843  0.50849263  0.50850501  1
  Pb  Pb107  1  0.50088718  0.50353662  0.74595799  1
  Pb  Pb108  1  0.50479956  0.75150708  -0.01746971  1
  Pb  Pb109  1  0.49983380  0.75544002  0.24046082  1
  Pb  Pb110  1  0.49946386  0.74136507  0.51111301  1
  Pb  Pb111  1  0.49754872  0.74100261  0.75828874  1
  Pb  Pb112  1  0.74399724  -0.01421778  -0.00586661  1
  Pb  Pb113  1  0.74756737  -0.00151950  0.24068015  1
  Pb  Pb114  1  0.75757181  -0.00669748  0.51030347  1
  Pb  Pb115  1  0.74269177  0.00487559  0.75513924  1
  Pb  Pb116  1  0.74652895  0.25260109  0.00306702  1
  Pb  Pb117  1  0.75519378  0.25479200  0.25360920  1
  Pb  Pb118  1  0.74986815  0.25116592  0.50430402  1
  Pb  Pb119  1  0.74648362  0.24721876  0.74326129  1
  Pb  Pb120  1  0.74427738  0.50297075  -0.00220459  1
  Pb  Pb121  1  0.75449754  0.49672803  0.25309423  1
  Pb  Pb122  1  0.74366791  0.49373608  0.50724302  1
  Pb  Pb123  1  0.74873003  0.49975907  0.74118866  1
  Pb  Pb124  1  0.74960136  0.75165421  -0.01665954  1
  Pb  Pb125  1  0.74789227  0.75189889  0.24116006  1
  Pb  Pb126  1  0.74251902  0.74917112  0.50934388  1
  Pb  Pb127  1  0.75533927  0.73516052  0.75776626  1
  O  O128  1  0.11881042  0.01037279  0.16576160  1
  O  O129  1  0.12131128  -0.00419378  0.41998686  1
  O  O130  1  0.12985443  0.00610149  0.66406612  1
  O  O131  1  0.11904820  0.01434075  0.90626129  1
  O  O132  1  0.12255163  0.24396537  0.17322572  1
  O  O133  1  0.12600253  0.23905528  0.41356922  1
  O  O134  1  0.12979181  0.24182760  0.65713983  1
  O  O135  1  0.12232903  0.25344950  0.91789723  1
  O  O136  1  0.12183401  0.50617214  0.17198915  1
  O  O137  1  0.12630063  0.50338504  0.42004582  1
  O  O138  1  0.12689134  0.49664981  0.65111182  1
  O  O139  1  0.12582108  0.49022355  0.91015375  1
  O  O140  1  0.11938374  0.74155077  0.16440719  1
  O  O141  1  0.12093268  0.76162395  0.41856608  1
  O  O142  1  0.12785116  0.75747705  0.65943504  1
  O  O143  1  0.12305545  0.74786367  0.90048750  1
  O  O144  1  0.37018889  0.00763999  0.15998419  1
  O  O145  1  0.37637128  -0.00296667  0.41854039  1
  O  O146  1  0.37393765  0.00191812  0.66840261  1
  O  O147  1  0.37281218  0.00503841  0.90928372  1
  O  O148  1  0.36927025  0.24356073  0.16380438  1
  O  O149  1  0.37711383  0.25385834  0.41097330  1
  O  O150  1  0.37437557  0.24731922  0.66321433  1
  O  O151  1  0.37531656  0.25902972  0.91699561  1
  O  O152  1  0.36888014  0.50944228  0.16676705  1
  O  O153  1  0.37798356  0.50352474  0.41655430  1
  O  O154  1  0.37666258  0.49053690  0.65591103  1
  O  O155  1  0.37577014  0.48878370  0.91030102  1
  O  O156  1  0.36965962  0.74022909  0.16193737  1
  O  O157  1  0.37749672  0.74597760  0.41621273  1
  O  O158  1  0.37316529  0.76045709  0.66758422  1
  O  O159  1  0.37376779  0.74775397  0.90395767  1
  O  O160  1  0.62892339  0.00385757  0.15984250  1
  O  O161  1  0.62485039  0.00102437  0.41341707  1
  O  O162  1  0.62006268  0.00769932  0.66869827  1
  O  O163  1  0.62866172  0.00220094  0.90803043  1
  O  O164  1  0.62625885  0.25003160  0.16764601  1
  O  O165  1  0.62202016  0.24529572  0.41447174  1
  O  O166  1  0.62047820  0.24192744  0.66106619  1
  O  O167  1  0.62973091  0.25941197  0.91503897  1
  O  O168  1  0.62744938  0.50089638  0.17062250  1
  O  O169  1  0.62197297  0.50270908  0.41989563  1
  O  O170  1  0.62165794  0.49643596  0.65891547  1
  O  O171  1  0.62758211  0.48947655  0.90847295  1
  O  O172  1  0.62789947  0.74621987  0.16179280  1
  O  O173  1  0.62568826  0.75122603  0.41983448  1
  O  O174  1  0.62264650  0.75657289  0.66844892  1
  O  O175  1  0.62837312  0.74954899  0.89834280  1
  O  O176  1  0.87903153  0.00953781  0.16018132  1
  O  O177  1  0.87148931  -0.00388370  0.42077420  1
  O  O178  1  0.87487944  0.00515659  0.67039440  1
  O  O179  1  0.88206501  0.01237329  0.89935614  1
  O  O180  1  0.87809975  0.25388655  0.17042529  1
  O  O181  1  0.87165879  0.24247094  0.41794763  1
  O  O182  1  0.87461798  0.24599474  0.65657414  1
  O  O183  1  0.87800862  0.25888433  0.91705315  1
  O  O184  1  0.87839394  0.49776665  0.17074331  1
  O  O185  1  0.86987331  0.50941042  0.41832162  1
  O  O186  1  0.87376142  0.50541688  0.65228743  1
  O  O187  1  0.87701129  0.48785095  0.91075331  1
  O  O188  1  0.87940501  0.74060283  0.15899279  1
  O  O189  1  0.87073946  0.75048729  0.42397441  1
  O  O190  1  0.87640692  0.74517867  0.66290313  1
  O  O191  1  0.87897730  0.74783505  0.90225091  1
  O  O192  1  -0.00274591  0.13065658  0.17184816  1
  O  O193  1  0.00288026  0.12024849  0.41743153  1
  O  O194  1  0.00907228  0.12415699  0.65385664  1
  O  O195  1  -0.00120329  0.13801597  0.91476856  1
  O  O196  1  -0.00338593  0.37527808  0.17289884  1
  O  O197  1  -0.00076248  0.37351616  0.41835444  1
  O  O198  1  0.00051650  0.37119274  0.64992602  1
  O  O199  1  -0.00158433  0.37343904  0.91032348  1
  O  O200  1  -0.00209422  0.62025909  0.17000813  1
  O  O201  1  -0.01051264  0.62994294  0.42136739  1
  O  O202  1  -0.00398766  0.62596091  0.65464330  1
  O  O203  1  0.00149704  0.61601395  0.91254821  1
  O  O204  1  -0.00002014  0.87580021  0.17008454  1
  O  O205  1  -0.00270728  0.87605818  0.41926785  1
  O  O206  1  0.01027659  0.88107981  0.66087587  1
  O  O207  1  0.00078352  0.88033116  0.90826829  1
  O  O208  1  0.24382250  0.12595085  0.16250291  1
  O  O209  1  0.24356790  0.11832982  0.41476362  1
  O  O210  1  0.25001635  0.12447923  0.66393731  1
  O  O211  1  0.24001169  0.13603504  0.90918938  1
  O  O212  1  0.24853108  0.37605806  0.17567131  1
  O  O213  1  0.26102224  0.37609926  0.41528755  1
  O  O214  1  0.25786547  0.36876440  0.65911080  1
  O  O215  1  0.25135963  0.37221346  0.90877655  1
  O  O216  1  0.24407625  0.62486683  0.16208601  1
  O  O217  1  0.25775147  0.62824666  0.41633481  1
  O  O218  1  0.24880949  0.62757513  0.66281007  1
  O  O219  1  0.24991829  0.61754554  0.90630198  1
  O  O220  1  0.24598539  0.87355000  0.16646457  1
  O  O221  1  0.24343450  0.87754076  0.41137043  1
  O  O222  1  0.25005705  0.88099010  0.66721373  1
  O  O223  1  0.24611317  0.87895750  0.90907855  1
  O  O224  1  0.49333566  0.12626460  0.15400898  1
  O  O225  1  0.50675090  0.12236605  0.41462575  1
  O  O226  1  0.49879292  0.12431204  0.66619397  1
  O  O227  1  0.50012184  0.13317188  0.91486628  1
  O  O228  1  0.49599297  0.37662223  0.16694392  1
  O  O229  1  0.49443216  0.37692588  0.41960962  1
  O  O230  1  0.49176793  0.36770186  0.66389512  1
  O  O231  1  0.50377466  0.37279452  0.90608454  1
  O  O232  1  0.49302814  0.62378153  0.15657321  1
  O  O233  1  0.49849452  0.62684951  0.42011878  1
  O  O234  1  0.49909995  0.62838068  0.66795685  1
  O  O235  1  0.50092213  0.61776131  0.90430325  1
  O  O236  1  0.49828797  0.87390391  0.15880479  1
  O  O237  1  0.50614166  0.87494754  0.41496451  1
  O  O238  1  0.49526635  0.88099669  0.67073979  1
  O  O239  1  0.50089527  0.87640101  0.90234957  1
  O  O240  1  0.76184975  0.13094367  0.16275472  1
  O  O241  1  0.74215927  0.12283126  0.41702001  1
  O  O242  1  0.74149746  0.12387265  0.65863609  1
  O  O243  1  0.76475021  0.13482055  0.91237238  1
  O  O244  1  0.75819117  0.37558513  0.17000224  1
  O  O245  1  0.74178991  0.37539653  0.41783379  1
  O  O246  1  0.74768162  0.37136166  0.65657869  1
  O  O247  1  0.75302095  0.37344290  0.90621145  1
  O  O248  1  0.76172835  0.61925380  0.16163040  1
  O  O249  1  0.74996226  0.62882990  0.42310908  1
  O  O250  1  0.75495039  0.62740421  0.66071486  1
  O  O251  1  0.75262609  0.61755113  0.90881194  1
  O  O252  1  0.75521417  0.87440151  0.16375854  1
  O  O253  1  0.74713624  0.87476912  0.42061615  1
  O  O254  1  0.74324715  0.88086142  0.66572986  1
  O  O255  1  0.75478879  0.87893607  0.90088168  1
  O  O256  1  0.11944980  0.13174693  0.05206285  1
  O  O257  1  0.12167785  0.11759891  0.30238431  1
  O  O258  1  0.13224007  0.12027434  0.54387379  1
  O  O259  1  0.12249855  0.13326983  0.79608205  1
  O  O260  1  0.12926775  0.37238947  0.04359527  1
  O  O261  1  0.12538033  0.37921188  0.29634491  1
  O  O262  1  0.13343054  0.36665517  0.52467854  1
  O  O263  1  0.12257245  0.36974295  0.79265682  1
  O  O264  1  0.12203702  0.61912480  0.05115625  1
  O  O265  1  0.11723250  0.62820058  0.29869054  1
  O  O266  1  0.13350086  0.63055474  0.53000116  1
  O  O267  1  0.11922766  0.61271239  0.77532340  1
  O  O268  1  0.12056777  0.88302808  0.03519158  1
  O  O269  1  0.12132430  0.87704242  0.30106470  1
  O  O270  1  0.13232920  0.87926866  0.55281346  1
  O  O271  1  0.12773371  0.88330964  0.77734202  1
  O  O272  1  0.36817381  0.12972176  0.04614770  1
  O  O273  1  0.37478587  0.11550539  0.28666443  1
  O  O274  1  0.37582627  0.12208813  0.55036539  1
  O  O275  1  0.37343881  0.13821603  0.78575853  1
  O  O276  1  0.36330713  0.37815700  0.03802050  1
  O  O277  1  0.37847445  0.37823160  0.30039782  1
  O  O278  1  0.37683737  0.36920565  0.54463522  1
  O  O279  1  0.37219107  0.37046926  0.79656492  1
  O  O280  1  0.37156027  0.61940684  0.04479329  1
  O  O281  1  0.37787353  0.62611544  0.30295048  1
  O  O282  1  0.37671136  0.63484362  0.54341322  1
  O  O283  1  0.37441791  0.62096976  0.77451030  1
  O  O284  1  0.36467667  0.87794458  0.03286981  1
  O  O285  1  0.37394521  0.87504039  0.28495731  1
  O  O286  1  0.37709749  0.87882046  0.55792317  1
  O  O287  1  0.36716922  0.88141347  0.77961479  1
  O  O288  1  0.63329926  0.13850091  0.02928478  1
  O  O289  1  0.62613080  0.12198295  0.29920354  1
  O  O290  1  0.61834111  0.11974665  0.54826071  1
  O  O291  1  0.63000919  0.13379262  0.79018341  1
  O  O292  1  0.62856193  0.37842310  0.03693430  1
  O  O293  1  0.61786410  0.37710081  0.30448427  1
  O  O294  1  0.61769675  0.36959799  0.53103250  1
  O  O295  1  0.62540468  0.37000188  0.79393609  1
  O  O296  1  0.62715663  0.61193404  0.03128892  1
  O  O297  1  0.62597557  0.62749771  0.30436790  1
  O  O298  1  0.61845360  0.63279581  0.54101066  1
  O  O299  1  0.63245231  0.61969019  0.77573709  1
  O  O300  1  0.63323600  0.87580412  0.02935114  1
  O  O301  1  0.62833546  0.87141419  0.29673350  1
  O  O302  1  0.61768875  0.87926499  0.56448971  1
  O  O303  1  0.62216772  0.88800012  0.77217194  1
  O  O304  1  0.88516048  0.13280437  0.05000079  1
  O  O305  1  0.87269243  0.11988574  0.30691491  1
  O  O306  1  0.87090333  0.11234720  0.53024089  1
  O  O307  1  0.87979988  0.13786056  0.79508726  1
  O  O308  1  0.87781359  0.37839771  0.05619975  1
  O  O309  1  0.87090636  0.37164187  0.29779867  1
  O  O310  1  0.86646734  0.37107863  0.52435951  1
  O  O311  1  0.87701606  0.37061229  0.79350435  1
  O  O312  1  0.88441188  0.61695388  0.04831976  1
  O  O313  1  0.87182262  0.62857444  0.30672350  1
  O  O314  1  0.87085446  0.63207681  0.54450135  1
  O  O315  1  0.87740985  0.62222429  0.77838370  1
  O  O316  1  0.88195521  0.87941226  0.03214519  1
  O  O317  1  0.87243050  0.87138432  0.30266393  1
  O  O318  1  0.87558046  0.88168687  0.54742773  1
  O  O319  1  0.88730066  0.87302586  0.77247333  1
