# generated using pymatgen
data_VFe(PbO3)2
_symmetry_space_group_name_H-M   'P 1'
_cell_length_a   15.38249019
_cell_length_b   15.38598858
_cell_length_c   18.54305085
_cell_angle_alpha   90.01579430
_cell_angle_beta   90.00717493
_cell_angle_gamma   90.01757804
_symmetry_Int_Tables_number   1
_chemical_formula_structural   VFe(PbO3)2
_chemical_formula_sum   'V32 Fe32 Pb64 O192'
_cell_volume   4388.67278583
_cell_formula_units_Z   32
loop_
 _symmetry_equiv_pos_site_id
 _symmetry_equiv_pos_as_xyz
  1  'x, y, z'
loop_
 _atom_site_type_symbol
 _atom_site_label
 _atom_site_symmetry_multiplicity
 _atom_site_fract_x
 _atom_site_fract_y
 _atom_site_fract_z
 _atom_site_occupancy
  V  V0  1  0.37381042  0.12966864  0.13966263  1
  V  V1  1  0.87376589  0.12975105  0.14013119  1
  V  V2  1  0.12521765  0.86879259  0.63885991  1
  V  V3  1  0.62352264  0.12658531  0.39950128  1
  V  V4  1  0.87734142  0.37558874  0.63977287  1
  V  V5  1  0.37312671  0.62803333  0.38392525  1
  V  V6  1  0.87469671  0.87271734  0.89066100  1
  V  V7  1  0.62627577  0.12748005  0.13838945  1
  V  V8  1  0.12680196  0.87819569  0.38862733  1
  V  V9  1  0.87388310  0.62558399  0.63990001  1
  V  V10  1  0.37540853  0.87704579  0.38717405  1
  V  V11  1  0.12327648  0.62537979  0.89413524  1
  V  V12  1  0.87692225  0.86992892  0.63638057  1
  V  V13  1  0.12369413  0.87741034  0.13839303  1
  V  V14  1  0.12702209  0.87515549  0.89156130  1
  V  V15  1  0.62496814  0.87803413  0.38922693  1
  V  V16  1  0.37532761  0.12425667  0.88369453  1
  V  V17  1  0.37348331  0.12717750  0.39896633  1
  V  V18  1  0.37227987  0.87303895  0.63906951  1
  V  V19  1  0.37534816  0.37254971  0.13641475  1
  V  V20  1  0.87508762  0.37281260  0.14157279  1
  V  V21  1  0.62522959  0.38002325  0.63787399  1
  V  V22  1  0.87618304  0.12437706  0.39267506  1
  V  V23  1  0.37762336  0.87429714  0.89503792  1
  V  V24  1  0.62605106  0.62760995  0.88965330  1
  V  V25  1  0.62518718  0.37328214  0.14176491  1
  V  V26  1  0.87600306  0.62587661  0.14050758  1
  V  V27  1  0.12459544  0.62584661  0.64293073  1
  V  V28  1  0.62674897  0.11900126  0.88369078  1
  V  V29  1  0.12909082  0.62359945  0.38639248  1
  V  V30  1  0.37567369  0.38038899  0.39366022  1
  V  V31  1  0.37733848  0.62630631  0.64280536  1
  Fe  Fe32  1  0.87473172  0.62700444  0.88654336  1
  Fe  Fe33  1  0.12637516  0.12577670  0.39773023  1
  Fe  Fe34  1  0.12276211  0.12767036  0.13391675  1
  Fe  Fe35  1  0.12531705  0.37914630  0.64497063  1
  Fe  Fe36  1  0.62590798  0.12294464  0.63091083  1
  Fe  Fe37  1  0.62468146  0.87431200  0.89065587  1
  Fe  Fe38  1  0.87467648  0.87909427  0.14340769  1
  Fe  Fe39  1  0.62503139  0.62383806  0.14367866  1
  Fe  Fe40  1  0.87253485  0.37626737  0.88041635  1
  Fe  Fe41  1  0.62128983  0.62514213  0.37659563  1
  Fe  Fe42  1  0.87474969  0.37604383  0.38641364  1
  Fe  Fe43  1  0.37751389  0.12388609  0.63250531  1
  Fe  Fe44  1  0.62459161  0.37263835  0.38652258  1
  Fe  Fe45  1  0.12483480  0.37248509  0.87534207  1
  Fe  Fe46  1  0.87583161  0.87721258  0.38107151  1
  Fe  Fe47  1  0.37449819  0.62619926  0.89533101  1
  Fe  Fe48  1  0.12467522  0.12000704  0.88360650  1
  Fe  Fe49  1  0.87433833  0.12173174  0.87401210  1
  Fe  Fe50  1  0.12409179  0.37188711  0.13462292  1
  Fe  Fe51  1  0.62608748  0.86819114  0.63339424  1
  Fe  Fe52  1  0.37363065  0.88077257  0.13294314  1
  Fe  Fe53  1  0.62594011  0.87886458  0.13371221  1
  Fe  Fe54  1  0.37360840  0.62401796  0.12807226  1
  Fe  Fe55  1  0.12673388  0.37456447  0.38869381  1
  Fe  Fe56  1  0.87395543  0.12447639  0.64642225  1
  Fe  Fe57  1  0.37555673  0.37721976  0.64012934  1
  Fe  Fe58  1  0.62599871  0.62512615  0.63390782  1
  Fe  Fe59  1  0.87500658  0.62654159  0.38057204  1
  Fe  Fe60  1  0.37645735  0.37527829  0.87917559  1
  Fe  Fe61  1  0.12588193  0.12209270  0.63235036  1
  Fe  Fe62  1  0.12318621  0.62237322  0.13174634  1
  Fe  Fe63  1  0.62360830  0.37474854  0.88150734  1
  Pb  Pb64  1  -0.00516227  0.00243071  -0.00231326  1
  Pb  Pb65  1  -0.00227179  0.00263244  0.25210338  1
  Pb  Pb66  1  -0.00793220  0.01606694  0.51176756  1
  Pb  Pb67  1  0.00296595  0.00793930  0.74987340  1
  Pb  Pb68  1  0.00290735  0.24741969  -0.01359591  1
  Pb  Pb69  1  0.01130451  0.25178113  0.25622240  1
  Pb  Pb70  1  0.00882966  0.25363521  0.50287243  1
  Pb  Pb71  1  0.01345376  0.24540134  0.74871255  1
  Pb  Pb72  1  0.00145261  0.49159096  -0.00571004  1
  Pb  Pb73  1  -0.00548683  0.49677511  0.25084381  1
  Pb  Pb74  1  0.00182922  0.49479504  0.49713418  1
  Pb  Pb75  1  -0.00917782  0.49870527  0.75535281  1
  Pb  Pb76  1  0.00079140  0.74991465  0.00511301  1
  Pb  Pb77  1  -0.00718936  0.74904307  0.25092091  1
  Pb  Pb78  1  -0.00271764  0.75151307  0.49265849  1
  Pb  Pb79  1  -0.00526471  0.74521737  0.75438349  1
  Pb  Pb80  1  0.25318995  0.00000719  0.00168727  1
  Pb  Pb81  1  0.24084019  0.00926427  0.25148547  1
  Pb  Pb82  1  0.25030992  0.00662099  0.50562267  1
  Pb  Pb83  1  0.24668459  0.00650671  0.74723833  1
  Pb  Pb84  1  0.23339273  0.25217493  -0.00483103  1
  Pb  Pb85  1  0.23879410  0.24903540  0.25711408  1
  Pb  Pb86  1  0.24748384  0.26074263  0.51200797  1
  Pb  Pb87  1  0.24820597  0.25154204  0.74096233  1
  Pb  Pb88  1  0.24736208  0.49157924  -0.00620624  1
  Pb  Pb89  1  0.24273181  0.49606491  0.24154959  1
  Pb  Pb90  1  0.25091160  0.48936779  0.50985419  1
  Pb  Pb91  1  0.25605313  0.49561347  0.75507614  1
  Pb  Pb92  1  0.25021825  0.74356446  0.00760553  1
  Pb  Pb93  1  0.25345689  0.74822997  0.23925403  1
  Pb  Pb94  1  0.25273705  0.75070910  0.49670349  1
  Pb  Pb95  1  0.25778059  0.74083417  0.75874586  1
  Pb  Pb96  1  0.49795953  -0.00623154  0.00271067  1
  Pb  Pb97  1  0.50012046  0.00065738  0.24658556  1
  Pb  Pb98  1  0.50022592  0.00236891  0.50504166  1
  Pb  Pb99  1  0.51018415  -0.00527871  0.74395130  1
  Pb  Pb100  1  0.49882317  0.24964572  -0.00846502  1
  Pb  Pb101  1  0.50440012  0.25402552  0.25440166  1
  Pb  Pb102  1  0.49135600  0.24979667  0.50751249  1
  Pb  Pb103  1  0.49917212  0.25289432  0.74264141  1
  Pb  Pb104  1  0.49810025  0.50253381  -0.00332930  1
  Pb  Pb105  1  0.50547350  0.50338764  0.24802382  1
  Pb  Pb106  1  0.50585228  0.50676896  0.49719742  1
  Pb  Pb107  1  0.49918002  0.49538372  0.75434531  1
  Pb  Pb108  1  0.50508419  0.73846198  0.01067271  1
  Pb  Pb109  1  0.49959897  0.74944853  0.23924472  1
  Pb  Pb110  1  0.50981161  0.75037390  0.50034613  1
  Pb  Pb111  1  0.50457779  0.75059481  0.75444469  1
  Pb  Pb112  1  0.75422795  -0.01320319  0.00475299  1
  Pb  Pb113  1  0.75165822  -0.00155835  0.25077090  1
  Pb  Pb114  1  0.75114015  0.00645219  0.50758109  1
  Pb  Pb115  1  0.74939142  0.00025472  0.74458900  1
  Pb  Pb116  1  0.75418624  0.24879412  -0.01190837  1
  Pb  Pb117  1  0.75034068  0.25941947  0.25705234  1
  Pb  Pb118  1  0.75136184  0.24636048  0.50226402  1
  Pb  Pb119  1  0.74970619  0.25767181  0.74745968  1
  Pb  Pb120  1  0.74779357  0.50131238  -0.00392707  1
  Pb  Pb121  1  0.75594608  0.49910754  0.25532269  1
  Pb  Pb122  1  0.74759529  0.50587115  0.48823751  1
  Pb  Pb123  1  0.75220800  0.49721584  0.75203156  1
  Pb  Pb124  1  0.74070768  0.75030207  0.00777296  1
  Pb  Pb125  1  0.74632432  0.74883569  0.24756986  1
  Pb  Pb126  1  0.74291492  0.74736646  0.49196593  1
  Pb  Pb127  1  0.74359994  0.75151809  0.75041395  1
  O  O128  1  0.12392740  0.00056412  0.16470144  1
  O  O129  1  0.12968395  -0.00819209  0.41376646  1
  O  O130  1  0.12685138  -0.01225200  0.66047568  1
  O  O131  1  0.12463196  -0.00821658  0.91499956  1
  O  O132  1  0.12458241  0.24922397  0.17000938  1
  O  O133  1  0.12750574  0.25103143  0.42141931  1
  O  O134  1  0.12420625  0.24894271  0.65807321  1
  O  O135  1  0.12609696  0.24640807  0.90487525  1
  O  O136  1  0.12376675  0.49640207  0.16193673  1
  O  O137  1  0.13000568  0.50766997  0.41072190  1
  O  O138  1  0.12454581  0.51224151  0.66772146  1
  O  O139  1  0.12404344  0.50671485  0.90638133  1
  O  O140  1  0.12332842  0.75821752  0.16084435  1
  O  O141  1  0.13250351  0.75074194  0.41220893  1
  O  O142  1  0.12674430  0.74537381  0.67200254  1
  O  O143  1  0.12388398  0.75717930  0.91952001  1
  O  O144  1  0.37464068  0.01219692  0.16561817  1
  O  O145  1  0.37615863  0.00002243  0.41793384  1
  O  O146  1  0.37481549  -0.01170686  0.65925445  1
  O  O147  1  0.37393887  -0.00087656  0.91753109  1
  O  O148  1  0.37850971  0.24748990  0.16818930  1
  O  O149  1  0.37554954  0.24805577  0.41783538  1
  O  O150  1  0.37738575  0.24971600  0.66021497  1
  O  O151  1  0.37967082  0.24036107  0.90223805  1
  O  O152  1  0.37613433  0.48898402  0.15550023  1
  O  O153  1  0.37387950  0.49927392  0.41128941  1
  O  O154  1  0.37379753  0.51010709  0.66469290  1
  O  O155  1  0.37669200  0.49946492  0.91467585  1
  O  O156  1  0.37192191  0.75326382  0.15614215  1
  O  O157  1  0.37099714  0.75120758  0.41052096  1
  O  O158  1  0.37116219  0.74747967  0.66982607  1
  O  O159  1  0.37117163  0.75951758  0.91609059  1
  O  O160  1  0.62652955  0.00836652  0.16677623  1
  O  O161  1  0.62223153  -0.00411687  0.41736689  1
  O  O162  1  0.62477150  -0.00683954  0.65870953  1
  O  O163  1  0.62164090  0.00482991  0.91301093  1
  O  O164  1  0.62549706  0.24896909  0.17104895  1
  O  O165  1  0.62303079  0.24710836  0.42123440  1
  O  O166  1  0.62793373  0.25959259  0.65734445  1
  O  O167  1  0.62062224  0.23746078  0.90831575  1
  O  O168  1  0.62421385  0.49213207  0.16356568  1
  O  O169  1  0.61889313  0.49981583  0.40991180  1
  O  O170  1  0.62601167  0.49890108  0.66320891  1
  O  O171  1  0.62376370  0.50774511  0.91055262  1
  O  O172  1  0.62623322  0.75295338  0.16447177  1
  O  O173  1  0.61940350  0.75631437  0.40668426  1
  O  O174  1  0.62365315  0.74658775  0.67039097  1
  O  O175  1  0.62640982  0.74673060  0.91772754  1
  O  O176  1  0.87437309  0.01200508  0.16711814  1
  O  O177  1  0.87424358  0.00265973  0.41522189  1
  O  O178  1  0.87687123  -0.01606629  0.66107819  1
  O  O179  1  0.87572482  -0.00713105  0.91245847  1
  O  O180  1  0.87059520  0.25012202  0.16659429  1
  O  O181  1  0.87470184  0.24206413  0.41647512  1
  O  O182  1  0.87160460  0.25922812  0.65791700  1
  O  O183  1  0.87052017  0.24699153  0.90452897  1
  O  O184  1  0.87461980  0.49494080  0.16220696  1
  O  O185  1  0.87833473  0.50417453  0.41517507  1
  O  O186  1  0.87579497  0.50183950  0.66449359  1
  O  O187  1  0.87422216  0.50275424  0.91690580  1
  O  O188  1  0.87720541  0.74519751  0.16008889  1
  O  O189  1  0.87853563  0.75267844  0.41046640  1
  O  O190  1  0.87862163  0.75044460  0.66780340  1
  O  O191  1  0.87736115  0.75589386  0.91636131  1
  O  O192  1  -0.00868041  0.13038013  0.16271298  1
  O  O193  1  -0.00578655  0.12243415  0.41691968  1
  O  O194  1  0.00136718  0.11916386  0.66159821  1
  O  O195  1  -0.00265444  0.11978204  0.90732899  1
  O  O196  1  -0.00846104  0.37065571  0.16113632  1
  O  O197  1  0.00073741  0.37545513  0.41690050  1
  O  O198  1  -0.00723551  0.38014838  0.66099258  1
  O  O199  1  0.00004007  0.37637158  0.90728521  1
  O  O200  1  -0.00508164  0.62212962  0.16336732  1
  O  O201  1  0.01315446  0.62927860  0.40987090  1
  O  O202  1  0.00364814  0.62808359  0.66640185  1
  O  O203  1  0.00509065  0.63107784  0.91696065  1
  O  O204  1  0.00632768  0.87970062  0.16629657  1
  O  O205  1  0.01049090  0.87131643  0.40811922  1
  O  O206  1  0.00017779  0.86598412  0.66149915  1
  O  O207  1  0.00090543  0.87516101  0.91560240  1
  O  O208  1  0.25632560  0.12928941  0.16248887  1
  O  O209  1  0.25713283  0.12162255  0.41870888  1
  O  O210  1  0.25166677  0.11879228  0.65949412  1
  O  O211  1  0.25913319  0.11855001  0.90716362  1
  O  O212  1  0.25939189  0.36837152  0.16049899  1
  O  O213  1  0.25704536  0.37457614  0.41965135  1
  O  O214  1  0.25126030  0.38067892  0.66632040  1
  O  O215  1  0.25025408  0.37626508  0.90557493  1
  O  O216  1  0.24918190  0.62349638  0.16033102  1
  O  O217  1  0.24950634  0.62657966  0.41562245  1
  O  O218  1  0.24869786  0.62742276  0.66806869  1
  O  O219  1  0.24124020  0.63125392  0.91680772  1
  O  O220  1  0.24235363  0.88140696  0.16309925  1
  O  O221  1  0.25074674  0.87525281  0.41759096  1
  O  O222  1  0.25323932  0.86797782  0.66662698  1
  O  O223  1  0.24638488  0.87690715  0.91590738  1
  O  O224  1  0.49952520  0.12821921  0.16498289  1
  O  O225  1  0.49721795  0.12337964  0.42062282  1
  O  O226  1  0.50238268  0.12237879  0.66168239  1
  O  O227  1  0.49603315  0.11810517  0.91214088  1
  O  O228  1  0.49643893  0.36893783  0.16506611  1
  O  O229  1  0.49193577  0.37244492  0.41715312  1
  O  O230  1  0.50664526  0.38046785  0.66048959  1
  O  O231  1  0.50104829  0.37242582  0.91462746  1
  O  O232  1  0.49536705  0.62259223  0.16269181  1
  O  O233  1  0.49245469  0.62622409  0.40823851  1
  O  O234  1  0.49326773  0.62802015  0.66280152  1
  O  O235  1  0.50681171  0.62982917  0.91552759  1
  O  O236  1  0.49952498  0.88269276  0.16177566  1
  O  O237  1  0.49833743  0.87667866  0.41414259  1
  O  O238  1  0.49013054  0.86591708  0.66143877  1
  O  O239  1  0.49428207  0.87780179  0.91442310  1
  O  O240  1  0.75232239  0.12892203  0.16727293  1
  O  O241  1  0.75328923  0.12229160  0.41778448  1
  O  O242  1  0.74725669  0.12250406  0.66619821  1
  O  O243  1  0.74320644  0.12096059  0.90194725  1
  O  O244  1  0.75193157  0.37254062  0.16747354  1
  O  O245  1  0.75000507  0.37385302  0.41629408  1
  O  O246  1  0.75014130  0.38114054  0.66165060  1
  O  O247  1  0.74570652  0.37488054  0.91524953  1
  O  O248  1  0.75860367  0.62141868  0.16446257  1
  O  O249  1  0.74699239  0.62812354  0.40325773  1
  O  O250  1  0.75456601  0.62732314  0.66103801  1
  O  O251  1  0.74482801  0.62766981  0.91399513  1
  O  O252  1  0.74948857  0.87927475  0.16929104  1
  O  O253  1  0.74283724  0.87449243  0.40534243  1
  O  O254  1  0.75840316  0.86667648  0.65889287  1
  O  O255  1  0.75621008  0.87469147  0.91252765  1
  O  O256  1  0.12664395  0.13241330  0.03445987  1
  O  O257  1  0.13015742  0.12914790  0.29587645  1
  O  O258  1  0.12183409  0.11594836  0.52989690  1
  O  O259  1  0.12389864  0.11433230  0.78262189  1
  O  O260  1  0.12917657  0.36766631  0.03446077  1
  O  O261  1  0.12986964  0.36797477  0.28828680  1
  O  O262  1  0.13117308  0.38362697  0.54224626  1
  O  O263  1  0.12115528  0.37251868  0.77423777  1
  O  O264  1  0.12232135  0.63140350  0.03281574  1
  O  O265  1  0.13077452  0.62477054  0.29547844  1
  O  O266  1  0.12578057  0.62785799  0.55231750  1
  O  O267  1  0.12317883  0.63438727  0.80327035  1
  O  O268  1  0.12237983  0.87938095  0.04738921  1
  O  O269  1  0.13147577  0.87866836  0.29764907  1
  O  O270  1  0.12900204  0.86427460  0.54818853  1
  O  O271  1  0.12644426  0.87248069  0.80110855  1
  O  O272  1  0.37551581  0.13052025  0.04897502  1
  O  O273  1  0.37573395  0.12647936  0.30808324  1
  O  O274  1  0.37909482  0.12058179  0.53212494  1
  O  O275  1  0.37738810  0.11592617  0.79296898  1
  O  O276  1  0.37755819  0.36467559  0.04577774  1
  O  O277  1  0.37418646  0.37548101  0.30310023  1
  O  O278  1  0.36891026  0.37905959  0.53875409  1
  O  O279  1  0.38396965  0.38250589  0.77834428  1
  O  O280  1  0.37789542  0.62898572  0.02671521  1
  O  O281  1  0.36849823  0.62528894  0.29325013  1
  O  O282  1  0.37305868  0.62936594  0.55198651  1
  O  O283  1  0.37001275  0.62969618  0.79468703  1
  O  O284  1  0.37124846  0.88967326  0.03382794  1
  O  O285  1  0.37265879  0.88046228  0.29654148  1
  O  O286  1  0.37005807  0.86788864  0.54809660  1
  O  O287  1  0.37396238  0.87785502  0.80405706  1
  O  O288  1  0.62684984  0.12719733  0.04782600  1
  O  O289  1  0.62474729  0.12504618  0.30841109  1
  O  O290  1  0.63123793  0.11864222  0.53009119  1
  O  O291  1  0.62041739  0.11658492  0.79257794  1
  O  O292  1  0.62510985  0.36798495  0.05112789  1
  O  O293  1  0.62170276  0.36664705  0.28647286  1
  O  O294  1  0.62521589  0.38246883  0.54698153  1
  O  O295  1  0.62665418  0.37717054  0.78206281  1
  O  O296  1  0.62507188  0.63069313  0.04246907  1
  O  O297  1  0.62064975  0.62261043  0.27578673  1
  O  O298  1  0.61865626  0.63100866  0.53410500  1
  O  O299  1  0.62496092  0.63125185  0.79830252  1
  O  O300  1  0.63365609  0.87874545  0.03248199  1
  O  O301  1  0.61876366  0.88379557  0.29855782  1
  O  O302  1  0.62401367  0.86025810  0.53348068  1
  O  O303  1  0.62173453  0.86882419  0.79060344  1
  O  O304  1  0.87093085  0.12908781  0.04933135  1
  O  O305  1  0.87613961  0.12458586  0.30176683  1
  O  O306  1  0.87288199  0.11368363  0.54380528  1
  O  O307  1  0.87584709  0.11469958  0.77315454  1
  O  O308  1  0.87028470  0.37017479  0.05105903  1
  O  O309  1  0.87107807  0.37846128  0.28594316  1
  O  O310  1  0.87584633  0.38171663  0.54882876  1
  O  O311  1  0.86679653  0.38421431  0.78017845  1
  O  O312  1  0.87577638  0.62267172  0.04960804  1
  O  O313  1  0.88292993  0.61998817  0.28071371  1
  O  O314  1  0.87939304  0.62883924  0.54912037  1
  O  O315  1  0.88238994  0.62586326  0.78702361  1
  O  O316  1  0.87198656  0.88626823  0.04337641  1
  O  O317  1  0.88257229  0.88038439  0.28084678  1
  O  O318  1  0.87849912  0.86730415  0.54520887  1
  O  O319  1  0.87791670  0.87180872  0.79986965  1
