# generated using pymatgen
data_VFe(PbO3)2
_symmetry_space_group_name_H-M   'P 1'
_cell_length_a   15.38443182
_cell_length_b   15.37575267
_cell_length_c   18.55479217
_cell_angle_alpha   90.00684094
_cell_angle_beta   90.02528854
_cell_angle_gamma   90.00395168
_symmetry_Int_Tables_number   1
_chemical_formula_structural   VFe(PbO3)2
_chemical_formula_sum   'V32 Fe32 Pb64 O192'
_cell_volume   4389.08401075
_cell_formula_units_Z   32
loop_
 _symmetry_equiv_pos_site_id
 _symmetry_equiv_pos_as_xyz
  1  'x, y, z'
loop_
 _atom_site_type_symbol
 _atom_site_label
 _atom_site_symmetry_multiplicity
 _atom_site_fract_x
 _atom_site_fract_y
 _atom_site_fract_z
 _atom_site_occupancy
  V  V0  1  0.37468528  0.62533828  0.39604964  1
  V  V1  1  0.12576567  0.62422033  0.39263376  1
  V  V2  1  0.37709901  0.87440490  0.13917886  1
  V  V3  1  0.62958852  0.37694733  0.63906481  1
  V  V4  1  0.62665751  0.12575594  0.63671637  1
  V  V5  1  0.12768209  0.12371816  0.38928090  1
  V  V6  1  0.37485446  0.63231106  0.88994250  1
  V  V7  1  0.62234246  0.62458176  0.89480164  1
  V  V8  1  0.62771601  0.62816275  0.63758128  1
  V  V9  1  0.12467417  0.37788434  0.39396915  1
  V  V10  1  0.87695402  0.37435679  0.88640244  1
  V  V11  1  0.37467238  0.37543335  0.39470476  1
  V  V12  1  0.62789184  0.37554301  0.89024583  1
  V  V13  1  0.37253160  0.12573592  0.63441722  1
  V  V14  1  0.62556185  0.37825095  0.38979409  1
  V  V15  1  0.62573505  0.87468253  0.89281623  1
  V  V16  1  0.87990307  0.87454751  0.89467335  1
  V  V17  1  0.37284112  0.87621046  0.39398141  1
  V  V18  1  0.37806187  0.13121259  0.88522118  1
  V  V19  1  0.37859844  0.88325445  0.88532477  1
  V  V20  1  0.37835857  0.37992514  0.88831982  1
  V  V21  1  0.62441999  0.12267096  0.14348628  1
  V  V22  1  0.62227038  0.37177691  0.13975989  1
  V  V23  1  0.62616199  0.87205798  0.39002858  1
  V  V24  1  0.87346077  0.87506612  0.63990772  1
  V  V25  1  0.62310924  0.62325842  0.38812689  1
  V  V26  1  0.12409003  0.62243587  0.13512504  1
  V  V27  1  0.87483899  0.62635632  0.39120275  1
  V  V28  1  0.87521162  0.12512681  0.63909278  1
  V  V29  1  0.12404021  0.62643579  0.63822421  1
  V  V30  1  0.37309548  0.12468026  0.14259212  1
  V  V31  1  0.87511316  0.37354913  0.13788260  1
  Fe  Fe32  1  0.12779113  0.87552609  0.13373266  1
  Fe  Fe33  1  0.12618943  0.87110349  0.38654768  1
  Fe  Fe34  1  0.87480551  0.62635805  0.63742001  1
  Fe  Fe35  1  0.12295975  0.87639775  0.63424545  1
  Fe  Fe36  1  0.12395437  0.12342719  0.63601540  1
  Fe  Fe37  1  0.37444283  0.62498000  0.63259420  1
  Fe  Fe38  1  0.87518244  0.12564625  0.38090721  1
  Fe  Fe39  1  0.12755239  0.37470641  0.88373830  1
  Fe  Fe40  1  0.37522919  0.37245746  0.13361204  1
  Fe  Fe41  1  0.37701562  0.87630551  0.63455790  1
  Fe  Fe42  1  0.37559010  0.12551381  0.38925067  1
  Fe  Fe43  1  0.87235486  0.62448024  0.89527156  1
  Fe  Fe44  1  0.12919440  0.87439437  0.88999054  1
  Fe  Fe45  1  0.87376040  0.37517371  0.63461725  1
  Fe  Fe46  1  0.87047055  0.12486210  0.89029050  1
  Fe  Fe47  1  0.37288887  0.62360887  0.13258493  1
  Fe  Fe48  1  0.12583550  0.37275835  0.13205127  1
  Fe  Fe49  1  0.62145614  0.12580398  0.88650887  1
  Fe  Fe50  1  0.37680605  0.37449705  0.63402718  1
  Fe  Fe51  1  0.62208772  0.12613561  0.38539109  1
  Fe  Fe52  1  0.12633551  0.62453793  0.88296184  1
  Fe  Fe53  1  0.87375070  0.87454576  0.12836070  1
  Fe  Fe54  1  0.62318700  0.62317868  0.13232520  1
  Fe  Fe55  1  0.62126208  0.87632289  0.13380728  1
  Fe  Fe56  1  0.87338066  0.12573810  0.13546668  1
  Fe  Fe57  1  0.12315221  0.37359318  0.63740951  1
  Fe  Fe58  1  0.87487754  0.62294328  0.12682901  1
  Fe  Fe59  1  0.87615033  0.37690615  0.38850357  1
  Fe  Fe60  1  0.62937386  0.87604110  0.63420808  1
  Fe  Fe61  1  0.12421427  0.12633966  0.13408041  1
  Fe  Fe62  1  0.87706122  0.87465414  0.38191370  1
  Fe  Fe63  1  0.12508822  0.12361954  0.88468212  1
  Pb  Pb64  1  0.00256953  0.00874295  0.00043344  1
  Pb  Pb65  1  -0.00276583  -0.00286421  0.23995187  1
  Pb  Pb66  1  0.00466421  -0.00248278  0.49563320  1
  Pb  Pb67  1  0.00588958  0.00265525  0.75371308  1
  Pb  Pb68  1  0.01090233  0.24448232  -0.00248032  1
  Pb  Pb69  1  -0.00508042  0.24425484  0.24714479  1
  Pb  Pb70  1  0.00528196  0.25089410  0.50099120  1
  Pb  Pb71  1  0.00608897  0.25072987  0.74892421  1
  Pb  Pb72  1  0.00336266  0.50214181  -0.00693508  1
  Pb  Pb73  1  -0.00581454  0.49495849  0.24844833  1
  Pb  Pb74  1  -0.00499782  0.49794981  0.50692668  1
  Pb  Pb75  1  0.00193874  0.50070677  0.74776893  1
  Pb  Pb76  1  -0.00068724  0.74816198  -0.00171248  1
  Pb  Pb77  1  -0.00405605  0.76005211  0.24161127  1
  Pb  Pb78  1  0.00345716  0.75413881  0.49943061  1
  Pb  Pb79  1  0.00611639  0.74406720  0.75464536  1
  Pb  Pb80  1  0.23618210  0.00238602  0.00469422  1
  Pb  Pb81  1  0.24344452  -0.00207574  0.25126061  1
  Pb  Pb82  1  0.23913443  -0.00142841  0.50543041  1
  Pb  Pb83  1  0.23685067  -0.00557229  0.75003996  1
  Pb  Pb84  1  0.24357675  0.25347182  0.00043336  1
  Pb  Pb85  1  0.24789370  0.25169875  0.24767928  1
  Pb  Pb86  1  0.23925369  0.25246595  0.50667144  1
  Pb  Pb87  1  0.24051919  0.25387729  0.74817434  1
  Pb  Pb88  1  0.25193975  0.49493491  -0.00185806  1
  Pb  Pb89  1  0.25187727  0.49730116  0.24403634  1
  Pb  Pb90  1  0.25329438  0.49536867  0.50742158  1
  Pb  Pb91  1  0.24442329  0.49737183  0.74588315  1
  Pb  Pb92  1  0.24475369  0.75301534  -0.00001565  1
  Pb  Pb93  1  0.24276289  0.75293606  0.25001425  1
  Pb  Pb94  1  0.25914527  0.75190466  0.50691591  1
  Pb  Pb95  1  0.24379887  0.75387428  0.74601203  1
  Pb  Pb96  1  0.50297890  -0.00626951  0.00173240  1
  Pb  Pb97  1  0.49865717  0.00968691  0.25755843  1
  Pb  Pb98  1  0.50109308  -0.00804160  0.50178840  1
  Pb  Pb99  1  0.50519021  0.00304684  0.74471945  1
  Pb  Pb100  1  0.49391727  0.25673334  0.00135413  1
  Pb  Pb101  1  0.49852631  0.24247923  0.25715468  1
  Pb  Pb102  1  0.49626230  0.25058576  0.49944214  1
  Pb  Pb103  1  0.50543344  0.24467397  0.74751582  1
  Pb  Pb104  1  0.49367282  0.50492446  0.00599994  1
  Pb  Pb105  1  0.49641558  0.50101207  0.24532308  1
  Pb  Pb106  1  0.49390035  0.50134805  0.50399461  1
  Pb  Pb107  1  0.49875233  0.49931782  0.74555149  1
  Pb  Pb108  1  0.50460264  0.74581117  0.00608632  1
  Pb  Pb109  1  0.50295981  0.74681932  0.24540930  1
  Pb  Pb110  1  0.49920368  0.75587566  0.50600740  1
  Pb  Pb111  1  0.49800750  0.75388887  0.74410039  1
  Pb  Pb112  1  0.75724301  0.00103113  0.00689816  1
  Pb  Pb113  1  0.76303243  -0.00759483  0.24849336  1
  Pb  Pb114  1  0.75330286  0.00325576  0.49182560  1
  Pb  Pb115  1  0.75296897  0.00778070  0.75418714  1
  Pb  Pb116  1  0.75332123  0.24126615  0.00181588  1
  Pb  Pb117  1  0.75207461  0.24371437  0.25521986  1
  Pb  Pb118  1  0.75807404  0.25185132  0.49416361  1
  Pb  Pb119  1  0.75191986  0.24034706  0.75427582  1
  Pb  Pb120  1  0.74666270  0.50727582  0.00355709  1
  Pb  Pb121  1  0.75427997  0.49650825  0.24660949  1
  Pb  Pb122  1  0.76134482  0.50275620  0.50484250  1
  Pb  Pb123  1  0.76043471  0.50544121  0.75294888  1
  Pb  Pb124  1  0.75155105  0.75450953  0.00696214  1
  Pb  Pb125  1  0.75319147  0.75009281  0.23667017  1
  Pb  Pb126  1  0.74883843  0.74989943  0.49985065  1
  Pb  Pb127  1  0.76002977  0.74696963  0.75628486  1
  O  O128  1  0.13004906  0.00116582  0.16365814  1
  O  O129  1  0.12855762  0.00479522  0.40890987  1
  O  O130  1  0.12131137  0.00005675  0.66636631  1
  O  O131  1  0.12913680  -0.00057838  0.91628564  1
  O  O132  1  0.12663852  0.25007003  0.16775145  1
  O  O133  1  0.12697828  0.25380532  0.41364792  1
  O  O134  1  0.12371031  0.24617747  0.66540048  1
  O  O135  1  0.12847628  0.24928555  0.91213740  1
  O  O136  1  0.12444692  0.50337415  0.16017784  1
  O  O137  1  0.12546528  0.50027795  0.41829468  1
  O  O138  1  0.12304630  0.50629239  0.65981288  1
  O  O139  1  0.12830916  0.49899115  0.91251522  1
  O  O140  1  0.12891342  0.74322501  0.16076425  1
  O  O141  1  0.12646740  0.74115160  0.41530485  1
  O  O142  1  0.12212882  0.74804954  0.66151432  1
  O  O143  1  0.13045558  0.74898006  0.91691195  1
  O  O144  1  0.37753187  0.00315435  0.16672015  1
  O  O145  1  0.37808617  -0.00729712  0.41379473  1
  O  O146  1  0.38393726  0.00965679  0.66000637  1
  O  O147  1  0.38434123  -0.00164705  0.90260363  1
  O  O148  1  0.37737297  0.24360939  0.16438707  1
  O  O149  1  0.37681488  0.25531908  0.41630716  1
  O  O150  1  0.38153150  0.24373017  0.66028761  1
  O  O151  1  0.38027422  0.25013849  0.90842194  1
  O  O152  1  0.37553665  0.49801606  0.16529910  1
  O  O153  1  0.37388100  0.50036885  0.42027088  1
  O  O154  1  0.37846206  0.50125407  0.66544852  1
  O  O155  1  0.37799546  0.49651150  0.91023656  1
  O  O156  1  0.37564522  0.75648121  0.15896571  1
  O  O157  1  0.37384759  0.75146941  0.41889844  1
  O  O158  1  0.37823159  0.74800209  0.66392793  1
  O  O159  1  0.37817688  0.74710123  0.90832310  1
  O  O160  1  0.61987657  0.00730746  0.16265837  1
  O  O161  1  0.62197954  -0.00978636  0.40895364  1
  O  O162  1  0.62757023  0.00496529  0.66199326  1
  O  O163  1  0.61502316  -0.00746162  0.91103689  1
  O  O164  1  0.62450728  0.25302792  0.16769723  1
  O  O165  1  0.62288298  0.26132836  0.41246084  1
  O  O166  1  0.62769384  0.25274803  0.66287854  1
  O  O167  1  0.61996701  0.25832701  0.91456034  1
  O  O168  1  0.62362330  0.49006534  0.16346849  1
  O  O169  1  0.62485488  0.50175030  0.41702401  1
  O  O170  1  0.62789834  0.49898637  0.66163728  1
  O  O171  1  0.61997490  0.49471749  0.91685054  1
  O  O172  1  0.61917973  0.75031948  0.16178860  1
  O  O173  1  0.62463878  0.74810557  0.41641466  1
  O  O174  1  0.62754240  0.74386196  0.66092826  1
  O  O175  1  0.61743577  0.75139761  0.91745111  1
  O  O176  1  0.87174609  0.00033432  0.15937416  1
  O  O177  1  0.87416728  -0.00007152  0.41127288  1
  O  O178  1  0.87062482  0.00093002  0.66458400  1
  O  O179  1  0.86699583  -0.00792178  0.91409930  1
  O  O180  1  0.86969293  0.25677011  0.16240280  1
  O  O181  1  0.87642851  0.25104542  0.41302614  1
  O  O182  1  0.87055583  0.24256890  0.65966707  1
  O  O183  1  0.86695982  0.25935687  0.91303210  1
  O  O184  1  0.87499562  0.49469278  0.16199995  1
  O  O185  1  0.87713916  0.50711756  0.41680964  1
  O  O186  1  0.87252688  0.50113248  0.66747541  1
  O  O187  1  0.86911227  0.48981527  0.91400333  1
  O  O188  1  0.87524289  0.74681570  0.15564675  1
  O  O189  1  0.87703169  0.74363726  0.41365869  1
  O  O190  1  0.87218793  0.75575088  0.66539784  1
  O  O191  1  0.86783577  0.75672211  0.91702718  1
  O  O192  1  -0.00142247  0.12812094  0.16067667  1
  O  O193  1  0.00934158  0.12788507  0.41021953  1
  O  O194  1  -0.00931264  0.12262078  0.66030516  1
  O  O195  1  -0.00280370  0.12299942  0.91236579  1
  O  O196  1  -0.00643876  0.37402461  0.16007383  1
  O  O197  1  0.00712019  0.37781643  0.41478978  1
  O  O198  1  -0.00287460  0.37368889  0.66510088  1
  O  O199  1  -0.00714099  0.37379499  0.90424056  1
  O  O200  1  0.00675964  0.62354837  0.15828830  1
  O  O201  1  0.00301282  0.62313987  0.41612143  1
  O  O202  1  0.00357445  0.62753125  0.66394338  1
  O  O203  1  -0.00035538  0.62541704  0.91406514  1
  O  O204  1  0.00174129  0.87393930  0.15524285  1
  O  O205  1  0.00145158  0.87240811  0.41352055  1
  O  O206  1  -0.01062118  0.87728839  0.66496318  1
  O  O207  1  -0.00381929  0.87394219  0.90932262  1
  O  O208  1  0.25707150  0.12515481  0.16367633  1
  O  O209  1  0.24565770  0.12747899  0.41571533  1
  O  O210  1  0.25827752  0.12470303  0.65517373  1
  O  O211  1  0.26482763  0.12256124  0.90968461  1
  O  O212  1  0.25058355  0.37386118  0.16591537  1
  O  O213  1  0.24672465  0.37785510  0.41744984  1
  O  O214  1  0.25178832  0.37442902  0.66282008  1
  O  O215  1  0.26110962  0.37287045  0.90837142  1
  O  O216  1  0.24436516  0.62302877  0.16291126  1
  O  O217  1  0.24518894  0.62237410  0.41817638  1
  O  O218  1  0.24312246  0.62644096  0.65872749  1
  O  O219  1  0.25958054  0.62103863  0.91139878  1
  O  O220  1  0.26006528  0.87726638  0.16645947  1
  O  O221  1  0.25532772  0.87307168  0.41476111  1
  O  O222  1  0.25073224  0.87696934  0.65982671  1
  O  O223  1  0.26544713  0.87395847  0.91260684  1
  O  O224  1  0.50013535  0.12793348  0.16804103  1
  O  O225  1  0.50035501  0.12527111  0.42044994  1
  O  O226  1  0.50325445  0.12824042  0.66204424  1
  O  O227  1  0.49416399  0.12586691  0.91729232  1
  O  O228  1  0.50501435  0.37163835  0.16343551  1
  O  O229  1  0.50380140  0.38138710  0.41590069  1
  O  O230  1  0.50992226  0.37538816  0.66472539  1
  O  O231  1  0.49864093  0.37508103  0.91572871  1
  O  O232  1  0.49804128  0.62269053  0.16610135  1
  O  O233  1  0.50031593  0.62500554  0.41585497  1
  O  O234  1  0.51039996  0.62239127  0.66061825  1
  O  O235  1  0.49495157  0.62096431  0.91701121  1
  O  O236  1  0.49200682  0.87927222  0.16753706  1
  O  O237  1  0.50038945  0.86905207  0.41575053  1
  O  O238  1  0.50455128  0.87583733  0.66595806  1
  O  O239  1  0.49405525  0.87027134  0.91744734  1
  O  O240  1  0.74085906  0.12954689  0.16323471  1
  O  O241  1  0.74680927  0.12633269  0.41316756  1
  O  O242  1  0.75112731  0.12459658  0.66623957  1
  O  O243  1  0.74317081  0.12442546  0.91877862  1
  O  O244  1  0.74856064  0.37532408  0.16328194  1
  O  O245  1  0.74329171  0.38020472  0.41220149  1
  O  O246  1  0.74428219  0.37450147  0.66521313  1
  O  O247  1  0.74312205  0.37682808  0.91314328  1
  O  O248  1  0.74922738  0.62013412  0.15748405  1
  O  O249  1  0.75353192  0.62567741  0.41083007  1
  O  O250  1  0.74355863  0.62441642  0.66745502  1
  O  O251  1  0.74207047  0.62341322  0.91836968  1
  O  O252  1  0.74609689  0.87566144  0.15950073  1
  O  O253  1  0.74470735  0.86959975  0.40963934  1
  O  O254  1  0.75597873  0.87618293  0.66756342  1
  O  O255  1  0.73977397  0.87230211  0.91255942  1
  O  O256  1  0.12719028  0.12509881  0.03272718  1
  O  O257  1  0.13063833  0.12778987  0.29841750  1
  O  O258  1  0.12634959  0.12412528  0.53516536  1
  O  O259  1  0.12563922  0.11936047  0.78378641  1
  O  O260  1  0.13058121  0.36705854  0.03202838  1
  O  O261  1  0.12591791  0.37885483  0.30339596  1
  O  O262  1  0.12435084  0.36738110  0.53634832  1
  O  O263  1  0.12984150  0.37199640  0.78285218  1
  O  O264  1  0.12697849  0.62341323  0.04392813  1
  O  O265  1  0.12497724  0.62172814  0.30239841  1
  O  O266  1  0.12096315  0.62757816  0.54728928  1
  O  O267  1  0.12373880  0.63050126  0.78313915  1
  O  O268  1  0.13953672  0.87509382  0.03325834  1
  O  O269  1  0.13339940  0.86773757  0.28642010  1
  O  O270  1  0.12177004  0.88276232  0.53346998  1
  O  O271  1  0.13091239  0.87777278  0.78880121  1
  O  O272  1  0.37593651  0.12289912  0.05202269  1
  O  O273  1  0.38329688  0.12409630  0.28969672  1
  O  O274  1  0.37694183  0.12579054  0.54323615  1
  O  O275  1  0.38167403  0.13193388  0.79444429  1
  O  O276  1  0.37594639  0.37165656  0.03384626  1
  O  O277  1  0.37401690  0.37832223  0.30369259  1
  O  O278  1  0.37889039  0.38123469  0.53423374  1
  O  O279  1  0.38313787  0.37875705  0.79756632  1
  O  O280  1  0.37665150  0.61869194  0.03349929  1
  O  O281  1  0.37196816  0.62609444  0.30525180  1
  O  O282  1  0.37237452  0.62534430  0.53247534  1
  O  O283  1  0.37788260  0.62625361  0.79921568  1
  O  O284  1  0.37720025  0.88035497  0.04828405  1
  O  O285  1  0.37524607  0.87223693  0.30337286  1
  O  O286  1  0.38155157  0.87192200  0.53421320  1
  O  O287  1  0.38103673  0.87580446  0.79439151  1
  O  O288  1  0.62019037  0.12729889  0.05251793  1
  O  O289  1  0.61610587  0.13110442  0.28553212  1
  O  O290  1  0.62835112  0.12698163  0.54591786  1
  O  O291  1  0.62486957  0.13007026  0.78676622  1
  O  O292  1  0.62285429  0.36967099  0.04899837  1
  O  O293  1  0.62403172  0.37987246  0.29913938  1
  O  O294  1  0.62873782  0.37617040  0.54854703  1
  O  O295  1  0.62654375  0.37710668  0.79957078  1
  O  O296  1  0.61570497  0.62072368  0.03208103  1
  O  O297  1  0.62313452  0.62349788  0.29758647  1
  O  O298  1  0.63188671  0.62670946  0.54654295  1
  O  O299  1  0.62200022  0.62529784  0.80387373  1
  O  O300  1  0.61330136  0.87663885  0.03418856  1
  O  O301  1  0.62065459  0.86785775  0.29961532  1
  O  O302  1  0.62481598  0.87020825  0.53498120  1
  O  O303  1  0.62308156  0.87114567  0.80195917  1
  O  O304  1  0.86586049  0.12448023  0.03382564  1
  O  O305  1  0.87079397  0.12958719  0.28050688  1
  O  O306  1  0.87090934  0.12133476  0.54809696  1
  O  O307  1  0.86307797  0.12454860  0.78985513  1
  O  O308  1  0.87339599  0.37428390  0.04751081  1
  O  O309  1  0.87636117  0.38537047  0.28896925  1
  O  O310  1  0.87202750  0.38318982  0.53396375  1
  O  O311  1  0.86902559  0.37484307  0.79536736  1
  O  O312  1  0.87339788  0.62110086  0.02624758  1
  O  O313  1  0.87913645  0.62349223  0.30061955  1
  O  O314  1  0.87125295  0.62193117  0.53793617  1
  O  O315  1  0.86577700  0.62813642  0.79395020  1
  O  O316  1  0.86587375  0.87545256  0.02741179  1
  O  O317  1  0.87451284  0.87401662  0.28229956  1
  O  O318  1  0.87233546  0.87482799  0.54889597  1
  O  O319  1  0.87060867  0.87182731  0.80366930  1
