# generated using pymatgen
data_VFe(PbO3)2
_symmetry_space_group_name_H-M   'P 1'
_cell_length_a   15.38008115
_cell_length_b   15.37840906
_cell_length_c   18.53812594
_cell_angle_alpha   89.97371189
_cell_angle_beta   90.00435382
_cell_angle_gamma   90.01243756
_symmetry_Int_Tables_number   1
_chemical_formula_structural   VFe(PbO3)2
_chemical_formula_sum   'V32 Fe32 Pb64 O192'
_cell_volume   4384.65883124
_cell_formula_units_Z   32
loop_
 _symmetry_equiv_pos_site_id
 _symmetry_equiv_pos_as_xyz
  1  'x, y, z'
loop_
 _atom_site_type_symbol
 _atom_site_label
 _atom_site_symmetry_multiplicity
 _atom_site_fract_x
 _atom_site_fract_y
 _atom_site_fract_z
 _atom_site_occupancy
  V  V0  1  0.37459663  0.87168119  0.63627424  1
  V  V1  1  0.87707340  0.62544469  0.64183561  1
  V  V2  1  0.87710280  0.37607277  0.63959911  1
  V  V3  1  0.37176021  0.37350964  0.13778129  1
  V  V4  1  0.62612473  0.12713008  0.38974405  1
  V  V5  1  0.87519919  0.37188377  0.88597662  1
  V  V6  1  0.37332582  0.62271000  0.64697487  1
  V  V7  1  0.87765823  0.37584561  0.14081181  1
  V  V8  1  0.37603488  0.12846775  0.13955761  1
  V  V9  1  0.62562722  0.12384132  0.63828214  1
  V  V10  1  0.37384451  0.88026655  0.89057229  1
  V  V11  1  0.12325096  0.62405653  0.14075297  1
  V  V12  1  0.87345653  0.12605250  0.38859280  1
  V  V13  1  0.87607336  0.87286849  0.63631284  1
  V  V14  1  0.37526795  0.37323533  0.64679563  1
  V  V15  1  0.12533226  0.87139759  0.63822204  1
  V  V16  1  0.12648179  0.37575934  0.14001193  1
  V  V17  1  0.12555600  0.12084354  0.88761795  1
  V  V18  1  0.62459665  0.62300596  0.38852729  1
  V  V19  1  0.87331539  0.62289499  0.38576837  1
  V  V20  1  0.87507752  0.87921184  0.89399833  1
  V  V21  1  0.37481876  0.62454652  0.14077465  1
  V  V22  1  0.12397438  0.37799753  0.64340524  1
  V  V23  1  0.37830019  0.37699846  0.39137095  1
  V  V24  1  0.12561466  0.62503779  0.64527031  1
  V  V25  1  0.37854158  0.12626320  0.39072258  1
  V  V26  1  0.87489645  0.12341521  0.88994129  1
  V  V27  1  0.62756147  0.62138985  0.13334283  1
  V  V28  1  0.62639105  0.87580210  0.89451128  1
  V  V29  1  0.62650920  0.12184633  0.89147580  1
  V  V30  1  0.12570634  0.12728053  0.14673605  1
  V  V31  1  0.87518739  0.12709000  0.14063488  1
  Fe  Fe32  1  0.87681097  0.12342902  0.63237325  1
  Fe  Fe33  1  0.62416932  0.87458407  0.63117476  1
  Fe  Fe34  1  0.87502822  0.62097833  0.12990578  1
  Fe  Fe35  1  0.62342167  0.87616274  0.13402554  1
  Fe  Fe36  1  0.62538218  0.37592896  0.64800786  1
  Fe  Fe37  1  0.62279366  0.37471288  0.13317383  1
  Fe  Fe38  1  0.87243975  0.87292994  0.38189282  1
  Fe  Fe39  1  0.62781051  0.37230222  0.87748616  1
  Fe  Fe40  1  0.12366494  0.37469011  0.38624515  1
  Fe  Fe41  1  0.37716437  0.87301017  0.37867353  1
  Fe  Fe42  1  0.12393459  0.87936246  0.88624219  1
  Fe  Fe43  1  0.12533197  0.62928296  0.88292115  1
  Fe  Fe44  1  0.87034698  0.37635299  0.38691555  1
  Fe  Fe45  1  0.37612257  0.12094049  0.88091552  1
  Fe  Fe46  1  0.37461694  0.87705801  0.14484487  1
  Fe  Fe47  1  0.12222619  0.37231557  0.88020310  1
  Fe  Fe48  1  0.12622042  0.62231245  0.37933649  1
  Fe  Fe49  1  0.87504370  0.62739880  0.88958837  1
  Fe  Fe50  1  0.62479041  0.62812766  0.88230176  1
  Fe  Fe51  1  0.37637671  0.62779608  0.88170147  1
  Fe  Fe52  1  0.12390086  0.12414163  0.62983588  1
  Fe  Fe53  1  0.87497841  0.87261469  0.13766708  1
  Fe  Fe54  1  0.12575430  0.87507998  0.14470583  1
  Fe  Fe55  1  0.62430584  0.37388720  0.38961590  1
  Fe  Fe56  1  0.12589563  0.12810978  0.38642298  1
  Fe  Fe57  1  0.62555141  0.12887660  0.13422432  1
  Fe  Fe58  1  0.37894966  0.62149666  0.38081033  1
  Fe  Fe59  1  0.37438085  0.37003744  0.87800209  1
  Fe  Fe60  1  0.62459837  0.62742682  0.64338705  1
  Fe  Fe61  1  0.37225541  0.12248679  0.63813946  1
  Fe  Fe62  1  0.62509647  0.87667020  0.39133145  1
  Fe  Fe63  1  0.12406298  0.87492733  0.37766001  1
  Pb  Pb64  1  0.00176952  -0.01031524  0.00891958  1
  Pb  Pb65  1  0.00029944  -0.00493627  0.25227734  1
  Pb  Pb66  1  0.00182750  0.00453365  0.49422697  1
  Pb  Pb67  1  0.00586260  -0.00432984  0.74654985  1
  Pb  Pb68  1  -0.00185178  0.24619459  -0.00173706  1
  Pb  Pb69  1  0.00615902  0.25324910  0.25741948  1
  Pb  Pb70  1  0.00105485  0.24459343  0.49809124  1
  Pb  Pb71  1  0.00414899  0.24870739  0.74508135  1
  Pb  Pb72  1  0.00107014  0.50563855  -0.00628711  1
  Pb  Pb73  1  0.00754627  0.49799277  0.25246980  1
  Pb  Pb74  1  0.00069816  0.49667295  0.49476098  1
  Pb  Pb75  1  -0.00142024  0.51063834  0.75748818  1
  Pb  Pb76  1  -0.00117046  0.75112449  0.00097315  1
  Pb  Pb77  1  -0.00544328  0.75676868  0.24791137  1
  Pb  Pb78  1  0.00339134  0.75244556  0.48944099  1
  Pb  Pb79  1  0.00165389  0.74671704  0.75663067  1
  Pb  Pb80  1  0.25129011  -0.01468463  0.01183605  1
  Pb  Pb81  1  0.24858920  -0.00559673  0.25418442  1
  Pb  Pb82  1  0.24515458  0.00130565  0.49191216  1
  Pb  Pb83  1  0.24653712  -0.00024200  0.74475322  1
  Pb  Pb84  1  0.25410229  0.24913043  -0.00915146  1
  Pb  Pb85  1  0.24190849  0.25103344  0.25696791  1
  Pb  Pb86  1  0.24879579  0.24344154  0.50257690  1
  Pb  Pb87  1  0.24798688  0.25220490  0.75001748  1
  Pb  Pb88  1  0.25034069  0.49926293  -0.01450363  1
  Pb  Pb89  1  0.24850255  0.50503298  0.25413545  1
  Pb  Pb90  1  0.24981331  0.50250570  0.49584558  1
  Pb  Pb91  1  0.24990833  0.49296472  0.75843224  1
  Pb  Pb92  1  0.24500489  0.75265487  -0.00173177  1
  Pb  Pb93  1  0.24875540  0.75156885  0.25091517  1
  Pb  Pb94  1  0.25248647  0.74917579  0.48537785  1
  Pb  Pb95  1  0.24918315  0.74537894  0.75554258  1
  Pb  Pb96  1  0.50055430  -0.00665352  0.00864065  1
  Pb  Pb97  1  0.50692813  -0.01151225  0.25212081  1
  Pb  Pb98  1  0.49787615  -0.00371601  0.49958767  1
  Pb  Pb99  1  0.49402233  0.00195980  0.74836527  1
  Pb  Pb100  1  0.50741648  0.25195155  -0.00565476  1
  Pb  Pb101  1  0.50687793  0.25580780  0.24865562  1
  Pb  Pb102  1  0.49498849  0.24675020  0.50734235  1
  Pb  Pb103  1  0.49206060  0.24806444  0.75362172  1
  Pb  Pb104  1  0.50271447  0.49514619  -0.01629665  1
  Pb  Pb105  1  0.49635554  0.50255875  0.24838769  1
  Pb  Pb106  1  0.51315532  0.50033832  0.50997045  1
  Pb  Pb107  1  0.50626723  0.50154093  0.75599520  1
  Pb  Pb108  1  0.49945724  0.75557731  0.00096542  1
  Pb  Pb109  1  0.49814993  0.75313665  0.24950803  1
  Pb  Pb110  1  0.50215976  0.75025428  0.49628146  1
  Pb  Pb111  1  0.50193811  0.74667703  0.75172024  1
  Pb  Pb112  1  0.74606692  -0.00230351  0.00840413  1
  Pb  Pb113  1  0.74362857  -0.01122514  0.24965194  1
  Pb  Pb114  1  0.75269785  -0.00129910  0.49887786  1
  Pb  Pb115  1  0.75053109  -0.00177458  0.74563598  1
  Pb  Pb116  1  0.74057213  0.25072167  0.00377756  1
  Pb  Pb117  1  0.75038108  0.25893300  0.25163190  1
  Pb  Pb118  1  0.74662190  0.25679732  0.50304250  1
  Pb  Pb119  1  0.74806717  0.25303380  0.74911141  1
  Pb  Pb120  1  0.74749339  0.50350568  -0.00854597  1
  Pb  Pb121  1  0.74945897  0.48831571  0.25058139  1
  Pb  Pb122  1  0.74005648  0.50049958  0.50708739  1
  Pb  Pb123  1  0.74590461  0.50452445  0.75265301  1
  Pb  Pb124  1  0.75812106  0.75002573  0.00377916  1
  Pb  Pb125  1  0.75164351  0.75459847  0.24506816  1
  Pb  Pb126  1  0.74263652  0.75046870  0.49958953  1
  Pb  Pb127  1  0.74834261  0.74546338  0.75039015  1
  O  O128  1  0.12440969  0.01062819  0.16663184  1
  O  O129  1  0.12569687  0.00155055  0.40859979  1
  O  O130  1  0.12318175  -0.00677718  0.66020510  1
  O  O131  1  0.12048797  0.00664125  0.91861524  1
  O  O132  1  0.12456943  0.25235842  0.16932448  1
  O  O133  1  0.12599223  0.25202118  0.41807194  1
  O  O134  1  0.12364259  0.25516236  0.66063027  1
  O  O135  1  0.11871027  0.23908563  0.91242930  1
  O  O136  1  0.12777497  0.49983136  0.16507706  1
  O  O137  1  0.12556176  0.49906922  0.41688392  1
  O  O138  1  0.12527444  0.50167225  0.67033605  1
  O  O139  1  0.12356063  0.49922303  0.90741203  1
  O  O140  1  0.13006095  0.74061076  0.16018866  1
  O  O141  1  0.12416745  0.74743396  0.40807414  1
  O  O142  1  0.12445492  0.75110513  0.66715240  1
  O  O143  1  0.12539419  0.75588884  0.91622974  1
  O  O144  1  0.37078545  0.01460302  0.16397709  1
  O  O145  1  0.37816253  0.00838657  0.40900387  1
  O  O146  1  0.37398712  -0.00884061  0.66162154  1
  O  O147  1  0.37894334  -0.00268545  0.91693033  1
  O  O148  1  0.36944677  0.25305802  0.16656621  1
  O  O149  1  0.37909352  0.25039842  0.41887032  1
  O  O150  1  0.37454683  0.25427648  0.66200710  1
  O  O151  1  0.37436938  0.24313721  0.91110697  1
  O  O152  1  0.37379914  0.49381824  0.16168111  1
  O  O153  1  0.37869750  0.49282313  0.41469820  1
  O  O154  1  0.37184704  0.50366280  0.66782853  1
  O  O155  1  0.37483813  0.49825860  0.90463572  1
  O  O156  1  0.37467943  0.74114750  0.16069594  1
  O  O157  1  0.37913669  0.74704370  0.40838310  1
  O  O158  1  0.37207884  0.75355071  0.66411557  1
  O  O159  1  0.37816012  0.76372156  0.91532408  1
  O  O160  1  0.62504892  0.00487214  0.16221766  1
  O  O161  1  0.62318302  0.01070833  0.41525672  1
  O  O162  1  0.62660577  0.00251320  0.66335351  1
  O  O163  1  0.62931581  0.00049117  0.91934104  1
  O  O164  1  0.62522416  0.25218343  0.16740408  1
  O  O165  1  0.62358764  0.24323938  0.41876427  1
  O  O166  1  0.62684531  0.24137923  0.66408562  1
  O  O167  1  0.63138365  0.24230330  0.90838801  1
  O  O168  1  0.62036611  0.50312458  0.16004700  1
  O  O169  1  0.62611811  0.50386738  0.41677803  1
  O  O170  1  0.62415517  0.50225966  0.67169142  1
  O  O171  1  0.62704501  0.49858315  0.90323123  1
  O  O172  1  0.61971334  0.73824733  0.15850053  1
  O  O173  1  0.62481970  0.74258204  0.41211088  1
  O  O174  1  0.62523967  0.75392844  0.66629589  1
  O  O175  1  0.62473366  0.76006077  0.91328597  1
  O  O176  1  0.87925231  0.01143804  0.16095663  1
  O  O177  1  0.87074030  0.00668321  0.41038062  1
  O  O178  1  0.87647395  -0.00868334  0.66085162  1
  O  O179  1  0.87186542  -0.00139498  0.91956079  1
  O  O180  1  0.88023397  0.25385546  0.16675069  1
  O  O181  1  0.86978520  0.24325248  0.41335327  1
  O  O182  1  0.87654083  0.25654766  0.66023478  1
  O  O183  1  0.87614338  0.24904082  0.91447505  1
  O  O184  1  0.87704368  0.49402944  0.16205945  1
  O  O185  1  0.86878003  0.50824748  0.41506400  1
  O  O186  1  0.87799124  0.49902730  0.66624559  1
  O  O187  1  0.87596047  0.49053771  0.90823970  1
  O  O188  1  0.87409650  0.74348780  0.16244323  1
  O  O189  1  0.87069669  0.74017015  0.41197930  1
  O  O190  1  0.87751034  0.75397394  0.66512611  1
  O  O191  1  0.87306501  0.76045245  0.91467977  1
  O  O192  1  0.00135139  0.13179020  0.16860102  1
  O  O193  1  -0.00754815  0.12637291  0.40781003  1
  O  O194  1  0.00021548  0.12454206  0.66353166  1
  O  O195  1  -0.00297257  0.12193249  0.91856436  1
  O  O196  1  0.00063495  0.37614486  0.16500209  1
  O  O197  1  -0.00458201  0.37614569  0.41533071  1
  O  O198  1  -0.00432562  0.37785974  0.66632904  1
  O  O199  1  -0.00598861  0.37034376  0.91231638  1
  O  O200  1  0.00672012  0.61915764  0.15737238  1
  O  O201  1  -0.00806963  0.62247828  0.40650589  1
  O  O202  1  -0.00010119  0.62669420  0.66967540  1
  O  O203  1  0.00034547  0.62806784  0.91675925  1
  O  O204  1  -0.00038334  0.87576512  0.16513678  1
  O  O205  1  -0.00299431  0.87359649  0.41000428  1
  O  O206  1  -0.00315576  0.87229668  0.66240856  1
  O  O207  1  -0.00675518  0.88005480  0.91445039  1
  O  O208  1  0.24755599  0.13207502  0.16739618  1
  O  O209  1  0.25912396  0.12946088  0.41093577  1
  O  O210  1  0.24679785  0.12339076  0.66217168  1
  O  O211  1  0.24192512  0.12290734  0.90364082  1
  O  O212  1  0.25199945  0.37495517  0.16529203  1
  O  O213  1  0.26020490  0.37246101  0.41639249  1
  O  O214  1  0.25150294  0.37785417  0.66605121  1
  O  O215  1  0.24708076  0.36866805  0.91009363  1
  O  O216  1  0.25358931  0.61869369  0.16369520  1
  O  O217  1  0.25293118  0.62044270  0.41083266  1
  O  O218  1  0.25187200  0.62815714  0.66878782  1
  O  O219  1  0.25194960  0.63058306  0.91343844  1
  O  O220  1  0.25056171  0.87723727  0.16887180  1
  O  O221  1  0.25189200  0.87624205  0.40660612  1
  O  O222  1  0.25220965  0.87330372  0.66260607  1
  O  O223  1  0.25578553  0.88166035  0.91213866  1
  O  O224  1  0.49113269  0.13409821  0.15918888  1
  O  O225  1  0.50079850  0.12805025  0.41659459  1
  O  O226  1  0.50694067  0.12294043  0.66381225  1
  O  O227  1  0.50997466  0.12203743  0.90890930  1
  O  O228  1  0.49042192  0.37242680  0.16051655  1
  O  O229  1  0.49575653  0.37202230  0.41869246  1
  O  O230  1  0.49263892  0.37709588  0.66690756  1
  O  O231  1  0.50206950  0.36807383  0.90270381  1
  O  O232  1  0.49645859  0.61909551  0.16143674  1
  O  O233  1  0.50709849  0.62110959  0.41282440  1
  O  O234  1  0.49124088  0.62760984  0.66656413  1
  O  O235  1  0.50030337  0.63000027  0.91382177  1
  O  O236  1  0.50067609  0.87493993  0.16568821  1
  O  O237  1  0.49925741  0.87737423  0.41550284  1
  O  O238  1  0.49232227  0.87370339  0.65885572  1
  O  O239  1  0.50300986  0.88126163  0.91495618  1
  O  O240  1  0.76032378  0.13274722  0.15999446  1
  O  O241  1  0.74544581  0.12598509  0.41305874  1
  O  O242  1  0.74716202  0.12226913  0.66300144  1
  O  O243  1  0.75139501  0.12209849  0.91830600  1
  O  O244  1  0.75629503  0.37456775  0.15991085  1
  O  O245  1  0.74779468  0.37409149  0.42256469  1
  O  O246  1  0.76007455  0.37696348  0.66560443  1
  O  O247  1  0.75776314  0.37019124  0.90954110  1
  O  O248  1  0.74257022  0.61995969  0.15379754  1
  O  O249  1  0.74632490  0.62442457  0.41309947  1
  O  O250  1  0.75669092  0.62706807  0.66584672  1
  O  O251  1  0.74912125  0.62825362  0.91395865  1
  O  O252  1  0.74820820  0.87464379  0.16227087  1
  O  O253  1  0.75076190  0.87485901  0.41709800  1
  O  O254  1  0.75733297  0.87365054  0.66000476  1
  O  O255  1  0.74875724  0.87871823  0.91712926  1
  O  O256  1  0.12487284  0.12936132  0.05606035  1
  O  O257  1  0.12552952  0.13790525  0.28594836  1
  O  O258  1  0.12359656  0.12352581  0.52915887  1
  O  O259  1  0.11736965  0.11839781  0.79644386  1
  O  O260  1  0.12560069  0.37349672  0.04950684  1
  O  O261  1  0.12332923  0.37503768  0.28562569  1
  O  O262  1  0.12292676  0.38302977  0.55245528  1
  O  O263  1  0.12664667  0.36841787  0.78053578  1
  O  O264  1  0.12950097  0.62118125  0.04971293  1
  O  O265  1  0.12773398  0.61595241  0.27940654  1
  O  O266  1  0.12456425  0.62474285  0.55454668  1
  O  O267  1  0.12056773  0.63337920  0.78223728  1
  O  O268  1  0.12927795  0.88450884  0.04271523  1
  O  O269  1  0.12329013  0.87559491  0.27613108  1
  O  O270  1  0.12386331  0.86922089  0.54728526  1
  O  O271  1  0.12145177  0.88387084  0.78686792  1
  O  O272  1  0.37143286  0.12944223  0.04861364  1
  O  O273  1  0.38159540  0.13156999  0.30045281  1
  O  O274  1  0.37874954  0.12818039  0.53842604  1
  O  O275  1  0.38362170  0.11960114  0.78053159  1
  O  O276  1  0.36951572  0.36984744  0.04722151  1
  O  O277  1  0.37907860  0.37469417  0.30029656  1
  O  O278  1  0.37398054  0.37825820  0.55592621  1
  O  O279  1  0.36717183  0.36848461  0.77738534  1
  O  O280  1  0.37415717  0.62247200  0.05041726  1
  O  O281  1  0.37970666  0.61479993  0.28097259  1
  O  O282  1  0.37340347  0.62362893  0.55624801  1
  O  O283  1  0.37413029  0.63760836  0.78188492  1
  O  O284  1  0.37453757  0.88483725  0.04322766  1
  O  O285  1  0.38085242  0.87504225  0.27714407  1
  O  O286  1  0.37235461  0.87187398  0.54538590  1
  O  O287  1  0.37674185  0.88085632  0.79956234  1
  O  O288  1  0.62882031  0.13347251  0.03436879  1
  O  O289  1  0.62381248  0.12894903  0.29887511  1
  O  O290  1  0.62488227  0.12356056  0.54733961  1
  O  O291  1  0.63253523  0.11582683  0.80063622  1
  O  O292  1  0.62417265  0.36560320  0.03358531  1
  O  O293  1  0.62994651  0.37362533  0.28945366  1
  O  O294  1  0.62636566  0.38169707  0.54674735  1
  O  O295  1  0.63262258  0.36907274  0.77597354  1
  O  O296  1  0.62282320  0.62117269  0.04226042  1
  O  O297  1  0.62525178  0.62133021  0.29771801  1
  O  O298  1  0.62272069  0.61897337  0.54260517  1
  O  O299  1  0.62436347  0.63297501  0.78113872  1
  O  O300  1  0.61934015  0.87954855  0.03355706  1
  O  O301  1  0.62529127  0.88195574  0.28943444  1
  O  O302  1  0.62438822  0.87313065  0.53125053  1
  O  O303  1  0.62740872  0.88083055  0.80357732  1
  O  O304  1  0.88066061  0.13091752  0.04967888  1
  O  O305  1  0.86999087  0.12576628  0.29785397  1
  O  O306  1  0.87748403  0.12042752  0.53360564  1
  O  O307  1  0.87464133  0.12165543  0.79891072  1
  O  O308  1  0.87998363  0.37233453  0.05030864  1
  O  O309  1  0.86321255  0.37794590  0.28702769  1
  O  O310  1  0.87741262  0.37889591  0.54862738  1
  O  O311  1  0.87600630  0.36864883  0.79521669  1
  O  O312  1  0.87436289  0.62422543  0.02972178  1
  O  O313  1  0.86969737  0.62140941  0.29486300  1
  O  O314  1  0.87804833  0.62650010  0.55122302  1
  O  O315  1  0.88216290  0.62878512  0.78881598  1
  O  O316  1  0.87512656  0.87497272  0.03697466  1
  O  O317  1  0.87064764  0.87039747  0.28111674  1
  O  O318  1  0.87752677  0.87120647  0.54540922  1
  O  O319  1  0.87178223  0.88054925  0.80321761  1
