# generated using pymatgen
data_VFe(PbO3)2
_symmetry_space_group_name_H-M   'P 1'
_cell_length_a   15.38602032
_cell_length_b   15.37958985
_cell_length_c   18.49016908
_cell_angle_alpha   89.94432961
_cell_angle_beta   89.98493621
_cell_angle_gamma   90.00662097
_symmetry_Int_Tables_number   1
_chemical_formula_structural   VFe(PbO3)2
_chemical_formula_sum   'V32 Fe32 Pb64 O192'
_cell_volume   4375.33907094
_cell_formula_units_Z   32
loop_
 _symmetry_equiv_pos_site_id
 _symmetry_equiv_pos_as_xyz
  1  'x, y, z'
loop_
 _atom_site_type_symbol
 _atom_site_label
 _atom_site_symmetry_multiplicity
 _atom_site_fract_x
 _atom_site_fract_y
 _atom_site_fract_z
 _atom_site_occupancy
  V  V0  1  0.87858572  0.87724815  0.63845617  1
  V  V1  1  0.62643878  0.62698330  0.88403138  1
  V  V2  1  0.87672792  0.37366589  0.64182034  1
  V  V3  1  0.37567875  0.87249425  0.88424974  1
  V  V4  1  0.12679147  0.12442860  0.38512433  1
  V  V5  1  0.62586163  0.87405886  0.88424005  1
  V  V6  1  0.62227459  0.37465582  0.64292184  1
  V  V7  1  0.12693718  0.37629797  0.89653677  1
  V  V8  1  0.87422059  0.37263296  0.38382887  1
  V  V9  1  0.62277287  0.62320026  0.13972542  1
  V  V10  1  0.37798863  0.87308314  0.13671768  1
  V  V11  1  0.37914827  0.37615662  0.13462996  1
  V  V12  1  0.62679569  0.12602620  0.88353324  1
  V  V13  1  0.11886181  0.37422214  0.64305675  1
  V  V14  1  0.12291798  0.12657896  0.64923708  1
  V  V15  1  0.62439148  0.12703745  0.39455362  1
  V  V16  1  0.37379075  0.87634881  0.39257223  1
  V  V17  1  0.12354917  0.87119214  0.64589747  1
  V  V18  1  0.87460347  0.37710058  0.89473543  1
  V  V19  1  0.12828704  0.87873738  0.38705246  1
  V  V20  1  0.87865911  0.62407026  0.63880484  1
  V  V21  1  0.36347535  0.37344540  0.64671354  1
  V  V22  1  0.12767772  0.37035525  0.38377423  1
  V  V23  1  0.37463202  0.87680415  0.63881878  1
  V  V24  1  0.62429455  0.87359959  0.14375769  1
  V  V25  1  0.87613611  0.87224180  0.88934329  1
  V  V26  1  0.62226101  0.37237425  0.39138885  1
  V  V27  1  0.87453817  0.87376300  0.13958609  1
  V  V28  1  0.62206135  0.12430845  0.13632646  1
  V  V29  1  0.12304594  0.62521503  0.89032191  1
  V  V30  1  0.37457203  0.12447194  0.39310689  1
  V  V31  1  0.62359023  0.87669647  0.39615767  1
  Fe  Fe32  1  0.37261780  0.12476495  0.65012672  1
  Fe  Fe33  1  0.12464598  0.37556679  0.12781210  1
  Fe  Fe34  1  0.12538782  0.62353979  0.37924847  1
  Fe  Fe35  1  0.37467516  0.62667663  0.88215151  1
  Fe  Fe36  1  0.87021136  0.62736538  0.13451282  1
  Fe  Fe37  1  0.87704137  0.87771874  0.38154686  1
  Fe  Fe38  1  0.62702044  0.62442377  0.62998082  1
  Fe  Fe39  1  0.86934870  0.37577587  0.13195320  1
  Fe  Fe40  1  0.37821755  0.12491490  0.88068437  1
  Fe  Fe41  1  0.62503057  0.62317817  0.39429626  1
  Fe  Fe42  1  0.12347554  0.61996942  0.63667918  1
  Fe  Fe43  1  0.87567290  0.12339074  0.38486370  1
  Fe  Fe44  1  0.87917967  0.12598097  0.63875047  1
  Fe  Fe45  1  0.12766613  0.87426834  0.12520624  1
  Fe  Fe46  1  0.37188828  0.62396864  0.64190364  1
  Fe  Fe47  1  0.62376615  0.37542978  0.13003906  1
  Fe  Fe48  1  0.12747492  0.12324046  0.12458862  1
  Fe  Fe49  1  0.87506978  0.62583087  0.38051760  1
  Fe  Fe50  1  0.37450271  0.62323280  0.38606572  1
  Fe  Fe51  1  0.87502812  0.62695567  0.89407532  1
  Fe  Fe52  1  0.62766266  0.12511251  0.63637207  1
  Fe  Fe53  1  0.12439527  0.12456722  0.89708607  1
  Fe  Fe54  1  0.37948409  0.62758860  0.13692808  1
  Fe  Fe55  1  0.62619356  0.37884777  0.88476532  1
  Fe  Fe56  1  0.87196410  0.12545861  0.89834372  1
  Fe  Fe57  1  0.38040557  0.12293069  0.12915152  1
  Fe  Fe58  1  0.37600477  0.37831515  0.87984684  1
  Fe  Fe59  1  0.12557832  0.87357165  0.89452601  1
  Fe  Fe60  1  0.63003986  0.87499337  0.63271304  1
  Fe  Fe61  1  0.87050051  0.12162119  0.12588557  1
  Fe  Fe62  1  0.37496499  0.37235179  0.38715277  1
  Fe  Fe63  1  0.12689994  0.62720968  0.13909301  1
  Pb  Pb64  1  0.00232594  0.00521327  -0.00106242  1
  Pb  Pb65  1  -0.00710956  0.00323713  0.24197074  1
  Pb  Pb66  1  -0.00628479  0.00460520  0.49833414  1
  Pb  Pb67  1  0.00888993  -0.00006043  0.76400092  1
  Pb  Pb68  1  0.00297537  0.25064221  0.00383027  1
  Pb  Pb69  1  -0.00315886  0.24455810  0.23216192  1
  Pb  Pb70  1  -0.00402867  0.24551316  0.49681295  1
  Pb  Pb71  1  -0.00157438  0.23574716  0.76596488  1
  Pb  Pb72  1  -0.00001345  0.49698641  0.00758968  1
  Pb  Pb73  1  -0.00219810  0.50342508  0.23745623  1
  Pb  Pb74  1  0.00521604  0.50135725  0.49052079  1
  Pb  Pb75  1  -0.00662182  0.50311785  0.75562055  1
  Pb  Pb76  1  0.01169261  0.74355603  0.00813974  1
  Pb  Pb77  1  0.00066435  0.74329408  0.24555623  1
  Pb  Pb78  1  0.00270965  0.74609000  0.49095196  1
  Pb  Pb79  1  -0.00461768  0.74635808  0.75582915  1
  Pb  Pb80  1  0.25105361  0.00524988  -0.00484149  1
  Pb  Pb81  1  0.24677881  0.00206513  0.23772179  1
  Pb  Pb82  1  0.25458461  0.00480204  0.50591059  1
  Pb  Pb83  1  0.23849003  -0.00352234  0.76158574  1
  Pb  Pb84  1  0.25670517  0.24234053  -0.00394052  1
  Pb  Pb85  1  0.25027167  0.24937819  0.23741123  1
  Pb  Pb86  1  0.25529293  0.24544079  0.50488681  1
  Pb  Pb87  1  0.24702455  0.24083119  0.76301841  1
  Pb  Pb88  1  0.24707710  0.50406391  0.00074809  1
  Pb  Pb89  1  0.25051678  0.50382870  0.24405249  1
  Pb  Pb90  1  0.25113020  0.50897207  0.49966709  1
  Pb  Pb91  1  0.25518054  0.50314338  0.75430199  1
  Pb  Pb92  1  0.24764444  0.74207800  0.00394778  1
  Pb  Pb93  1  0.24655892  0.74184852  0.24831819  1
  Pb  Pb94  1  0.24789344  0.73771741  0.50113890  1
  Pb  Pb95  1  0.25059137  0.74479582  0.75256779  1
  Pb  Pb96  1  0.49723800  0.00203641  -0.00486421  1
  Pb  Pb97  1  0.50124118  -0.00215658  0.25093645  1
  Pb  Pb98  1  0.50682935  0.00117942  0.50894418  1
  Pb  Pb99  1  0.50186161  0.00446526  0.74489188  1
  Pb  Pb100  1  0.49909050  0.25542119  -0.00953147  1
  Pb  Pb101  1  0.49464108  0.25706721  0.24892430  1
  Pb  Pb102  1  0.49749551  0.24065977  0.50891248  1
  Pb  Pb103  1  0.49571302  0.25155867  0.75373517  1
  Pb  Pb104  1  0.49477390  0.50203250  -0.00733111  1
  Pb  Pb105  1  0.49034110  0.49972168  0.25579525  1
  Pb  Pb106  1  0.49177372  0.50727252  0.50269545  1
  Pb  Pb107  1  0.50129056  0.49384661  0.75090396  1
  Pb  Pb108  1  0.49563529  0.74573713  -0.00192862  1
  Pb  Pb109  1  0.50183897  0.73867411  0.26036317  1
  Pb  Pb110  1  0.49919494  0.74349293  0.50275945  1
  Pb  Pb111  1  0.50296615  0.74171405  0.74118395  1
  Pb  Pb112  1  0.75038666  0.00031335  -0.00014816  1
  Pb  Pb113  1  0.75820399  0.00052817  0.25525697  1
  Pb  Pb114  1  0.74699338  0.00132243  0.50278190  1
  Pb  Pb115  1  0.75540590  0.00694876  0.74864361  1
  Pb  Pb116  1  0.74973691  0.26279247  0.00419984  1
  Pb  Pb117  1  0.75339011  0.24775341  0.24244755  1
  Pb  Pb118  1  0.75268940  0.24232973  0.50188978  1
  Pb  Pb119  1  0.75568014  0.24550283  0.75370025  1
  Pb  Pb120  1  0.75468634  0.50027917  0.00371781  1
  Pb  Pb121  1  0.75094221  0.50443486  0.24749776  1
  Pb  Pb122  1  0.74887848  0.50257564  0.49656890  1
  Pb  Pb123  1  0.74787651  0.49703007  0.75210353  1
  Pb  Pb124  1  0.75184022  0.74689149  0.00215099  1
  Pb  Pb125  1  0.74843305  0.74284213  0.25866911  1
  Pb  Pb126  1  0.74944809  0.74904408  0.49661194  1
  Pb  Pb127  1  0.75487315  0.74349094  0.74643296  1
  O  O128  1  0.12847686  -0.00313455  0.15516801  1
  O  O129  1  0.12884759  0.00169635  0.41619150  1
  O  O130  1  0.12226241  0.00337095  0.67094847  1
  O  O131  1  0.12536448  -0.00278816  0.91638840  1
  O  O132  1  0.12854423  0.24916897  0.15679738  1
  O  O133  1  0.12479498  0.24868021  0.41317766  1
  O  O134  1  0.12157316  0.24930608  0.67335676  1
  O  O135  1  0.12226503  0.25888721  0.91376515  1
  O  O136  1  0.12710945  0.49876406  0.16098039  1
  O  O137  1  0.12362390  0.48968102  0.40474606  1
  O  O138  1  0.12239074  0.49239781  0.66866056  1
  O  O139  1  0.12352679  0.50296822  0.91679726  1
  O  O140  1  0.12608574  0.75656917  0.16554639  1
  O  O141  1  0.12809126  0.75941548  0.40688750  1
  O  O142  1  0.12230583  0.75504124  0.66304823  1
  O  O143  1  0.12419172  0.74321288  0.91089893  1
  O  O144  1  0.38256636  -0.00777134  0.16226719  1
  O  O145  1  0.37363410  0.00152265  0.42340604  1
  O  O146  1  0.36854524  -0.00822994  0.66706594  1
  O  O147  1  0.38032125  -0.00775429  0.90734079  1
  O  O148  1  0.38094595  0.25446097  0.15745880  1
  O  O149  1  0.37434806  0.24634739  0.42152650  1
  O  O150  1  0.37620243  0.25757958  0.66974254  1
  O  O151  1  0.37754791  0.25190577  0.90650925  1
  O  O152  1  0.38159064  0.49502710  0.15989947  1
  O  O153  1  0.37445618  0.49555954  0.41700177  1
  O  O154  1  0.37386181  0.49183690  0.66424042  1
  O  O155  1  0.37509570  0.50317198  0.91164900  1
  O  O156  1  0.38289721  0.75883874  0.16454380  1
  O  O157  1  0.37383634  0.75656173  0.41479465  1
  O  O158  1  0.36675241  0.75951841  0.66354436  1
  O  O159  1  0.37928778  0.75445761  0.91092628  1
  O  O160  1  0.62052637  -0.00237632  0.16672413  1
  O  O161  1  0.62162411  0.00087580  0.41883979  1
  O  O162  1  0.62856405  -0.00236796  0.66556807  1
  O  O163  1  0.62445074  -0.00247533  0.91037739  1
  O  O164  1  0.62263956  0.24072317  0.15771121  1
  O  O165  1  0.62480394  0.25182277  0.42073642  1
  O  O166  1  0.63078943  0.25785593  0.66571756  1
  O  O167  1  0.62470368  0.24297633  0.90210080  1
  O  O168  1  0.62477653  0.50740968  0.15633017  1
  O  O169  1  0.62616895  0.48945692  0.41393855  1
  O  O170  1  0.63114167  0.49529704  0.66361829  1
  O  O171  1  0.62622977  0.51131671  0.90733191  1
  O  O172  1  0.62251571  0.75478319  0.16759772  1
  O  O173  1  0.62252352  0.75844565  0.41539692  1
  O  O174  1  0.62783728  0.75016691  0.66090440  1
  O  O175  1  0.62463818  0.75007143  0.91233709  1
  O  O176  1  0.86701599  -0.00539753  0.16163176  1
  O  O177  1  0.87612032  -0.00053375  0.41761326  1
  O  O178  1  0.88019027  -0.00687729  0.66163524  1
  O  O179  1  0.86933486  -0.01038120  0.91428342  1
  O  O180  1  0.86722006  0.24601595  0.15551485  1
  O  O181  1  0.87564003  0.25206400  0.41415948  1
  O  O182  1  0.87695552  0.25719562  0.66610407  1
  O  O183  1  0.87510911  0.25903630  0.91546553  1
  O  O184  1  0.86715361  0.50218407  0.16073133  1
  O  O185  1  0.87605702  0.49215350  0.41013474  1
  O  O186  1  0.87783879  0.49770069  0.66633003  1
  O  O187  1  0.87377124  0.49771591  0.91637369  1
  O  O188  1  0.86582637  0.75823688  0.16249037  1
  O  O189  1  0.87704292  0.75350425  0.41184587  1
  O  O190  1  0.88277436  0.75256226  0.66434850  1
  O  O191  1  0.87063244  0.75689177  0.91807528  1
  O  O192  1  -0.00195002  0.12136395  0.14980378  1
  O  O193  1  0.00609212  0.12466014  0.41202660  1
  O  O194  1  0.00376144  0.12616374  0.67356712  1
  O  O195  1  -0.00262242  0.12520076  0.91763843  1
  O  O196  1  -0.00288876  0.37367594  0.15645453  1
  O  O197  1  0.00287390  0.37020539  0.40935126  1
  O  O198  1  -0.00469514  0.37546378  0.67023896  1
  O  O199  1  -0.00186589  0.38015680  0.91835197  1
  O  O200  1  -0.00317563  0.63002568  0.15727645  1
  O  O201  1  0.00169024  0.62378271  0.40975319  1
  O  O202  1  -0.00161599  0.62386317  0.66946644  1
  O  O203  1  0.00538886  0.62425471  0.91656108  1
  O  O204  1  -0.00872413  0.87629986  0.15132830  1
  O  O205  1  0.01094449  0.87992722  0.41055202  1
  O  O206  1  0.00194263  0.87678664  0.67025539  1
  O  O207  1  -0.00897173  0.87311722  0.91242492  1
  O  O208  1  0.25602935  0.12325636  0.15764618  1
  O  O209  1  0.24933481  0.12577357  0.41988851  1
  O  O210  1  0.24034637  0.12760486  0.67290333  1
  O  O211  1  0.25396987  0.12459830  0.90913073  1
  O  O212  1  0.26074648  0.37515276  0.15541389  1
  O  O213  1  0.24224743  0.36898671  0.40980287  1
  O  O214  1  0.24715166  0.37208420  0.66756238  1
  O  O215  1  0.24520234  0.37975936  0.91015139  1
  O  O216  1  0.25563430  0.62744361  0.16346871  1
  O  O217  1  0.24787341  0.62447587  0.41267760  1
  O  O218  1  0.24551576  0.62356997  0.66963347  1
  O  O219  1  0.24364048  0.62503544  0.91053433  1
  O  O220  1  0.26109381  0.87522720  0.15352976  1
  O  O221  1  0.24696160  0.88018745  0.41789313  1
  O  O222  1  0.24267709  0.87828416  0.66702883  1
  O  O223  1  0.26068819  0.87305347  0.90863025  1
  O  O224  1  0.50497648  0.12091197  0.16547476  1
  O  O225  1  0.49856890  0.12602987  0.42147966  1
  O  O226  1  0.50208677  0.12602370  0.66493553  1
  O  O227  1  0.50854135  0.12069270  0.90713978  1
  O  O228  1  0.49926893  0.37454415  0.16336388  1
  O  O229  1  0.50694128  0.37040334  0.41830032  1
  O  O230  1  0.50485937  0.37626300  0.66006952  1
  O  O231  1  0.50189327  0.37778458  0.91056947  1
  O  O232  1  0.50697840  0.62965161  0.16747220  1
  O  O233  1  0.49838770  0.62525121  0.41867195  1
  O  O234  1  0.50019869  0.62477737  0.65857561  1
  O  O235  1  0.50720331  0.62944338  0.90789801  1
  O  O236  1  0.50368791  0.87554802  0.17097554  1
  O  O237  1  0.49941226  0.87924702  0.42046436  1
  O  O238  1  0.49171192  0.87506241  0.65566405  1
  O  O239  1  0.50072907  0.87330998  0.91061546  1
  O  O240  1  0.73910962  0.11816128  0.15977523  1
  O  O241  1  0.74645850  0.12548818  0.41485431  1
  O  O242  1  0.75428165  0.12657296  0.66722230  1
  O  O243  1  0.73976656  0.12158235  0.91366665  1
  O  O244  1  0.74348916  0.37335147  0.16668357  1
  O  O245  1  0.74786098  0.37065747  0.41384850  1
  O  O246  1  0.75794118  0.37753172  0.66616230  1
  O  O247  1  0.75365653  0.37692015  0.91198642  1
  O  O248  1  0.73929745  0.63241881  0.16524241  1
  O  O249  1  0.75236422  0.62434376  0.41605629  1
  O  O250  1  0.75747467  0.62543317  0.66192011  1
  O  O251  1  0.74262362  0.63053759  0.91191136  1
  O  O252  1  0.74096635  0.87688170  0.16728524  1
  O  O253  1  0.74290369  0.87919666  0.41173216  1
  O  O254  1  0.76256103  0.87207882  0.65924178  1
  O  O255  1  0.74741854  0.87313285  0.91359809  1
  O  O256  1  0.13167800  0.12740037  0.02315596  1
  O  O257  1  0.13045938  0.12260194  0.29412140  1
  O  O258  1  0.12221478  0.12710730  0.55828555  1
  O  O259  1  0.11990471  0.12640621  0.79356098  1
  O  O260  1  0.12421685  0.38123294  0.02741893  1
  O  O261  1  0.12801725  0.36610979  0.29317541  1
  O  O262  1  0.12088774  0.37172489  0.55229479  1
  O  O263  1  0.11999108  0.37930707  0.80535324  1
  O  O264  1  0.13131310  0.63416683  0.03680597  1
  O  O265  1  0.12686682  0.62998056  0.27876293  1
  O  O266  1  0.12657929  0.62203396  0.53633884  1
  O  O267  1  0.12069111  0.62136004  0.79869298  1
  O  O268  1  0.12713483  0.86110322  0.02423221  1
  O  O269  1  0.13114746  0.88423927  0.29638564  1
  O  O270  1  0.12153723  0.87796057  0.55547269  1
  O  O271  1  0.12395783  0.88301438  0.79205359  1
  O  O272  1  0.38154509  0.12111072  0.02929713  1
  O  O273  1  0.37413307  0.12409148  0.30212400  1
  O  O274  1  0.36437607  0.13019637  0.54907296  1
  O  O275  1  0.37729522  0.12881949  0.77839221  1
  O  O276  1  0.38341728  0.37677275  0.04319597  1
  O  O277  1  0.38439176  0.37328343  0.28760261  1
  O  O278  1  0.36715864  0.37030652  0.55509455  1
  O  O279  1  0.38090480  0.38016107  0.77900240  1
  O  O280  1  0.38210262  0.63228946  0.03652357  1
  O  O281  1  0.38247062  0.62171819  0.28496791  1
  O  O282  1  0.36468068  0.62216425  0.54009883  1
  O  O283  1  0.36936199  0.62841035  0.78113543  1
  O  O284  1  0.38643478  0.87240685  0.04543106  1
  O  O285  1  0.37483252  0.88123555  0.30190612  1
  O  O286  1  0.36676386  0.87835983  0.54769318  1
  O  O287  1  0.37686211  0.87070706  0.79315380  1
  O  O288  1  0.61918617  0.12029362  0.04516474  1
  O  O289  1  0.62084488  0.12757946  0.30360492  1
  O  O290  1  0.62695665  0.12537964  0.53554452  1
  O  O291  1  0.63039281  0.12052345  0.79172858  1
  O  O292  1  0.62855954  0.37123035  0.02982789  1
  O  O293  1  0.62030325  0.36843680  0.30031120  1
  O  O294  1  0.62824570  0.37422356  0.55218005  1
  O  O295  1  0.62808904  0.38572038  0.78410987  1
  O  O296  1  0.62180727  0.63086590  0.04850896  1
  O  O297  1  0.62436259  0.63107463  0.29341314  1
  O  O298  1  0.62872194  0.62320535  0.52921688  1
  O  O299  1  0.62788704  0.63052048  0.79212947  1
  O  O300  1  0.62180946  0.87388458  0.05271493  1
  O  O301  1  0.61840482  0.88051806  0.30482025  1
  O  O302  1  0.62864848  0.88231134  0.53292864  1
  O  O303  1  0.62737676  0.87299347  0.79403669  1
  O  O304  1  0.86488583  0.11662577  0.02483522  1
  O  O305  1  0.87464745  0.11629349  0.28483344  1
  O  O306  1  0.88354396  0.13013742  0.53869444  1
  O  O307  1  0.87118305  0.12941960  0.79568183  1
  O  O308  1  0.86313193  0.37949235  0.03094245  1
  O  O309  1  0.87101690  0.36981334  0.29278624  1
  O  O310  1  0.87841972  0.37526757  0.55097461  1
  O  O311  1  0.87776625  0.37869106  0.80294139  1
  O  O312  1  0.86162187  0.62808910  0.03270806  1
  O  O313  1  0.86738929  0.62794138  0.28004453  1
  O  O314  1  0.88226070  0.62339899  0.54760394  1
  O  O315  1  0.87919419  0.63058494  0.79332867  1
  O  O316  1  0.86207463  0.87499883  0.04874202  1
  O  O317  1  0.87583431  0.88538328  0.28167013  1
  O  O318  1  0.88399308  0.87516256  0.54750527  1
  O  O319  1  0.87460335  0.86942737  0.79764288  1
