# generated using pymatgen
data_VFe(PbO3)2
_symmetry_space_group_name_H-M   'P 1'
_cell_length_a   15.38811693
_cell_length_b   15.38951435
_cell_length_c   18.52386941
_cell_angle_alpha   90.02703363
_cell_angle_beta   89.99453224
_cell_angle_gamma   89.99265012
_symmetry_Int_Tables_number   1
_chemical_formula_structural   VFe(PbO3)2
_chemical_formula_sum   'V32 Fe32 Pb64 O192'
_cell_volume   4386.74156454
_cell_formula_units_Z   32
loop_
 _symmetry_equiv_pos_site_id
 _symmetry_equiv_pos_as_xyz
  1  'x, y, z'
loop_
 _atom_site_type_symbol
 _atom_site_label
 _atom_site_symmetry_multiplicity
 _atom_site_fract_x
 _atom_site_fract_y
 _atom_site_fract_z
 _atom_site_occupancy
  V  V0  1  0.62771112  0.62322805  0.14578746  1
  V  V1  1  0.37398625  0.87690489  0.89614354  1
  V  V2  1  0.62644819  0.87315843  0.13954033  1
  V  V3  1  0.12501758  0.37291832  0.63504538  1
  V  V4  1  0.62835637  0.87488766  0.38690589  1
  V  V5  1  0.62729957  0.37498518  0.14585303  1
  V  V6  1  0.37371172  0.37333137  0.89088770  1
  V  V7  1  0.87589653  0.12229314  0.38703713  1
  V  V8  1  0.62216372  0.37653994  0.88607827  1
  V  V9  1  0.12241626  0.62373180  0.38378107  1
  V  V10  1  0.87611708  0.62499815  0.88687718  1
  V  V11  1  0.13085825  0.37832573  0.14363803  1
  V  V12  1  0.12503947  0.62223861  0.14583969  1
  V  V13  1  0.62764994  0.12539004  0.14256513  1
  V  V14  1  0.37176428  0.12409042  0.63639592  1
  V  V15  1  0.87324193  0.87539687  0.13921261  1
  V  V16  1  0.37405813  0.62616085  0.89114594  1
  V  V17  1  0.62719900  0.62343718  0.39069078  1
  V  V18  1  0.87415054  0.62229660  0.14797273  1
  V  V19  1  0.12676966  0.62545834  0.89142537  1
  V  V20  1  0.13112903  0.12624761  0.89172543  1
  V  V21  1  0.87468782  0.87379674  0.63962560  1
  V  V22  1  0.62229359  0.62502331  0.88663845  1
  V  V23  1  0.87702968  0.37504834  0.14234887  1
  V  V24  1  0.37869654  0.37453633  0.14523222  1
  V  V25  1  0.12209766  0.37188693  0.38527060  1
  V  V26  1  0.62243235  0.87749549  0.64159675  1
  V  V27  1  0.37424879  0.12576929  0.15236869  1
  V  V28  1  0.87680755  0.62594104  0.63605149  1
  V  V29  1  0.62701160  0.12445142  0.39065494  1
  V  V30  1  0.37206353  0.87679565  0.63382985  1
  V  V31  1  0.61890528  0.12204279  0.88860507  1
  Fe  Fe32  1  0.37904393  0.87380372  0.14992726  1
  Fe  Fe33  1  0.12392608  0.87678613  0.63239226  1
  Fe  Fe34  1  0.62525123  0.62908021  0.62877869  1
  Fe  Fe35  1  0.87711466  0.37739505  0.88346337  1
  Fe  Fe36  1  0.62190426  0.87142990  0.88699596  1
  Fe  Fe37  1  0.62434469  0.12232452  0.63167461  1
  Fe  Fe38  1  0.37232894  0.37521626  0.62174623  1
  Fe  Fe39  1  0.62299301  0.37464648  0.62403016  1
  Fe  Fe40  1  0.87680371  0.37500359  0.39642407  1
  Fe  Fe41  1  0.87519228  0.12610017  0.88687489  1
  Fe  Fe42  1  0.37758588  0.61999378  0.15026157  1
  Fe  Fe43  1  0.87588391  0.12309917  0.63616847  1
  Fe  Fe44  1  0.12429315  0.87192246  0.14549795  1
  Fe  Fe45  1  0.12157986  0.12923390  0.14835942  1
  Fe  Fe46  1  0.87498362  0.62762283  0.38369335  1
  Fe  Fe47  1  0.87320991  0.87503972  0.38337985  1
  Fe  Fe48  1  0.12328011  0.62782465  0.63057873  1
  Fe  Fe49  1  0.12157623  0.87444831  0.37317715  1
  Fe  Fe50  1  0.62748047  0.37311945  0.39600635  1
  Fe  Fe51  1  0.87674586  0.37587927  0.62767889  1
  Fe  Fe52  1  0.37237714  0.62994793  0.62565190  1
  Fe  Fe53  1  0.12770134  0.87417214  0.89234735  1
  Fe  Fe54  1  0.12277146  0.12567919  0.37313667  1
  Fe  Fe55  1  0.12336175  0.12217954  0.63259740  1
  Fe  Fe56  1  0.37602055  0.87647458  0.37559408  1
  Fe  Fe57  1  0.37604014  0.62682185  0.38509525  1
  Fe  Fe58  1  0.12875605  0.37693029  0.88665801  1
  Fe  Fe59  1  0.37360903  0.37356439  0.39516990  1
  Fe  Fe60  1  0.37528756  0.12481989  0.88737037  1
  Fe  Fe61  1  0.87465743  0.87363996  0.88694890  1
  Fe  Fe62  1  0.87002613  0.12796847  0.13224485  1
  Fe  Fe63  1  0.37589482  0.12259988  0.37606169  1
  Pb  Pb64  1  -0.00098437  0.00455824  -0.00076515  1
  Pb  Pb65  1  0.00539430  0.00146681  0.24682607  1
  Pb  Pb66  1  0.01228955  -0.00351980  0.49475647  1
  Pb  Pb67  1  -0.00342361  0.00231473  0.74994731  1
  Pb  Pb68  1  -0.00195626  0.24587135  -0.00208810  1
  Pb  Pb69  1  -0.00278079  0.24676701  0.24951474  1
  Pb  Pb70  1  -0.00274250  0.23362999  0.50316944  1
  Pb  Pb71  1  -0.01001225  0.24896429  0.74744439  1
  Pb  Pb72  1  0.00168558  0.49770434  -0.00205234  1
  Pb  Pb73  1  -0.00912022  0.49762970  0.25803952  1
  Pb  Pb74  1  0.00024262  0.50231611  0.49740785  1
  Pb  Pb75  1  0.00308532  0.48797902  0.74995040  1
  Pb  Pb76  1  0.00694342  0.75802124  0.00257355  1
  Pb  Pb77  1  -0.00834162  0.75229296  0.25440522  1
  Pb  Pb78  1  0.00892902  0.75613835  0.49382520  1
  Pb  Pb79  1  0.00279714  0.75813675  0.74944121  1
  Pb  Pb80  1  0.23352194  -0.00072389  0.01665965  1
  Pb  Pb81  1  0.23959367  -0.00730813  0.25073390  1
  Pb  Pb82  1  0.24307500  -0.00186020  0.48095603  1
  Pb  Pb83  1  0.24110505  -0.00388035  0.75019047  1
  Pb  Pb84  1  0.24283070  0.24080456  0.00881651  1
  Pb  Pb85  1  0.26129918  0.25207359  0.26037504  1
  Pb  Pb86  1  0.25055872  0.24275088  0.48901870  1
  Pb  Pb87  1  0.24588836  0.25253040  0.74566975  1
  Pb  Pb88  1  0.25876902  0.50876114  0.00496660  1
  Pb  Pb89  1  0.26606424  0.49776094  0.26484267  1
  Pb  Pb90  1  0.25294168  0.50780120  0.49649324  1
  Pb  Pb91  1  0.25029671  0.50107582  0.73780601  1
  Pb  Pb92  1  0.25439452  0.76090127  0.01516120  1
  Pb  Pb93  1  0.25599867  0.75188191  0.25126570  1
  Pb  Pb94  1  0.25043709  0.74989554  0.48887784  1
  Pb  Pb95  1  0.24216347  0.75162754  0.74494847  1
  Pb  Pb96  1  0.49061968  -0.00853554  0.00756267  1
  Pb  Pb97  1  0.49821349  0.00214908  0.25421714  1
  Pb  Pb98  1  0.50117805  0.00329656  0.49463283  1
  Pb  Pb99  1  0.49325651  0.00538810  0.75218918  1
  Pb  Pb100  1  0.50226583  0.25145483  0.00034216  1
  Pb  Pb101  1  0.50068435  0.25431617  0.26040670  1
  Pb  Pb102  1  0.49966379  0.25525612  0.49653394  1
  Pb  Pb103  1  0.49899521  0.25147054  0.73830193  1
  Pb  Pb104  1  0.49571415  0.50739400  0.00419338  1
  Pb  Pb105  1  0.50320617  0.49215617  0.26171518  1
  Pb  Pb106  1  0.49743709  0.49558219  0.49685386  1
  Pb  Pb107  1  0.49657501  0.50213860  0.72998619  1
  Pb  Pb108  1  0.48718379  0.74842980  0.00999627  1
  Pb  Pb109  1  0.49475981  0.74719997  0.25488697  1
  Pb  Pb110  1  0.49822232  0.74412979  0.49668529  1
  Pb  Pb111  1  0.50240980  0.75280397  0.74562966  1
  Pb  Pb112  1  0.75339449  0.00207474  -0.00437575  1
  Pb  Pb113  1  0.75462039  -0.00323398  0.25083378  1
  Pb  Pb114  1  0.75179093  0.00994333  0.50436727  1
  Pb  Pb115  1  0.75574098  0.00281941  0.75260189  1
  Pb  Pb116  1  0.75438593  0.24868642  -0.00500535  1
  Pb  Pb117  1  0.75034261  0.26250492  0.26004171  1
  Pb  Pb118  1  0.75696633  0.25029595  0.50398747  1
  Pb  Pb119  1  0.75333394  0.25017758  0.73762921  1
  Pb  Pb120  1  0.74773936  0.50037711  -0.00493853  1
  Pb  Pb121  1  0.75189907  0.48844843  0.26408118  1
  Pb  Pb122  1  0.75267471  0.49306968  0.50002404  1
  Pb  Pb123  1  0.74979868  0.49585003  0.73693141  1
  Pb  Pb124  1  0.74854272  0.74982753  -0.00371363  1
  Pb  Pb125  1  0.75684894  0.74814797  0.25578040  1
  Pb  Pb126  1  0.75065728  0.74784700  0.49896203  1
  Pb  Pb127  1  0.74958834  0.76009831  0.75312975  1
  O  O128  1  0.12292889  0.00033241  0.16087027  1
  O  O129  1  0.11906730  0.00140743  0.40099452  1
  O  O130  1  0.12598917  -0.00125394  0.66744597  1
  O  O131  1  0.13016915  0.00609583  0.91869526  1
  O  O132  1  0.12182074  0.26348079  0.16758696  1
  O  O133  1  0.12253273  0.25394596  0.40303533  1
  O  O134  1  0.12658265  0.25371918  0.66151814  1
  O  O135  1  0.13125572  0.24606646  0.91624158  1
  O  O136  1  0.11897928  0.49450721  0.17112157  1
  O  O137  1  0.12434567  0.50104805  0.40973007  1
  O  O138  1  0.12644294  0.49494105  0.65789232  1
  O  O139  1  0.12887651  0.50803588  0.91794596  1
  O  O140  1  0.12137221  0.73799857  0.16531418  1
  O  O141  1  0.12376890  0.74409571  0.40086954  1
  O  O142  1  0.12278144  0.75322416  0.66541176  1
  O  O143  1  0.12881333  0.74110346  0.92018259  1
  O  O144  1  0.38516483  0.00840414  0.16293168  1
  O  O145  1  0.37997337  -0.00024186  0.40650222  1
  O  O146  1  0.37544477  -0.00452727  0.66432994  1
  O  O147  1  0.37681571  -0.00574857  0.91808026  1
  O  O148  1  0.37958776  0.25223793  0.17291115  1
  O  O149  1  0.37478520  0.24412507  0.41105501  1
  O  O150  1  0.37289732  0.24203424  0.65404220  1
  O  O151  1  0.37817850  0.25739265  0.91428511  1
  O  O152  1  0.37775457  0.49299606  0.17329454  1
  O  O153  1  0.37362907  0.50227719  0.40991880  1
  O  O154  1  0.37132654  0.50110658  0.65008933  1
  O  O155  1  0.37625598  0.50007534  0.91891357  1
  O  O156  1  0.37870943  0.74466404  0.16840371  1
  O  O157  1  0.37707020  0.75337271  0.40515329  1
  O  O158  1  0.37622012  0.76175234  0.65875709  1
  O  O159  1  0.37613082  0.74994622  0.92119523  1
  O  O160  1  0.62784831  0.00338635  0.16270639  1
  O  O161  1  0.62844782  -0.00131122  0.41309744  1
  O  O162  1  0.62430407  -0.00701345  0.66633118  1
  O  O163  1  0.61970322  0.00614878  0.91206936  1
  O  O164  1  0.62897031  0.25129635  0.16868378  1
  O  O165  1  0.62898558  0.23987490  0.41040100  1
  O  O166  1  0.62141846  0.24843435  0.65832693  1
  O  O167  1  0.61905655  0.25147505  0.91387617  1
  O  O168  1  0.62804668  0.49868065  0.17251564  1
  O  O169  1  0.62505449  0.50787456  0.40984269  1
  O  O170  1  0.62431990  0.50261247  0.65559848  1
  O  O171  1  0.62246107  0.50127305  0.91736082  1
  O  O172  1  0.62852675  0.74384105  0.16405702  1
  O  O173  1  0.62822999  0.75510359  0.40981437  1
  O  O174  1  0.62452292  0.75747524  0.66479424  1
  O  O175  1  0.62246534  0.74238556  0.91665994  1
  O  O176  1  0.86764696  -0.00706681  0.15606403  1
  O  O177  1  0.87198225  0.00581586  0.41030848  1
  O  O178  1  0.87117850  -0.00882636  0.66301754  1
  O  O179  1  0.87431446  0.00108309  0.91661491  1
  O  O180  1  0.86997023  0.25833203  0.16256143  1
  O  O181  1  0.87176791  0.24061062  0.41319734  1
  O  O182  1  0.87729034  0.25198701  0.65952786  1
  O  O183  1  0.87430876  0.25201754  0.91381211  1
  O  O184  1  0.87299121  0.49553901  0.17040063  1
  O  O185  1  0.87662217  0.50469114  0.41521290  1
  O  O186  1  0.87687612  0.50769037  0.65549635  1
  O  O187  1  0.87633235  0.50497980  0.91800925  1
  O  O188  1  0.86987574  0.74979646  0.16605521  1
  O  O189  1  0.87172684  0.75046393  0.41458861  1
  O  O190  1  0.87345622  0.75274741  0.66401323  1
  O  O191  1  0.87545154  0.74260803  0.91792710  1
  O  O192  1  -0.00816330  0.12932839  0.16243774  1
  O  O193  1  -0.00654703  0.12701315  0.40348902  1
  O  O194  1  0.00087779  0.12195104  0.66730361  1
  O  O195  1  0.01034793  0.12629637  0.91186472  1
  O  O196  1  -0.00551387  0.37691594  0.16331808  1
  O  O197  1  0.00836149  0.37680725  0.41383875  1
  O  O198  1  0.00623888  0.37654062  0.65918800  1
  O  O199  1  0.00391741  0.37745259  0.91801142  1
  O  O200  1  0.00006274  0.61943444  0.16957306  1
  O  O201  1  0.00569189  0.62437784  0.40900820  1
  O  O202  1  -0.00714858  0.62980281  0.66282064  1
  O  O203  1  0.00554601  0.62434604  0.91322681  1
  O  O204  1  -0.01099565  0.86961488  0.15729487  1
  O  O205  1  -0.00132122  0.87297804  0.40659996  1
  O  O206  1  -0.00806190  0.87449340  0.66144716  1
  O  O207  1  0.00159830  0.87328496  0.91956329  1
  O  O208  1  0.25866721  0.12960171  0.16559645  1
  O  O209  1  0.24812754  0.12423879  0.39791138  1
  O  O210  1  0.25547973  0.12132965  0.66190189  1
  O  O211  1  0.25014766  0.12586765  0.92164507  1
  O  O212  1  0.24804019  0.37608941  0.16551220  1
  O  O213  1  0.23804068  0.37535599  0.41204137  1
  O  O214  1  0.24657659  0.37265679  0.65842670  1
  O  O215  1  0.25876887  0.37925256  0.91619463  1
  O  O216  1  0.24082448  0.61710167  0.16773490  1
  O  O217  1  0.24270587  0.62489196  0.40649794  1
  O  O218  1  0.24882849  0.62945014  0.66193018  1
  O  O219  1  0.25029474  0.62427748  0.91924979  1
  O  O220  1  0.25173826  0.87342825  0.16513236  1
  O  O221  1  0.24823493  0.87631536  0.39707946  1
  O  O222  1  0.25624838  0.87686686  0.65708921  1
  O  O223  1  0.25720322  0.87193972  0.92327066  1
  O  O224  1  0.51164655  0.13006034  0.17101230  1
  O  O225  1  0.50831390  0.12116425  0.40737737  1
  O  O226  1  0.49200279  0.11885815  0.66162432  1
  O  O227  1  0.50251656  0.12736380  0.92100859  1
  O  O228  1  0.50307903  0.37448619  0.17108945  1
  O  O229  1  0.50136974  0.37326156  0.41011321  1
  O  O230  1  0.49554568  0.37362359  0.65449979  1
  O  O231  1  0.49628713  0.37888203  0.91855392  1
  O  O232  1  0.51197393  0.61936077  0.17104077  1
  O  O233  1  0.50742171  0.63100725  0.40983264  1
  O  O234  1  0.49809590  0.63145947  0.65792027  1
  O  O235  1  0.49800876  0.62275239  0.91856767  1
  O  O236  1  0.51201190  0.87378980  0.16814159  1
  O  O237  1  0.51144214  0.87673041  0.40904314  1
  O  O238  1  0.49941498  0.87665786  0.66105696  1
  O  O239  1  0.49433104  0.87244179  0.92072538  1
  O  O240  1  0.74450871  0.12669204  0.16644744  1
  O  O241  1  0.75012384  0.12150888  0.41534109  1
  O  O242  1  0.74870425  0.12146069  0.66415059  1
  O  O243  1  0.73734984  0.12827876  0.91089852  1
  O  O244  1  0.75297279  0.37766244  0.17044714  1
  O  O245  1  0.75142649  0.37465685  0.41858393  1
  O  O246  1  0.75009901  0.37751107  0.65405692  1
  O  O247  1  0.74391177  0.37855455  0.91125553  1
  O  O248  1  0.74665678  0.62095976  0.17112305  1
  O  O249  1  0.74485527  0.62870525  0.41195866  1
  O  O250  1  0.75792636  0.62926161  0.66138561  1
  O  O251  1  0.74889345  0.62221417  0.91267759  1
  O  O252  1  0.74849929  0.87175283  0.16723438  1
  O  O253  1  0.74378547  0.87796867  0.41673403  1
  O  O254  1  0.74891020  0.87327253  0.66383095  1
  O  O255  1  0.74720901  0.87229309  0.91777462  1
  O  O256  1  0.13403823  0.13200389  0.04634481  1
  O  O257  1  0.11706464  0.12561231  0.27134958  1
  O  O258  1  0.11727009  0.12199520  0.53242742  1
  O  O259  1  0.13723097  0.12498661  0.80091029  1
  O  O260  1  0.12886406  0.38043292  0.05250119  1
  O  O261  1  0.12077325  0.37690073  0.29401375  1
  O  O262  1  0.12449523  0.37095327  0.54460413  1
  O  O263  1  0.12747630  0.37856621  0.78767464  1
  O  O264  1  0.12395438  0.61801414  0.05487816  1
  O  O265  1  0.12110381  0.61862536  0.29281445  1
  O  O266  1  0.12455348  0.62896966  0.53141413  1
  O  O267  1  0.12973002  0.62698265  0.80071782  1
  O  O268  1  0.13014974  0.86812696  0.04225918  1
  O  O269  1  0.11834198  0.87703938  0.27039846  1
  O  O270  1  0.11766547  0.87794106  0.53214552  1
  O  O271  1  0.13117291  0.87196297  0.79259716  1
  O  O272  1  0.38359591  0.13436434  0.06103288  1
  O  O273  1  0.38510087  0.12911241  0.27442412  1
  O  O274  1  0.37240244  0.11771111  0.54573283  1
  O  O275  1  0.37839928  0.12210311  0.78929300  1
  O  O276  1  0.37731436  0.37422378  0.05411532  1
  O  O277  1  0.36868787  0.37174822  0.29126946  1
  O  O278  1  0.37240254  0.37149957  0.52120799  1
  O  O279  1  0.37504419  0.37635690  0.80028778  1
  O  O280  1  0.37919712  0.61676061  0.04826552  1
  O  O281  1  0.37550011  0.62058479  0.28193463  1
  O  O282  1  0.36923547  0.63601619  0.52490345  1
  O  O283  1  0.37357081  0.62730534  0.80085215  1
  O  O284  1  0.38379492  0.87024433  0.04727048  1
  O  O285  1  0.38380062  0.87640841  0.27362106  1
  O  O286  1  0.37505534  0.87996528  0.54316704  1
  O  O287  1  0.37281157  0.87332547  0.80541689  1
  O  O288  1  0.62401622  0.12847444  0.05181608  1
  O  O289  1  0.63238545  0.12044073  0.29947723  1
  O  O290  1  0.62517125  0.11428480  0.53223429  1
  O  O291  1  0.61336290  0.12329643  0.79787900  1
  O  O292  1  0.62704190  0.37657560  0.05494365  1
  O  O293  1  0.63536841  0.37510022  0.29238715  1
  O  O294  1  0.61987263  0.37559358  0.52272882  1
  O  O295  1  0.61814907  0.37800273  0.79591523  1
  O  O296  1  0.62730470  0.61864305  0.05489835  1
  O  O297  1  0.62686184  0.62626274  0.29927946  1
  O  O298  1  0.62565015  0.63548023  0.52965081  1
  O  O299  1  0.62097579  0.62483047  0.79598904  1
  O  O300  1  0.62541902  0.87359832  0.04822042  1
  O  O301  1  0.63262702  0.87708759  0.29558997  1
  O  O302  1  0.62396238  0.87713314  0.55094170  1
  O  O303  1  0.62184814  0.86748338  0.78797012  1
  O  O304  1  0.86898665  0.12995838  0.03200539  1
  O  O305  1  0.86868331  0.12335465  0.29548074  1
  O  O306  1  0.87742808  0.12556961  0.53542682  1
  O  O307  1  0.87484813  0.12203335  0.78660067  1
  O  O308  1  0.87328276  0.37934298  0.05150730  1
  O  O309  1  0.87095616  0.37509753  0.29386116  1
  O  O310  1  0.87759020  0.37471060  0.52696701  1
  O  O311  1  0.88279991  0.38264197  0.78408319  1
  O  O312  1  0.87342026  0.62189201  0.05716551  1
  O  O313  1  0.87712759  0.63002753  0.28255730  1
  O  O314  1  0.87711418  0.63093628  0.54503429  1
  O  O315  1  0.87674892  0.62389158  0.79640579  1
  O  O316  1  0.86683865  0.86912223  0.04829572  1
  O  O317  1  0.86795618  0.87283376  0.28292251  1
  O  O318  1  0.87274921  0.87234812  0.54890171  1
  O  O319  1  0.87078149  0.87103037  0.78724560  1
