# generated using pymatgen
data_VFe(PbO3)2
_symmetry_space_group_name_H-M   'P 1'
_cell_length_a   15.38999760
_cell_length_b   15.38866955
_cell_length_c   18.53678554
_cell_angle_alpha   89.98110871
_cell_angle_beta   89.99566692
_cell_angle_gamma   90.00476526
_symmetry_Int_Tables_number   1
_chemical_formula_structural   VFe(PbO3)2
_chemical_formula_sum   'V32 Fe32 Pb64 O192'
_cell_volume   4390.09607852
_cell_formula_units_Z   32
loop_
 _symmetry_equiv_pos_site_id
 _symmetry_equiv_pos_as_xyz
  1  'x, y, z'
loop_
 _atom_site_type_symbol
 _atom_site_label
 _atom_site_symmetry_multiplicity
 _atom_site_fract_x
 _atom_site_fract_y
 _atom_site_fract_z
 _atom_site_occupancy
  V  V0  1  0.62595409  0.87472967  0.14666863  1
  V  V1  1  0.37494802  0.62408700  0.13995108  1
  V  V2  1  0.62451315  0.12689275  0.63237882  1
  V  V3  1  0.37785913  0.37475046  0.63997395  1
  V  V4  1  0.12498748  0.62850249  0.89040861  1
  V  V5  1  0.12242058  0.37487018  0.13793208  1
  V  V6  1  0.37204622  0.62382527  0.38416849  1
  V  V7  1  0.12341961  0.87390393  0.88769570  1
  V  V8  1  0.37731180  0.87439032  0.89064947  1
  V  V9  1  0.37710918  0.37461412  0.89108956  1
  V  V10  1  0.12631860  0.62131863  0.39244819  1
  V  V11  1  0.87587998  0.62650079  0.89223000  1
  V  V12  1  0.87519730  0.37334151  0.63727877  1
  V  V13  1  0.12391283  0.37128575  0.39163276  1
  V  V14  1  0.62391567  0.12102575  0.89613162  1
  V  V15  1  0.87294750  0.12438236  0.89035564  1
  V  V16  1  0.12593312  0.86783651  0.39072956  1
  V  V17  1  0.37923813  0.12457139  0.64104752  1
  V  V18  1  0.62264300  0.12499817  0.14982598  1
  V  V19  1  0.37515864  0.37534958  0.14286526  1
  V  V20  1  0.62000140  0.87325656  0.63362604  1
  V  V21  1  0.12792066  0.62405252  0.13824177  1
  V  V22  1  0.87662361  0.12663525  0.14289226  1
  V  V23  1  0.62329764  0.37471173  0.64016056  1
  V  V24  1  0.12654423  0.11682972  0.39215269  1
  V  V25  1  0.87422269  0.37644365  0.38664733  1
  V  V26  1  0.12210791  0.37819180  0.88829166  1
  V  V27  1  0.12533521  0.89046000  0.13690196  1
  V  V28  1  0.62761853  0.37434839  0.14510148  1
  V  V29  1  0.87425358  0.87504073  0.89023333  1
  V  V30  1  0.37237430  0.12482854  0.14391996  1
  V  V31  1  0.37897086  0.62611004  0.63958399  1
  Fe  Fe32  1  0.62426227  0.62761580  0.88776549  1
  Fe  Fe33  1  0.37076133  0.87418744  0.37889569  1
  Fe  Fe34  1  0.62400066  0.37671866  0.37681352  1
  Fe  Fe35  1  0.12984440  0.37558338  0.63697117  1
  Fe  Fe36  1  0.87805543  0.87714817  0.14805323  1
  Fe  Fe37  1  0.62407425  0.62484171  0.14667079  1
  Fe  Fe38  1  0.37071704  0.37668651  0.38146366  1
  Fe  Fe39  1  0.12419587  0.12294524  0.89129585  1
  Fe  Fe40  1  0.87009023  0.12646515  0.62632982  1
  Fe  Fe41  1  0.87979732  0.12826348  0.39759977  1
  Fe  Fe42  1  0.12941271  0.87520386  0.63152802  1
  Fe  Fe43  1  0.87539142  0.37323689  0.13334398  1
  Fe  Fe44  1  0.62529820  0.62407604  0.37480656  1
  Fe  Fe45  1  0.62466060  0.62205713  0.63336306  1
  Fe  Fe46  1  0.37322480  0.87393599  0.14706482  1
  Fe  Fe47  1  0.87715150  0.62284609  0.13894123  1
  Fe  Fe48  1  0.37038634  0.12729904  0.38077569  1
  Fe  Fe49  1  0.12403231  0.62112415  0.63377309  1
  Fe  Fe50  1  0.87806546  0.87366122  0.38352838  1
  Fe  Fe51  1  0.87036415  0.62395904  0.62973420  1
  Fe  Fe52  1  0.37659006  0.87620605  0.63283510  1
  Fe  Fe53  1  0.62463544  0.87436097  0.37713431  1
  Fe  Fe54  1  0.87930646  0.62194296  0.38616376  1
  Fe  Fe55  1  0.62445658  0.12607493  0.37671921  1
  Fe  Fe56  1  0.62572239  0.37474838  0.88802764  1
  Fe  Fe57  1  0.12606860  0.12884926  0.63379285  1
  Fe  Fe58  1  0.12375417  0.13296123  0.13027403  1
  Fe  Fe59  1  0.37631055  0.12529016  0.88661877  1
  Fe  Fe60  1  0.37370252  0.62568228  0.88754746  1
  Fe  Fe61  1  0.87271129  0.37467653  0.88971675  1
  Fe  Fe62  1  0.87348606  0.87527837  0.62722693  1
  Fe  Fe63  1  0.62733960  0.87719153  0.88900876  1
  Pb  Pb64  1  -0.00401964  -0.00512180  0.00203947  1
  Pb  Pb65  1  -0.01605494  0.00590543  0.26373387  1
  Pb  Pb66  1  -0.00778138  -0.00444703  0.50408125  1
  Pb  Pb67  1  0.00030082  0.00160798  0.73582070  1
  Pb  Pb68  1  0.00245349  0.24858092  -0.00104740  1
  Pb  Pb69  1  -0.00665245  0.24140207  0.25632461  1
  Pb  Pb70  1  0.00805194  0.24775486  0.50714138  1
  Pb  Pb71  1  0.00480120  0.24126585  0.74639259  1
  Pb  Pb72  1  -0.01202504  0.50277769  0.00502766  1
  Pb  Pb73  1  -0.00571246  0.50083412  0.24990499  1
  Pb  Pb74  1  0.00354701  0.50409837  0.50504907  1
  Pb  Pb75  1  -0.00359954  0.49937862  0.74393764  1
  Pb  Pb76  1  -0.01075022  0.75218782  0.00734521  1
  Pb  Pb77  1  -0.00742431  0.74778475  0.25358398  1
  Pb  Pb78  1  -0.00967805  0.74915592  0.50259536  1
  Pb  Pb79  1  -0.00252852  0.75114250  0.73591979  1
  Pb  Pb80  1  0.25087580  -0.00014773  -0.00068078  1
  Pb  Pb81  1  0.25914171  0.00375939  0.25563363  1
  Pb  Pb82  1  0.25242564  -0.00798860  0.50235789  1
  Pb  Pb83  1  0.24721438  0.00437084  0.74702717  1
  Pb  Pb84  1  0.24579146  0.24549201  -0.00066112  1
  Pb  Pb85  1  0.25589263  0.24975620  0.25229944  1
  Pb  Pb86  1  0.24469263  0.25128373  0.50230426  1
  Pb  Pb87  1  0.24794973  0.23903482  0.75624272  1
  Pb  Pb88  1  0.24879058  0.50008062  -0.00193776  1
  Pb  Pb89  1  0.25263050  0.49245317  0.25191845  1
  Pb  Pb90  1  0.24269398  0.50032783  0.50416309  1
  Pb  Pb91  1  0.25684321  0.50339875  0.74951098  1
  Pb  Pb92  1  0.25377185  0.75980169  0.00266637  1
  Pb  Pb93  1  0.24981052  0.75046335  0.25134650  1
  Pb  Pb94  1  0.25012548  0.75730292  0.50472211  1
  Pb  Pb95  1  0.24950511  0.75154038  0.74408317  1
  Pb  Pb96  1  0.49031354  -0.00969271  0.00838236  1
  Pb  Pb97  1  0.50210596  -0.00255239  0.25569591  1
  Pb  Pb98  1  0.49547341  -0.00189195  0.48275963  1
  Pb  Pb99  1  0.50668509  -0.00549623  0.75090146  1
  Pb  Pb100  1  0.50150562  0.25031729  0.00333316  1
  Pb  Pb101  1  0.49840699  0.25243906  0.25548064  1
  Pb  Pb102  1  0.49789310  0.25189377  0.48381753  1
  Pb  Pb103  1  0.50004685  0.24870270  0.75179148  1
  Pb  Pb104  1  0.51095998  0.50888832  0.00209315  1
  Pb  Pb105  1  0.50567198  0.49570126  0.25385699  1
  Pb  Pb106  1  0.50614125  0.50270883  0.49177930  1
  Pb  Pb107  1  0.50449530  0.50770886  0.75707074  1
  Pb  Pb108  1  0.50951766  0.74361948  0.00476085  1
  Pb  Pb109  1  0.50906302  0.75372559  0.25497193  1
  Pb  Pb110  1  0.50393688  0.75111769  0.48854218  1
  Pb  Pb111  1  0.50392183  0.74212028  0.75384641  1
  Pb  Pb112  1  0.75550922  -0.00723951  0.00785758  1
  Pb  Pb113  1  0.74421895  0.00099188  0.25748083  1
  Pb  Pb114  1  0.75287681  -0.00218605  0.48606956  1
  Pb  Pb115  1  0.74670830  -0.00332442  0.74015988  1
  Pb  Pb116  1  0.75291576  0.25490915  0.00352112  1
  Pb  Pb117  1  0.74487455  0.24756284  0.25452654  1
  Pb  Pb118  1  0.74795439  0.24653078  0.49095898  1
  Pb  Pb119  1  0.74926969  0.25975728  0.75369227  1
  Pb  Pb120  1  0.75104433  0.50082039  0.00126621  1
  Pb  Pb121  1  0.75615483  0.50967911  0.24958807  1
  Pb  Pb122  1  0.74444632  0.51457336  0.49494805  1
  Pb  Pb123  1  0.74785966  0.49380655  0.75275797  1
  Pb  Pb124  1  0.74829907  0.74314798  0.00555160  1
  Pb  Pb125  1  0.75942651  0.74847765  0.25093484  1
  Pb  Pb126  1  0.75290353  0.74841776  0.48607938  1
  Pb  Pb127  1  0.74574039  0.74661215  0.74132598  1
  O  O128  1  0.12639699  0.00356377  0.14589812  1
  O  O129  1  0.12756467  0.00043699  0.40781697  1
  O  O130  1  0.13026590  0.00310657  0.66206051  1
  O  O131  1  0.12340354  -0.00632149  0.91384527  1
  O  O132  1  0.12867568  0.25837092  0.16177937  1
  O  O133  1  0.12596302  0.25520172  0.41230378  1
  O  O134  1  0.12732780  0.25310614  0.66904650  1
  O  O135  1  0.12412429  0.26011965  0.91409677  1
  O  O136  1  0.12910607  0.49404430  0.16619480  1
  O  O137  1  0.12685913  0.50159880  0.41380496  1
  O  O138  1  0.12744897  0.49792933  0.67031391  1
  O  O139  1  0.12678275  0.49789793  0.91463695  1
  O  O140  1  0.12973140  0.73585792  0.16020025  1
  O  O141  1  0.12737114  0.74833290  0.41122348  1
  O  O142  1  0.12990904  0.74667426  0.66221454  1
  O  O143  1  0.12423687  0.75095813  0.91834071  1
  O  O144  1  0.37066584  0.00613935  0.16611395  1
  O  O145  1  0.36771237  0.00049761  0.40608421  1
  O  O146  1  0.37798558  0.00805722  0.66085068  1
  O  O147  1  0.37334738  -0.00493968  0.91758220  1
  O  O148  1  0.37395091  0.24775011  0.16507069  1
  O  O149  1  0.36881554  0.25236735  0.41143899  1
  O  O150  1  0.38216518  0.25375106  0.66465551  1
  O  O151  1  0.37539531  0.25620459  0.91815135  1
  O  O152  1  0.37398058  0.50183083  0.16566090  1
  O  O153  1  0.36808130  0.50778781  0.41139818  1
  O  O154  1  0.38143138  0.49613204  0.66560297  1
  O  O155  1  0.37383349  0.49164220  0.91558740  1
  O  O156  1  0.36507816  0.74116237  0.16247808  1
  O  O157  1  0.36814080  0.74133365  0.40856155  1
  O  O158  1  0.37866652  0.74287371  0.65976543  1
  O  O159  1  0.37184825  0.75773910  0.91374418  1
  O  O160  1  0.62451856  -0.00118785  0.16884838  1
  O  O161  1  0.62393513  0.00050154  0.40543274  1
  O  O162  1  0.62062806  0.00045672  0.65944965  1
  O  O163  1  0.62675432  0.00497852  0.92439599  1
  O  O164  1  0.62287875  0.25156559  0.16908053  1
  O  O165  1  0.62606565  0.25263385  0.40670091  1
  O  O166  1  0.62195383  0.25207920  0.66312134  1
  O  O167  1  0.62671619  0.24001474  0.92135385  1
  O  O168  1  0.61932357  0.49180005  0.16059451  1
  O  O169  1  0.62350859  0.50066940  0.40754353  1
  O  O170  1  0.62278892  0.49125404  0.66258419  1
  O  O171  1  0.62541644  0.50118435  0.91613129  1
  O  O172  1  0.62262114  0.75677667  0.16447856  1
  O  O173  1  0.62132445  0.74737678  0.40457563  1
  O  O174  1  0.61957631  0.75602666  0.65668864  1
  O  O175  1  0.62618808  0.75307121  0.92064872  1
  O  O176  1  0.87914781  0.00795220  0.17004316  1
  O  O177  1  0.88327564  -0.00051483  0.41065535  1
  O  O178  1  0.87071993  0.00075616  0.65741707  1
  O  O179  1  0.87501567  0.00183196  0.91867953  1
  O  O180  1  0.87539803  0.24635130  0.16584343  1
  O  O181  1  0.88369373  0.26214519  0.41591411  1
  O  O182  1  0.86862987  0.25631610  0.66013733  1
  O  O183  1  0.87229986  0.24209756  0.91282630  1
  O  O184  1  0.87634046  0.49529104  0.16594866  1
  O  O185  1  0.88322127  0.49130649  0.41159159  1
  O  O186  1  0.86770848  0.49123377  0.66368694  1
  O  O187  1  0.87582011  0.50711053  0.91355116  1
  O  O188  1  0.88147637  0.74954842  0.16609068  1
  O  O189  1  0.88277369  0.74812509  0.40883692  1
  O  O190  1  0.87090432  0.75132179  0.65988664  1
  O  O191  1  0.87714270  0.74885340  0.91798643  1
  O  O192  1  -0.00253791  0.12895694  0.16522180  1
  O  O193  1  0.01221587  0.12952393  0.41956607  1
  O  O194  1  -0.00365415  0.12893310  0.65850159  1
  O  O195  1  -0.00872143  0.12479199  0.91342511  1
  O  O196  1  0.00719583  0.37553465  0.15835995  1
  O  O197  1  0.00698503  0.37818033  0.41645765  1
  O  O198  1  -0.00764164  0.37513935  0.65789689  1
  O  O199  1  0.00483460  0.37779034  0.91004605  1
  O  O200  1  0.01118584  0.61582742  0.16147120  1
  O  O201  1  0.00963391  0.62252966  0.41402890  1
  O  O202  1  -0.00385235  0.62046067  0.66115623  1
  O  O203  1  -0.00132383  0.62594607  0.91753130  1
  O  O204  1  0.01663934  0.87247290  0.16833274  1
  O  O205  1  0.01103752  0.87509190  0.41353580  1
  O  O206  1  0.00136718  0.87591485  0.65708160  1
  O  O207  1  -0.00209498  0.87450770  0.91704489  1
  O  O208  1  0.25237768  0.12848851  0.16037370  1
  O  O209  1  0.24134954  0.12970321  0.41424063  1
  O  O210  1  0.26060994  0.13124026  0.66295989  1
  O  O211  1  0.25139165  0.12692827  0.91665018  1
  O  O212  1  0.24951204  0.37577276  0.16444770  1
  O  O213  1  0.24242867  0.37937198  0.41387159  1
  O  O214  1  0.26272810  0.37566937  0.66381065  1
  O  O215  1  0.24965580  0.37514828  0.91388380  1
  O  O216  1  0.24900679  0.61582467  0.16647246  1
  O  O217  1  0.24673713  0.62447989  0.41468560  1
  O  O218  1  0.26066618  0.61879387  0.66253101  1
  O  O219  1  0.24672971  0.62453093  0.91732192  1
  O  O220  1  0.23599148  0.87261949  0.16833888  1
  O  O221  1  0.24470345  0.87316659  0.41382062  1
  O  O222  1  0.25544683  0.87516499  0.66858473  1
  O  O223  1  0.25067704  0.87564945  0.91475897  1
  O  O224  1  0.49510024  0.12520937  0.16752017  1
  O  O225  1  0.49761585  0.12714751  0.40313156  1
  O  O226  1  0.50055193  0.12810184  0.66683950  1
  O  O227  1  0.50516379  0.12267409  0.91880313  1
  O  O228  1  0.49808413  0.37099192  0.16628803  1
  O  O229  1  0.49681425  0.37843397  0.40647537  1
  O  O230  1  0.50133895  0.37355260  0.66639258  1
  O  O231  1  0.49577037  0.37208403  0.91547169  1
  O  O232  1  0.48876435  0.62540083  0.16289100  1
  O  O233  1  0.49017126  0.62364285  0.40330196  1
  O  O234  1  0.49746391  0.62133845  0.66638239  1
  O  O235  1  0.49646919  0.62693390  0.92019982  1
  O  O236  1  0.50205830  0.87731356  0.16477050  1
  O  O237  1  0.49548005  0.87199791  0.40393934  1
  O  O238  1  0.50306830  0.87809237  0.66303914  1
  O  O239  1  0.49411255  0.87782670  0.91551905  1
  O  O240  1  0.75600172  0.12494915  0.16705019  1
  O  O241  1  0.75117048  0.12895155  0.40821634  1
  O  O242  1  0.74238675  0.12589591  0.65817029  1
  O  O243  1  0.75250032  0.12125099  0.92075331  1
  O  O244  1  0.74469578  0.37073021  0.16021590  1
  O  O245  1  0.75833639  0.37504913  0.40269573  1
  O  O246  1  0.74433639  0.37276261  0.66326789  1
  O  O247  1  0.74863995  0.37363092  0.92234713  1
  O  O248  1  0.75072269  0.62478496  0.16464344  1
  O  O249  1  0.75162371  0.62191333  0.40253345  1
  O  O250  1  0.74681988  0.62398888  0.66364725  1
  O  O251  1  0.75733012  0.62846797  0.91433901  1
  O  O252  1  0.74613117  0.87771714  0.16559507  1
  O  O253  1  0.75111021  0.87364606  0.40274776  1
  O  O254  1  0.73846732  0.87680687  0.65656941  1
  O  O255  1  0.75540652  0.87627175  0.92160316  1
  O  O256  1  0.12002514  0.13853767  0.03023219  1
  O  O257  1  0.12288015  0.12604847  0.30059548  1
  O  O258  1  0.13016164  0.13682069  0.53420683  1
  O  O259  1  0.12680090  0.13294908  0.79115050  1
  O  O260  1  0.12584670  0.37766719  0.04668614  1
  O  O261  1  0.12240360  0.37368548  0.30043797  1
  O  O262  1  0.13198625  0.37584284  0.53691822  1
  O  O263  1  0.12530003  0.37794664  0.79776651  1
  O  O264  1  0.13043373  0.62039086  0.04703166  1
  O  O265  1  0.12685017  0.62134724  0.30150549  1
  O  O266  1  0.12658360  0.61406999  0.53398280  1
  O  O267  1  0.12402497  0.62736651  0.79994122  1
  O  O268  1  0.12611187  0.87206324  0.04579609  1
  O  O269  1  0.12828130  0.87064851  0.29984121  1
  O  O270  1  0.13872765  0.87512250  0.53150384  1
  O  O271  1  0.12466392  0.87163571  0.79708422  1
  O  O272  1  0.37716439  0.12435495  0.05244258  1
  O  O273  1  0.36193266  0.12720089  0.28029749  1
  O  O274  1  0.37994346  0.12804054  0.55060599  1
  O  O275  1  0.37691035  0.13024759  0.78772402  1
  O  O276  1  0.37534616  0.37502533  0.05192707  1
  O  O277  1  0.36745722  0.37378332  0.28089951  1
  O  O278  1  0.37925418  0.37636584  0.54948095  1
  O  O279  1  0.37686549  0.37301928  0.80028125  1
  O  O280  1  0.37147225  0.62206343  0.04873064  1
  O  O281  1  0.36689677  0.62290081  0.29320052  1
  O  O282  1  0.38043723  0.62266111  0.54901548  1
  O  O283  1  0.38093342  0.62133237  0.78818239  1
  O  O284  1  0.36717440  0.87956322  0.04669320  1
  O  O285  1  0.36288693  0.87520002  0.27635645  1
  O  O286  1  0.36719804  0.87513649  0.53348292  1
  O  O287  1  0.37749127  0.87683585  0.79988085  1
  O  O288  1  0.62510339  0.12536835  0.05867011  1
  O  O289  1  0.63059707  0.12519848  0.27460683  1
  O  O290  1  0.62080033  0.12797119  0.54185184  1
  O  O291  1  0.62669824  0.12047392  0.80558579  1
  O  O292  1  0.62128359  0.36711803  0.05352191  1
  O  O293  1  0.62141758  0.37508948  0.27669449  1
  O  O294  1  0.62317357  0.37428906  0.54951965  1
  O  O295  1  0.63296699  0.37005561  0.78864653  1
  O  O296  1  0.61835768  0.62846130  0.04482114  1
  O  O297  1  0.61672312  0.62263038  0.27254960  1
  O  O298  1  0.62305781  0.61706382  0.53333787  1
  O  O299  1  0.61588217  0.62908925  0.78715112  1
  O  O300  1  0.62559619  0.87916775  0.05484651  1
  O  O301  1  0.61942058  0.87731645  0.27632231  1
  O  O302  1  0.61708103  0.87439866  0.54295527  1
  O  O303  1  0.62382023  0.88370579  0.79010195  1
  O  O304  1  0.87698299  0.12417761  0.05180952  1
  O  O305  1  0.89153900  0.13088230  0.29512476  1
  O  O306  1  0.87537607  0.12844198  0.52554562  1
  O  O307  1  0.86949539  0.12120311  0.80006395  1
  O  O308  1  0.87587140  0.37744714  0.03321252  1
  O  O309  1  0.88294021  0.37330115  0.29508132  1
  O  O310  1  0.87082510  0.37601708  0.54690337  1
  O  O311  1  0.86030488  0.37521932  0.79033980  1
  O  O312  1  0.88114896  0.62402393  0.03789662  1
  O  O313  1  0.88359604  0.61862150  0.28399111  1
  O  O314  1  0.87426184  0.62159220  0.52892312  1
  O  O315  1  0.87724997  0.62867658  0.80184644  1
  O  O316  1  0.88513978  0.88154894  0.04716724  1
  O  O317  1  0.88674755  0.87443079  0.27986125  1
  O  O318  1  0.87923620  0.87343751  0.52677757  1
  O  O319  1  0.87156154  0.87557190  0.79972672  1
