# generated using pymatgen
data_VFe(PbO3)2
_symmetry_space_group_name_H-M   'P 1'
_cell_length_a   15.38719862
_cell_length_b   15.37763805
_cell_length_c   18.51242423
_cell_angle_alpha   89.99005651
_cell_angle_beta   90.01366137
_cell_angle_gamma   90.01453412
_symmetry_Int_Tables_number   1
_chemical_formula_structural   VFe(PbO3)2
_chemical_formula_sum   'V32 Fe32 Pb64 O192'
_cell_volume   4380.38673735
_cell_formula_units_Z   32
loop_
 _symmetry_equiv_pos_site_id
 _symmetry_equiv_pos_as_xyz
  1  'x, y, z'
loop_
 _atom_site_type_symbol
 _atom_site_label
 _atom_site_symmetry_multiplicity
 _atom_site_fract_x
 _atom_site_fract_y
 _atom_site_fract_z
 _atom_site_occupancy
  V  V0  1  0.62403614  0.62603036  0.13885515  1
  V  V1  1  0.62788576  0.87536818  0.64068268  1
  V  V2  1  0.37662399  0.62418058  0.63798485  1
  V  V3  1  0.62656019  0.87384006  0.39055012  1
  V  V4  1  0.87652779  0.37501579  0.39230215  1
  V  V5  1  0.62541803  0.62243054  0.89273119  1
  V  V6  1  0.87015370  0.37449818  0.89170236  1
  V  V7  1  0.62331586  0.87800702  0.13804916  1
  V  V8  1  0.87520946  0.12470024  0.13935500  1
  V  V9  1  0.12486620  0.37642833  0.89408094  1
  V  V10  1  0.87333433  0.87797917  0.88537383  1
  V  V11  1  0.62350460  0.37265500  0.14120332  1
  V  V12  1  0.87527963  0.12603436  0.64007166  1
  V  V13  1  0.87662147  0.87509295  0.39670201  1
  V  V14  1  0.37502929  0.12331874  0.14309898  1
  V  V15  1  0.87572801  0.12554452  0.39326056  1
  V  V16  1  0.12384183  0.12327701  0.39189268  1
  V  V17  1  0.87688692  0.62410516  0.89482256  1
  V  V18  1  0.12234402  0.37826045  0.63706331  1
  V  V19  1  0.62966768  0.62642108  0.38772855  1
  V  V20  1  0.37351235  0.37337256  0.88925756  1
  V  V21  1  0.62630800  0.37488823  0.39154964  1
  V  V22  1  0.37340826  0.12806258  0.88285162  1
  V  V23  1  0.12791205  0.62580858  0.38557118  1
  V  V24  1  0.37578056  0.37285092  0.14726296  1
  V  V25  1  0.87598047  0.62592786  0.38879712  1
  V  V26  1  0.37183914  0.37663210  0.63518010  1
  V  V27  1  0.87393467  0.87955448  0.13606860  1
  V  V28  1  0.87487493  0.62421762  0.64001235  1
  V  V29  1  0.37543990  0.62252359  0.89100908  1
  V  V30  1  0.62430271  0.62552554  0.63734379  1
  V  V31  1  0.12750868  0.87990641  0.13804315  1
  Fe  Fe32  1  0.87277909  0.87325194  0.63580822  1
  Fe  Fe33  1  0.37684714  0.87564922  0.87886866  1
  Fe  Fe34  1  0.37617277  0.87138328  0.63803913  1
  Fe  Fe35  1  0.37562564  0.62645663  0.14355437  1
  Fe  Fe36  1  0.37911320  0.62436361  0.37840857  1
  Fe  Fe37  1  0.12607383  0.87362579  0.88104603  1
  Fe  Fe38  1  0.62405713  0.12682569  0.88268254  1
  Fe  Fe39  1  0.62500162  0.87220188  0.88383270  1
  Fe  Fe40  1  0.12142863  0.37513051  0.37985883  1
  Fe  Fe41  1  0.37212978  0.37609257  0.38157874  1
  Fe  Fe42  1  0.12528701  0.12659638  0.88108700  1
  Fe  Fe43  1  0.12525541  0.12730514  0.63631541  1
  Fe  Fe44  1  0.63028934  0.12260026  0.39851033  1
  Fe  Fe45  1  0.12524274  0.62641526  0.12901789  1
  Fe  Fe46  1  0.12528818  0.62328800  0.89495293  1
  Fe  Fe47  1  0.62555045  0.37822511  0.63403660  1
  Fe  Fe48  1  0.37749804  0.87899473  0.13672464  1
  Fe  Fe49  1  0.62337099  0.12414119  0.13876511  1
  Fe  Fe50  1  0.12142660  0.87354604  0.39129734  1
  Fe  Fe51  1  0.61995236  0.37858907  0.88529665  1
  Fe  Fe52  1  0.12343936  0.87164483  0.63473929  1
  Fe  Fe53  1  0.37576848  0.12473442  0.39629727  1
  Fe  Fe54  1  0.12702632  0.62272068  0.63404930  1
  Fe  Fe55  1  0.12384274  0.37002907  0.14080859  1
  Fe  Fe56  1  0.62493315  0.12654921  0.62703109  1
  Fe  Fe57  1  0.87642871  0.37763143  0.63351367  1
  Fe  Fe58  1  0.87050525  0.37219128  0.13303607  1
  Fe  Fe59  1  0.37499546  0.12610500  0.62651557  1
  Fe  Fe60  1  0.37348992  0.87294095  0.38709662  1
  Fe  Fe61  1  0.12594229  0.12244556  0.13669884  1
  Fe  Fe62  1  0.87533522  0.12748562  0.88064824  1
  Fe  Fe63  1  0.87461169  0.62780887  0.13180831  1
  Pb  Pb64  1  0.00850889  0.00803988  -0.00776239  1
  Pb  Pb65  1  0.00551505  -0.00674973  0.25395379  1
  Pb  Pb66  1  0.00985408  -0.00268613  0.50951795  1
  Pb  Pb67  1  0.00765349  -0.00350330  0.74481429  1
  Pb  Pb68  1  0.00754814  0.24916061  0.00330309  1
  Pb  Pb69  1  0.00334842  0.25463777  0.24801957  1
  Pb  Pb70  1  0.00319322  0.24602905  0.50319096  1
  Pb  Pb71  1  -0.00203157  0.24082330  0.75293243  1
  Pb  Pb72  1  -0.00041246  0.48988992  0.00841455  1
  Pb  Pb73  1  0.00099974  0.49941795  0.23762657  1
  Pb  Pb74  1  -0.00021902  0.50230668  0.49913486  1
  Pb  Pb75  1  0.00648400  0.50822385  0.75371898  1
  Pb  Pb76  1  0.00310029  0.74540801  -0.00231221  1
  Pb  Pb77  1  0.00577942  0.75482330  0.24620911  1
  Pb  Pb78  1  0.01087514  0.74921569  0.50868931  1
  Pb  Pb79  1  0.00969928  0.75216797  0.74964469  1
  Pb  Pb80  1  0.25190728  -0.00468993  -0.00975438  1
  Pb  Pb81  1  0.25957298  -0.00256875  0.25862850  1
  Pb  Pb82  1  0.25491029  -0.00703406  0.50271573  1
  Pb  Pb83  1  0.24879187  -0.00321062  0.73802583  1
  Pb  Pb84  1  0.24124930  0.25013389  0.00462114  1
  Pb  Pb85  1  0.24881011  0.25216889  0.25494498  1
  Pb  Pb86  1  0.24971302  0.24661526  0.49547015  1
  Pb  Pb87  1  0.24794251  0.24403910  0.74556318  1
  Pb  Pb88  1  0.24875093  0.50571623  0.00854716  1
  Pb  Pb89  1  0.24498381  0.50261321  0.24557534  1
  Pb  Pb90  1  0.25019046  0.50007382  0.49004912  1
  Pb  Pb91  1  0.24670838  0.50778612  0.75271276  1
  Pb  Pb92  1  0.24992455  0.74909649  -0.00236553  1
  Pb  Pb93  1  0.25391851  0.75239938  0.24626053  1
  Pb  Pb94  1  0.25230528  0.75933373  0.50111550  1
  Pb  Pb95  1  0.24367202  0.75729495  0.74881119  1
  Pb  Pb96  1  0.49849675  -0.00482083  -0.00669325  1
  Pb  Pb97  1  0.49053771  0.00672712  0.26264097  1
  Pb  Pb98  1  0.49224500  0.00178030  0.50076904  1
  Pb  Pb99  1  0.49607477  0.00004246  0.74152536  1
  Pb  Pb100  1  0.50421487  0.24485853  -0.00285611  1
  Pb  Pb101  1  0.49224403  0.24256585  0.26072380  1
  Pb  Pb102  1  0.49965714  0.24342958  0.49829061  1
  Pb  Pb103  1  0.51395784  0.24616441  0.74223432  1
  Pb  Pb104  1  0.49207765  0.50515989  0.00558074  1
  Pb  Pb105  1  0.49439409  0.49891573  0.25428572  1
  Pb  Pb106  1  0.50419012  0.49723583  0.49532693  1
  Pb  Pb107  1  0.50278017  0.49445636  0.74949759  1
  Pb  Pb108  1  0.48770728  0.75397054  0.00286921  1
  Pb  Pb109  1  0.49138020  0.75251266  0.25090876  1
  Pb  Pb110  1  0.49130904  0.75209402  0.49885079  1
  Pb  Pb111  1  0.49992443  0.75770686  0.75422214  1
  Pb  Pb112  1  0.74172107  0.00647243  -0.00623186  1
  Pb  Pb113  1  0.74402533  0.00518529  0.25417961  1
  Pb  Pb114  1  0.75603630  -0.00269956  0.50588367  1
  Pb  Pb115  1  0.74689389  0.01135756  0.75109149  1
  Pb  Pb116  1  0.74278481  0.24282371  -0.00188049  1
  Pb  Pb117  1  0.74205743  0.24143633  0.25445592  1
  Pb  Pb118  1  0.74627153  0.25551976  0.50722781  1
  Pb  Pb119  1  0.74755526  0.24749313  0.74661682  1
  Pb  Pb120  1  0.75856391  0.49740604  0.00555750  1
  Pb  Pb121  1  0.75323347  0.50022252  0.24531096  1
  Pb  Pb122  1  0.75174934  0.49229480  0.50472200  1
  Pb  Pb123  1  0.74719038  0.49259325  0.74854289  1
  Pb  Pb124  1  0.75362366  0.74571653  0.00068846  1
  Pb  Pb125  1  0.75042694  0.75391395  0.24556733  1
  Pb  Pb126  1  0.75593352  0.75236760  0.50366398  1
  Pb  Pb127  1  0.74579394  0.75223683  0.75291553  1
  O  O128  1  0.12250761  -0.00323603  0.16762152  1
  O  O129  1  0.11832188  0.00547432  0.41685007  1
  O  O130  1  0.12288786  0.00003479  0.65723627  1
  O  O131  1  0.12412985  -0.00041676  0.90872728  1
  O  O132  1  0.12599801  0.24341606  0.17033069  1
  O  O133  1  0.11847694  0.24418999  0.41084136  1
  O  O134  1  0.12703847  0.26291284  0.66141818  1
  O  O135  1  0.12653341  0.25593601  0.91535189  1
  O  O136  1  0.12619254  0.49883943  0.15777073  1
  O  O137  1  0.11686605  0.50791477  0.40867455  1
  O  O138  1  0.12710326  0.49632027  0.66732425  1
  O  O139  1  0.12830647  0.49223891  0.92024284  1
  O  O140  1  0.12309754  0.76109597  0.15993356  1
  O  O141  1  0.11703214  0.74031133  0.41271616  1
  O  O142  1  0.12397481  0.74459363  0.66405239  1
  O  O143  1  0.12467675  0.75074278  0.91543478  1
  O  O144  1  0.37711159  0.00501995  0.16816656  1
  O  O145  1  0.37516933  -0.00375138  0.41822403  1
  O  O146  1  0.37770228  -0.00036907  0.65607406  1
  O  O147  1  0.37603773  0.00869167  0.90430370  1
  O  O148  1  0.37941248  0.24778973  0.16921061  1
  O  O149  1  0.37458187  0.25356433  0.41358375  1
  O  O150  1  0.37162401  0.26126978  0.65319038  1
  O  O151  1  0.37370227  0.24846311  0.91387390  1
  O  O152  1  0.37937641  0.49201671  0.16430276  1
  O  O153  1  0.37776032  0.50182051  0.41156907  1
  O  O154  1  0.37510461  0.50262764  0.66558683  1
  O  O155  1  0.37412726  0.50041845  0.91872188  1
  O  O156  1  0.37736485  0.75488097  0.16496515  1
  O  O157  1  0.37834497  0.74615464  0.41190523  1
  O  O158  1  0.37865618  0.73930104  0.66254090  1
  O  O159  1  0.37803436  0.74132526  0.90984763  1
  O  O160  1  0.62851034  -0.00574302  0.16353991  1
  O  O161  1  0.63208531  -0.01095877  0.41624144  1
  O  O162  1  0.62708734  -0.00623840  0.65589160  1
  O  O163  1  0.62627479  -0.00059561  0.90936378  1
  O  O164  1  0.62409131  0.25444342  0.16685051  1
  O  O165  1  0.63183294  0.25829414  0.41366318  1
  O  O166  1  0.62581983  0.25237539  0.65703682  1
  O  O167  1  0.62342903  0.25392096  0.91515425  1
  O  O168  1  0.62452816  0.49667134  0.16423686  1
  O  O169  1  0.63072990  0.49892823  0.41297512  1
  O  O170  1  0.62274627  0.50532541  0.66569409  1
  O  O171  1  0.62190965  0.50581026  0.91923462  1
  O  O172  1  0.62736939  0.75464953  0.16332341  1
  O  O173  1  0.63152514  0.75255536  0.41526608  1
  O  O174  1  0.62654833  0.74704236  0.66654341  1
  O  O175  1  0.62271493  0.73895999  0.91751597  1
  O  O176  1  0.87198609  0.00102569  0.16794180  1
  O  O177  1  0.87567403  0.00323244  0.41873767  1
  O  O178  1  0.87354794  0.00594185  0.66158950  1
  O  O179  1  0.87143193  -0.00618917  0.90483303  1
  O  O180  1  0.86993300  0.24131908  0.16183875  1
  O  O181  1  0.87682200  0.24671889  0.41512179  1
  O  O182  1  0.87503522  0.24763810  0.66045047  1
  O  O183  1  0.87686355  0.25960235  0.91059708  1
  O  O184  1  0.87050342  0.50047701  0.16168584  1
  O  O185  1  0.87333137  0.50467697  0.41255868  1
  O  O186  1  0.87454832  0.50730469  0.66765473  1
  O  O187  1  0.87636107  0.49727673  0.91950688  1
  O  O188  1  0.87289722  0.75828735  0.16217520  1
  O  O189  1  0.87138571  0.74429914  0.41478195  1
  O  O190  1  0.87069195  0.74063127  0.66484063  1
  O  O191  1  0.87258484  0.74829629  0.91512617  1
  O  O192  1  -0.00900033  0.12174236  0.16305868  1
  O  O193  1  -0.00427061  0.12443201  0.41928878  1
  O  O194  1  -0.00469523  0.12905590  0.66351830  1
  O  O195  1  -0.00100313  0.12781158  0.91072832  1
  O  O196  1  -0.00551989  0.37063381  0.16290771  1
  O  O197  1  -0.00348013  0.37678587  0.41386299  1
  O  O198  1  0.00665556  0.38040985  0.65984446  1
  O  O199  1  0.00393782  0.37750949  0.91478222  1
  O  O200  1  0.00001199  0.62876652  0.15711519  1
  O  O201  1  -0.00819652  0.62488114  0.41207210  1
  O  O202  1  -0.00631367  0.62265536  0.66324630  1
  O  O203  1  -0.00387963  0.62195404  0.91766792  1
  O  O204  1  -0.00028780  0.87917979  0.16334222  1
  O  O205  1  -0.00580748  0.87273376  0.41974239  1
  O  O206  1  -0.00416217  0.87151350  0.66242685  1
  O  O207  1  -0.01045111  0.87113701  0.91013065  1
  O  O208  1  0.25793027  0.12450959  0.16667555  1
  O  O209  1  0.24013203  0.12417112  0.41053499  1
  O  O210  1  0.25171586  0.12989338  0.66012080  1
  O  O211  1  0.25630806  0.12800309  0.90911567  1
  O  O212  1  0.25825120  0.36958298  0.16415046  1
  O  O213  1  0.24456694  0.37841534  0.40998546  1
  O  O214  1  0.25135543  0.38195944  0.66313485  1
  O  O215  1  0.25013944  0.37453729  0.91929431  1
  O  O216  1  0.24787131  0.62755676  0.16516126  1
  O  O217  1  0.24374055  0.62324417  0.39971506  1
  O  O218  1  0.25780698  0.62186848  0.66142323  1
  O  O219  1  0.25834161  0.62177961  0.91487702  1
  O  O220  1  0.24426649  0.88020423  0.15930911  1
  O  O221  1  0.24720735  0.87206212  0.41366655  1
  O  O222  1  0.25043976  0.87001622  0.66003301  1
  O  O223  1  0.25326019  0.87440910  0.90912396  1
  O  O224  1  0.49567992  0.12492143  0.16803814  1
  O  O225  1  0.50467054  0.12461559  0.41514254  1
  O  O226  1  0.49988024  0.12751280  0.65423689  1
  O  O227  1  0.49216239  0.12872879  0.90914214  1
  O  O228  1  0.50436899  0.37303885  0.16916439  1
  O  O229  1  0.50889757  0.37783232  0.40968788  1
  O  O230  1  0.49036032  0.38068214  0.65851093  1
  O  O231  1  0.49225820  0.37679833  0.91718787  1
  O  O232  1  0.50749356  0.62547243  0.16751536  1
  O  O233  1  0.51012913  0.62413064  0.41028485  1
  O  O234  1  0.49857911  0.62253680  0.66363453  1
  O  O235  1  0.49781522  0.62078009  0.91610368  1
  O  O236  1  0.50922152  0.87627092  0.16192148  1
  O  O237  1  0.51019474  0.87235016  0.41235854  1
  O  O238  1  0.50879662  0.86952779  0.66161698  1
  O  O239  1  0.49969170  0.87257697  0.91406505  1
  O  O240  1  0.75359571  0.12206344  0.16870432  1
  O  O241  1  0.76118129  0.12534132  0.41950245  1
  O  O242  1  0.75337377  0.12582074  0.65992275  1
  O  O243  1  0.75208909  0.12821148  0.91394940  1
  O  O244  1  0.74184944  0.37388729  0.16462896  1
  O  O245  1  0.75167834  0.37709750  0.41788233  1
  O  O246  1  0.75226828  0.37979486  0.66302740  1
  O  O247  1  0.75352249  0.38078538  0.90795783  1
  O  O248  1  0.74525149  0.62731055  0.16625586  1
  O  O249  1  0.75282053  0.62421405  0.41629382  1
  O  O250  1  0.74972159  0.62251028  0.66427334  1
  O  O251  1  0.74558559  0.62206629  0.91514081  1
  O  O252  1  0.74769530  0.87590173  0.16436671  1
  O  O253  1  0.75091856  0.87252526  0.42007165  1
  O  O254  1  0.74554921  0.87101080  0.66708010  1
  O  O255  1  0.75547630  0.86883617  0.91328201  1
  O  O256  1  0.12169716  0.12646046  0.03665064  1
  O  O257  1  0.11841675  0.11955653  0.30070626  1
  O  O258  1  0.11704505  0.13194894  0.53600785  1
  O  O259  1  0.12358136  0.13611068  0.78059126  1
  O  O260  1  0.12418775  0.36155434  0.03945739  1
  O  O261  1  0.12280356  0.37122239  0.27978510  1
  O  O262  1  0.12557163  0.38119475  0.54589082  1
  O  O263  1  0.12685820  0.37760769  0.80318038  1
  O  O264  1  0.13336523  0.62720933  0.02795548  1
  O  O265  1  0.11864095  0.62878141  0.29439690  1
  O  O266  1  0.11989979  0.62356989  0.53461099  1
  O  O267  1  0.12472187  0.61447285  0.79363206  1
  O  O268  1  0.12397991  0.88331329  0.04700176  1
  O  O269  1  0.11429265  0.87525534  0.29098784  1
  O  O270  1  0.12169618  0.86701889  0.53186265  1
  O  O271  1  0.12256248  0.86928245  0.78029171  1
  O  O272  1  0.37538869  0.12393958  0.05242831  1
  O  O273  1  0.37852933  0.11736464  0.29349647  1
  O  O274  1  0.37224721  0.12714643  0.52461873  1
  O  O275  1  0.37324945  0.13250808  0.79186278  1
  O  O276  1  0.37966851  0.36906764  0.05649042  1
  O  O277  1  0.38045344  0.37212687  0.28145223  1
  O  O278  1  0.36924943  0.38459191  0.54419715  1
  O  O279  1  0.37258116  0.37559377  0.79851168  1
  O  O280  1  0.37901989  0.62128135  0.04243921  1
  O  O281  1  0.38112286  0.62524121  0.27753097  1
  O  O282  1  0.37821913  0.62317675  0.54676389  1
  O  O283  1  0.37664682  0.61830172  0.80028277  1
  O  O284  1  0.38213016  0.87999174  0.03664230  1
  O  O285  1  0.37780125  0.88301452  0.28543412  1
  O  O286  1  0.37607303  0.86407970  0.53578158  1
  O  O287  1  0.38394769  0.87177437  0.77801641  1
  O  O288  1  0.62861858  0.12818551  0.03905252  1
  O  O289  1  0.63800479  0.12362168  0.29616178  1
  O  O290  1  0.63191792  0.12941213  0.52609690  1
  O  O291  1  0.62863645  0.13095567  0.78202692  1
  O  O292  1  0.62098205  0.37310805  0.05034916  1
  O  O293  1  0.63096786  0.37508349  0.30055118  1
  O  O294  1  0.62903138  0.38152721  0.53368785  1
  O  O295  1  0.61721251  0.38060039  0.78528044  1
  O  O296  1  0.62343561  0.62552984  0.04770205  1
  O  O297  1  0.63153948  0.62795357  0.29679084  1
  O  O298  1  0.62415082  0.62561319  0.54635071  1
  O  O299  1  0.62368378  0.62215091  0.80175697  1
  O  O300  1  0.62475989  0.87716801  0.04675876  1
  O  O301  1  0.62982397  0.87382313  0.29944732  1
  O  O302  1  0.63090435  0.86785341  0.54983007  1
  O  O303  1  0.62484333  0.86541594  0.78435789  1
  O  O304  1  0.87225313  0.12188501  0.04828183  1
  O  O305  1  0.87599555  0.12382553  0.30230993  1
  O  O306  1  0.87738300  0.12617049  0.54860034  1
  O  O307  1  0.87038566  0.13156614  0.78085742  1
  O  O308  1  0.87202556  0.37976750  0.03347319  1
  O  O309  1  0.87096867  0.37341274  0.30125499  1
  O  O310  1  0.87293532  0.38292569  0.53370176  1
  O  O311  1  0.87768146  0.37979511  0.80071459  1
  O  O312  1  0.86457274  0.62658490  0.03182976  1
  O  O313  1  0.87441873  0.62732518  0.29800081  1
  O  O314  1  0.87451370  0.62288155  0.54861102  1
  O  O315  1  0.87407494  0.62170164  0.80391567  1
  O  O316  1  0.87478693  0.88208179  0.04552864  1
  O  O317  1  0.87357020  0.87600591  0.30535448  1
  O  O318  1  0.86535887  0.87230113  0.53571332  1
  O  O319  1  0.87056780  0.87232965  0.79423378  1
