# generated using pymatgen
data_VFe(PbO3)2
_symmetry_space_group_name_H-M   'P 1'
_cell_length_a   15.39506030
_cell_length_b   15.38998698
_cell_length_c   18.49661142
_cell_angle_alpha   90.02208975
_cell_angle_beta   89.97314836
_cell_angle_gamma   89.99775204
_symmetry_Int_Tables_number   1
_chemical_formula_structural   VFe(PbO3)2
_chemical_formula_sum   'V32 Fe32 Pb64 O192'
_cell_volume   4382.39721889
_cell_formula_units_Z   32
loop_
 _symmetry_equiv_pos_site_id
 _symmetry_equiv_pos_as_xyz
  1  'x, y, z'
loop_
 _atom_site_type_symbol
 _atom_site_label
 _atom_site_symmetry_multiplicity
 _atom_site_fract_x
 _atom_site_fract_y
 _atom_site_fract_z
 _atom_site_occupancy
  V  V0  1  0.62468593  0.87653814  0.38447406  1
  V  V1  1  0.87921380  0.37561928  0.13575571  1
  V  V2  1  0.12551106  0.37198425  0.64139903  1
  V  V3  1  0.12869294  0.62273606  0.13302711  1
  V  V4  1  0.11812719  0.37627317  0.89212737  1
  V  V5  1  0.37201595  0.12172805  0.64554003  1
  V  V6  1  0.37763002  0.37392541  0.13451032  1
  V  V7  1  0.37826299  0.12680006  0.38395557  1
  V  V8  1  0.12609803  0.62467184  0.38603128  1
  V  V9  1  0.37371924  0.37199050  0.64358991  1
  V  V10  1  0.86815440  0.37685323  0.89018781  1
  V  V11  1  0.36704462  0.37655331  0.88749061  1
  V  V12  1  0.62488214  0.37703011  0.39098585  1
  V  V13  1  0.62740062  0.87836825  0.89323063  1
  V  V14  1  0.61783613  0.37855079  0.88514979  1
  V  V15  1  0.62376509  0.87708071  0.64478102  1
  V  V16  1  0.12611714  0.87692646  0.64329956  1
  V  V17  1  0.87348564  0.87675531  0.90023160  1
  V  V18  1  0.62930402  0.37785388  0.13661563  1
  V  V19  1  0.37357310  0.87317180  0.89532865  1
  V  V20  1  0.12567248  0.62721898  0.89098409  1
  V  V21  1  0.87632336  0.12309480  0.64236209  1
  V  V22  1  0.37283795  0.62737798  0.64219592  1
  V  V23  1  0.87419856  0.87824672  0.64014981  1
  V  V24  1  0.62741714  0.62805840  0.89679718  1
  V  V25  1  0.88239963  0.37547749  0.38713303  1
  V  V26  1  0.62619383  0.87199655  0.13106316  1
  V  V27  1  0.62301213  0.62899499  0.38926905  1
  V  V28  1  0.62395902  0.12495913  0.64520355  1
  V  V29  1  0.87460823  0.37279028  0.64056361  1
  V  V30  1  0.87793199  0.62322765  0.89659286  1
  V  V31  1  0.62507466  0.62668807  0.64088868  1
  Fe  Fe32  1  0.12472831  0.87466882  0.37547071  1
  Fe  Fe33  1  0.12557522  0.87189251  0.12743615  1
  Fe  Fe34  1  0.37674939  0.12617627  0.89704445  1
  Fe  Fe35  1  0.37724765  0.87410483  0.12749708  1
  Fe  Fe36  1  0.87527004  0.62178902  0.13295084  1
  Fe  Fe37  1  0.12306841  0.62509123  0.63812743  1
  Fe  Fe38  1  0.62243083  0.12600479  0.37895344  1
  Fe  Fe39  1  0.12703586  0.12775590  0.13245485  1
  Fe  Fe40  1  0.37602947  0.12579037  0.12660924  1
  Fe  Fe41  1  0.12484662  0.12570376  0.37780387  1
  Fe  Fe42  1  0.37520364  0.37708831  0.38465282  1
  Fe  Fe43  1  0.87101126  0.12588352  0.37881865  1
  Fe  Fe44  1  0.37621839  0.62284280  0.12693736  1
  Fe  Fe45  1  0.37442937  0.87373605  0.38257878  1
  Fe  Fe46  1  0.12129608  0.87374058  0.89901215  1
  Fe  Fe47  1  0.87303046  0.87357062  0.13220604  1
  Fe  Fe48  1  0.87409384  0.12780674  0.13536026  1
  Fe  Fe49  1  0.62457636  0.62413277  0.13153636  1
  Fe  Fe50  1  0.12811257  0.37648963  0.37812335  1
  Fe  Fe51  1  0.62408164  0.12496270  0.13918401  1
  Fe  Fe52  1  0.87516087  0.87327187  0.37770671  1
  Fe  Fe53  1  0.62722780  0.12760922  0.88966996  1
  Fe  Fe54  1  0.87468972  0.12926035  0.89394192  1
  Fe  Fe55  1  0.87574990  0.62763058  0.63455404  1
  Fe  Fe56  1  0.12490055  0.12481287  0.89352906  1
  Fe  Fe57  1  0.12618502  0.37882044  0.13873993  1
  Fe  Fe58  1  0.62090394  0.37324794  0.64119079  1
  Fe  Fe59  1  0.37433867  0.62221066  0.89805970  1
  Fe  Fe60  1  0.87315911  0.62205109  0.38936484  1
  Fe  Fe61  1  0.37678179  0.62408576  0.38433095  1
  Fe  Fe62  1  0.37682668  0.87766598  0.63961841  1
  Fe  Fe63  1  0.12380675  0.12537924  0.63904036  1
  Pb  Pb64  1  0.00245095  0.00851180  0.00580643  1
  Pb  Pb65  1  0.00455642  -0.00243389  0.23538718  1
  Pb  Pb66  1  0.00170641  0.00129110  0.48552633  1
  Pb  Pb67  1  0.00725731  0.00035478  0.76061985  1
  Pb  Pb68  1  0.00420068  0.24269514  0.00594917  1
  Pb  Pb69  1  0.00731918  0.23895725  0.24633935  1
  Pb  Pb70  1  0.00972765  0.23942664  0.49504948  1
  Pb  Pb71  1  -0.00313246  0.23955675  0.75538242  1
  Pb  Pb72  1  0.00326720  0.49820647  0.00579357  1
  Pb  Pb73  1  -0.00126513  0.50930394  0.24938525  1
  Pb  Pb74  1  0.00475525  0.51266507  0.50408878  1
  Pb  Pb75  1  -0.00002222  0.50084809  0.74703767  1
  Pb  Pb76  1  -0.00833472  0.75357905  0.00952936  1
  Pb  Pb77  1  -0.00227542  0.75844332  0.24264474  1
  Pb  Pb78  1  -0.00095986  0.74892135  0.49316598  1
  Pb  Pb79  1  0.00170256  0.75579929  0.75191330  1
  Pb  Pb80  1  0.24042486  0.00241292  0.00411051  1
  Pb  Pb81  1  0.24622470  -0.00267470  0.23446282  1
  Pb  Pb82  1  0.24520735  -0.00013233  0.49105155  1
  Pb  Pb83  1  0.23705160  -0.00047406  0.76380952  1
  Pb  Pb84  1  0.24638652  0.24174946  0.00373888  1
  Pb  Pb85  1  0.24358670  0.25049188  0.24422991  1
  Pb  Pb86  1  0.24568993  0.24725004  0.49364254  1
  Pb  Pb87  1  0.24964956  0.23777325  0.75745866  1
  Pb  Pb88  1  0.24340030  0.49391592  0.00449590  1
  Pb  Pb89  1  0.25578489  0.49394345  0.24891194  1
  Pb  Pb90  1  0.24894777  0.50002585  0.49507906  1
  Pb  Pb91  1  0.25354468  0.50388487  0.75196145  1
  Pb  Pb92  1  0.25164614  0.75713523  0.00517735  1
  Pb  Pb93  1  0.25517817  0.75979163  0.24275948  1
  Pb  Pb94  1  0.25082405  0.75443382  0.49408912  1
  Pb  Pb95  1  0.24835594  0.75264364  0.75375351  1
  Pb  Pb96  1  0.49474165  0.00270811  0.00334583  1
  Pb  Pb97  1  0.49588144  -0.00207545  0.23845174  1
  Pb  Pb98  1  0.49323780  -0.00407597  0.49772344  1
  Pb  Pb99  1  0.49768211  0.00879961  0.75952892  1
  Pb  Pb100  1  0.50525472  0.23776622  0.00459815  1
  Pb  Pb101  1  0.50030148  0.24759795  0.24569222  1
  Pb  Pb102  1  0.50371415  0.25335528  0.50025976  1
  Pb  Pb103  1  0.49602017  0.24088304  0.75850136  1
  Pb  Pb104  1  0.50218184  0.50563154  0.00494510  1
  Pb  Pb105  1  0.49015124  0.50232385  0.24780693  1
  Pb  Pb106  1  0.50139076  0.49629227  0.50159714  1
  Pb  Pb107  1  0.49159905  0.50680033  0.75434885  1
  Pb  Pb108  1  0.49376564  0.74851954  0.00643973  1
  Pb  Pb109  1  0.48797007  0.74535881  0.24291237  1
  Pb  Pb110  1  0.49115529  0.75616977  0.50156780  1
  Pb  Pb111  1  0.49259583  0.74703856  0.75665041  1
  Pb  Pb112  1  0.75476031  0.01141195  0.00879164  1
  Pb  Pb113  1  0.75886625  0.00255274  0.24245105  1
  Pb  Pb114  1  0.75154815  0.00292624  0.49035651  1
  Pb  Pb115  1  0.75238938  0.00937258  0.75777875  1
  Pb  Pb116  1  0.74887676  0.24086549  0.00659310  1
  Pb  Pb117  1  0.74923165  0.24072771  0.25041542  1
  Pb  Pb118  1  0.74529630  0.25166119  0.49786480  1
  Pb  Pb119  1  0.75042920  0.24038289  0.75621545  1
  Pb  Pb120  1  0.74919807  0.50539913  0.00557857  1
  Pb  Pb121  1  0.75354679  0.50649087  0.24917409  1
  Pb  Pb122  1  0.74941630  0.49830797  0.50330775  1
  Pb  Pb123  1  0.74753692  0.50036901  0.74720829  1
  Pb  Pb124  1  0.75634265  0.74866192  0.00844086  1
  Pb  Pb125  1  0.75933066  0.74815681  0.24461336  1
  Pb  Pb126  1  0.75503412  0.74748511  0.49745165  1
  Pb  Pb127  1  0.75161902  0.75326919  0.75057849  1
  O  O128  1  0.12447388  -0.00067144  0.14941957  1
  O  O129  1  0.12648931  0.00158894  0.40791138  1
  O  O130  1  0.12342553  -0.00451516  0.66983981  1
  O  O131  1  0.12453491  -0.00096165  0.91961205  1
  O  O132  1  0.12752532  0.25430901  0.15866774  1
  O  O133  1  0.12656797  0.25079773  0.41151519  1
  O  O134  1  0.12515376  0.25300838  0.66974164  1
  O  O135  1  0.12520815  0.26010175  0.91273343  1
  O  O136  1  0.12506154  0.50711471  0.16404164  1
  O  O137  1  0.12470786  0.50442191  0.41216541  1
  O  O138  1  0.12431595  0.49394027  0.66795037  1
  O  O139  1  0.12554701  0.49926673  0.91676100  1
  O  O140  1  0.12526739  0.73902931  0.15533638  1
  O  O141  1  0.12364095  0.74273199  0.40932344  1
  O  O142  1  0.12318780  0.75755960  0.66835524  1
  O  O143  1  0.12358773  0.74110906  0.91305123  1
  O  O144  1  0.37961515  -0.00057174  0.15281850  1
  O  O145  1  0.37909667  0.00529110  0.41079083  1
  O  O146  1  0.37658938  0.00535013  0.66902686  1
  O  O147  1  0.38384533  -0.00919636  0.91305776  1
  O  O148  1  0.37631770  0.25733986  0.15682763  1
  O  O149  1  0.37850884  0.24444078  0.41108073  1
  O  O150  1  0.37381243  0.24458787  0.67022022  1
  O  O151  1  0.37848024  0.26445760  0.91334646  1
  O  O152  1  0.37860910  0.49533366  0.15763997  1
  O  O153  1  0.37814305  0.50190746  0.42023704  1
  O  O154  1  0.37330340  0.50109457  0.66783993  1
  O  O155  1  0.37673770  0.49013358  0.91676600  1
  O  O156  1  0.37744406  0.74787363  0.15400805  1
  O  O157  1  0.37777269  0.74802040  0.41757858  1
  O  O158  1  0.37502046  0.74986880  0.67106914  1
  O  O159  1  0.38206417  0.75286907  0.91521565  1
  O  O160  1  0.62477609  -0.00670021  0.15602598  1
  O  O161  1  0.62315076  -0.00598390  0.40618675  1
  O  O162  1  0.62533110  0.00175363  0.67213664  1
  O  O163  1  0.62983609  -0.00698079  0.91144834  1
  O  O164  1  0.62340904  0.26248603  0.16328742  1
  O  O165  1  0.62220899  0.25618065  0.41359206  1
  O  O166  1  0.62351259  0.24522094  0.66772299  1
  O  O167  1  0.62934777  0.26390015  0.91070206  1
  O  O168  1  0.62173484  0.49181851  0.16403126  1
  O  O169  1  0.62290981  0.49938481  0.41546354  1
  O  O170  1  0.62428849  0.50408191  0.66730158  1
  O  O171  1  0.63026100  0.49414032  0.91584663  1
  O  O172  1  0.62698266  0.75424879  0.15407770  1
  O  O173  1  0.62592965  0.74762292  0.41184112  1
  O  O174  1  0.62540112  0.74992374  0.67142829  1
  O  O175  1  0.62936323  0.74357516  0.91515929  1
  O  O176  1  0.87213511  -0.00025167  0.15390257  1
  O  O177  1  0.86892098  -0.00099109  0.40862705  1
  O  O178  1  0.87337772  -0.00014246  0.67059934  1
  O  O179  1  0.86948069  -0.00646483  0.91476770  1
  O  O180  1  0.87063513  0.26188138  0.15980543  1
  O  O181  1  0.86828040  0.26135370  0.41359811  1
  O  O182  1  0.87545427  0.25126776  0.66742072  1
  O  O183  1  0.87905589  0.26302320  0.91511599  1
  O  O184  1  0.87207389  0.49291869  0.16477048  1
  O  O185  1  0.86949460  0.49000742  0.41867029  1
  O  O186  1  0.87580975  0.49278847  0.66226499  1
  O  O187  1  0.87918254  0.49550308  0.91765541  1
  O  O188  1  0.87176097  0.74655547  0.15857073  1
  O  O189  1  0.86967825  0.74843956  0.41347682  1
  O  O190  1  0.87437870  0.75643657  0.66664029  1
  O  O191  1  0.87297902  0.74568683  0.91929562  1
  O  O192  1  -0.00079059  0.13068515  0.15572933  1
  O  O193  1  -0.00390713  0.12854320  0.40804502  1
  O  O194  1  -0.00327671  0.12483913  0.66865378  1
  O  O195  1  -0.00150075  0.12715271  0.91772399  1
  O  O196  1  -0.00648334  0.37899909  0.15750893  1
  O  O197  1  -0.00335376  0.37556035  0.40248835  1
  O  O198  1  -0.00339929  0.37225992  0.66713776  1
  O  O199  1  0.00284437  0.37970739  0.91360665  1
  O  O200  1  0.00463781  0.62120281  0.15995163  1
  O  O201  1  0.00353073  0.62175973  0.41241528  1
  O  O202  1  -0.00146797  0.62571925  0.66910074  1
  O  O203  1  0.00484946  0.62051931  0.91681311  1
  O  O204  1  0.00078334  0.86943095  0.15202193  1
  O  O205  1  0.00027181  0.87344329  0.40822769  1
  O  O206  1  0.00035346  0.87740440  0.66850697  1
  O  O207  1  -0.00975199  0.87050315  0.91769469  1
  O  O208  1  0.25355738  0.12686258  0.15381632  1
  O  O209  1  0.25966581  0.12514750  0.40843154  1
  O  O210  1  0.25389145  0.12366723  0.66713499  1
  O  O211  1  0.25133518  0.12834769  0.91542066  1
  O  O212  1  0.25882030  0.37964066  0.15806575  1
  O  O213  1  0.25074691  0.37615724  0.41580047  1
  O  O214  1  0.25130122  0.37309327  0.66983148  1
  O  O215  1  0.24890519  0.37855902  0.91032394  1
  O  O216  1  0.24635388  0.62126597  0.15198622  1
  O  O217  1  0.24470709  0.62435336  0.40954504  1
  O  O218  1  0.25073634  0.62716967  0.66839015  1
  O  O219  1  0.24234924  0.62138111  0.91413487  1
  O  O220  1  0.25074879  0.87104232  0.15303919  1
  O  O221  1  0.24923809  0.87321896  0.41220721  1
  O  O222  1  0.24443846  0.87640475  0.66656306  1
  O  O223  1  0.25739647  0.87066042  0.91049922  1
  O  O224  1  0.49876516  0.13022393  0.16122574  1
  O  O225  1  0.49681797  0.12536594  0.41301590  1
  O  O226  1  0.49677499  0.12483653  0.67087472  1
  O  O227  1  0.50468828  0.12753124  0.91593234  1
  O  O228  1  0.49893719  0.37546358  0.15856913  1
  O  O229  1  0.50455822  0.37606845  0.41736962  1
  O  O230  1  0.49228818  0.37391213  0.67003977  1
  O  O231  1  0.50385376  0.38074090  0.90009954  1
  O  O232  1  0.50120096  0.62240633  0.15826880  1
  O  O233  1  0.50925121  0.62413324  0.41653291  1
  O  O234  1  0.49899210  0.62623522  0.67002364  1
  O  O235  1  0.50998710  0.61835594  0.91396843  1
  O  O236  1  0.50802928  0.87304654  0.15608363  1
  O  O237  1  0.50759767  0.87231480  0.41440304  1
  O  O238  1  0.50470928  0.87612037  0.67129598  1
  O  O239  1  0.51091377  0.86894811  0.91504583  1
  O  O240  1  0.74860845  0.13070109  0.16149052  1
  O  O241  1  0.74542354  0.12824281  0.41382582  1
  O  O242  1  0.75099153  0.12512474  0.66963918  1
  O  O243  1  0.74980678  0.12878355  0.91911434  1
  O  O244  1  0.74689512  0.37868823  0.15761863  1
  O  O245  1  0.74237393  0.37672523  0.41608676  1
  O  O246  1  0.75646543  0.37348635  0.66406874  1
  O  O247  1  0.75458694  0.38023503  0.90894443  1
  O  O248  1  0.74808968  0.61895480  0.16161477  1
  O  O249  1  0.74014741  0.62074049  0.41805455  1
  O  O250  1  0.74859799  0.62539616  0.66554168  1
  O  O251  1  0.74946517  0.61863074  0.91750557  1
  O  O252  1  0.74251800  0.87402931  0.15864003  1
  O  O253  1  0.74012473  0.87240432  0.41200192  1
  O  O254  1  0.74933490  0.87624694  0.67149105  1
  O  O255  1  0.74712792  0.86722434  0.91893618  1
  O  O256  1  0.12519738  0.13172876  0.02832470  1
  O  O257  1  0.12503485  0.13050210  0.27724008  1
  O  O258  1  0.12255737  0.12901316  0.53937029  1
  O  O259  1  0.12599037  0.11853709  0.79046895  1
  O  O260  1  0.12688533  0.38604763  0.03712765  1
  O  O261  1  0.13571814  0.37742746  0.27802334  1
  O  O262  1  0.12504071  0.37247218  0.55033282  1
  O  O263  1  0.11948115  0.37900607  0.80126369  1
  O  O264  1  0.12425593  0.61843058  0.04116195  1
  O  O265  1  0.12315149  0.62259708  0.29533255  1
  O  O266  1  0.11837472  0.62305411  0.53903073  1
  O  O267  1  0.12359610  0.62458896  0.79932996  1
  O  O268  1  0.13121477  0.86655778  0.02363268  1
  O  O269  1  0.12761320  0.87107379  0.27524688  1
  O  O270  1  0.12393116  0.87710308  0.55259823  1
  O  O271  1  0.12148790  0.88006399  0.79660606  1
  O  O272  1  0.38268539  0.12953908  0.02378382  1
  O  O273  1  0.38051339  0.12667284  0.29313078  1
  O  O274  1  0.37568075  0.12373656  0.55484784  1
  O  O275  1  0.38033781  0.12916983  0.79428953  1
  O  O276  1  0.37789718  0.37474385  0.04317944  1
  O  O277  1  0.37467399  0.38441429  0.28541051  1
  O  O278  1  0.37463835  0.37106011  0.55247494  1
  O  O279  1  0.36739108  0.37830353  0.79555580  1
  O  O280  1  0.38426056  0.62164471  0.02419177  1
  O  O281  1  0.38340859  0.62430419  0.28463811  1
  O  O282  1  0.37524957  0.62845335  0.55127564  1
  O  O283  1  0.37838716  0.62027656  0.79692379  1
  O  O284  1  0.38158455  0.86969941  0.02568436  1
  O  O285  1  0.37661662  0.86767693  0.28290682  1
  O  O286  1  0.38235011  0.87609608  0.54006877  1
  O  O287  1  0.37998527  0.87156278  0.80321242  1
  O  O288  1  0.62761650  0.13511889  0.03656103  1
  O  O289  1  0.62366374  0.13335830  0.27935958  1
  O  O290  1  0.62219693  0.12163479  0.55400665  1
  O  O291  1  0.62760437  0.12604629  0.78838680  1
  O  O292  1  0.62678218  0.37832797  0.04487471  1
  O  O293  1  0.62448974  0.37788626  0.30042199  1
  O  O294  1  0.61967994  0.37186322  0.54168324  1
  O  O295  1  0.62819826  0.38099040  0.79380002  1
  O  O296  1  0.62606071  0.61200609  0.03074612  1
  O  O297  1  0.62412038  0.62658196  0.29849243  1
  O  O298  1  0.62290918  0.62792927  0.54996152  1
  O  O299  1  0.62947277  0.62341169  0.80531999  1
  O  O300  1  0.62755420  0.87271581  0.03933313  1
  O  O301  1  0.62320748  0.87135104  0.29425563  1
  O  O302  1  0.62633995  0.87681353  0.55394224  1
  O  O303  1  0.62922241  0.87207048  0.80216426  1
  O  O304  1  0.86924365  0.13013815  0.03171979  1
  O  O305  1  0.86845301  0.13121256  0.27854193  1
  O  O306  1  0.87368878  0.12344400  0.55149799  1
  O  O307  1  0.86977528  0.13134782  0.79206370  1
  O  O308  1  0.87646188  0.37816266  0.04415128  1
  O  O309  1  0.87120742  0.37846959  0.29648138  1
  O  O310  1  0.87695305  0.36998020  0.54999598  1
  O  O311  1  0.87408352  0.37745749  0.79884568  1
  O  O312  1  0.87498467  0.62054656  0.03198656  1
  O  O313  1  0.87082365  0.61492949  0.28926899  1
  O  O314  1  0.87635099  0.62325115  0.53446961  1
  O  O315  1  0.87575219  0.62338047  0.80531773  1
  O  O316  1  0.86945478  0.86513068  0.02974058  1
  O  O317  1  0.87070302  0.86849602  0.27736083  1
  O  O318  1  0.87273309  0.87899770  0.54937611  1
  O  O319  1  0.87053298  0.87080597  0.80872674  1
