# generated using pymatgen
data_VFe(PbO3)2
_symmetry_space_group_name_H-M   'P 1'
_cell_length_a   15.37618330
_cell_length_b   15.39443045
_cell_length_c   18.53892628
_cell_angle_alpha   90.01810359
_cell_angle_beta   90.01430050
_cell_angle_gamma   89.99414334
_symmetry_Int_Tables_number   1
_chemical_formula_structural   VFe(PbO3)2
_chemical_formula_sum   'V32 Fe32 Pb64 O192'
_cell_volume   4388.30407730
_cell_formula_units_Z   32
loop_
 _symmetry_equiv_pos_site_id
 _symmetry_equiv_pos_as_xyz
  1  'x, y, z'
loop_
 _atom_site_type_symbol
 _atom_site_label
 _atom_site_symmetry_multiplicity
 _atom_site_fract_x
 _atom_site_fract_y
 _atom_site_fract_z
 _atom_site_occupancy
  V  V0  1  0.37726510  0.37639457  0.38942942  1
  V  V1  1  0.87401915  0.13364889  0.14166575  1
  V  V2  1  0.37707745  0.87811278  0.63968757  1
  V  V3  1  0.12815625  0.87686305  0.63911284  1
  V  V4  1  0.87633687  0.38014850  0.14318545  1
  V  V5  1  0.37469043  0.12967663  0.13767047  1
  V  V6  1  0.37427584  0.87862274  0.89511495  1
  V  V7  1  0.37304133  0.62916372  0.89131565  1
  V  V8  1  0.87403804  0.62929450  0.13832181  1
  V  V9  1  0.37594842  0.12357371  0.64136352  1
  V  V10  1  0.37387195  0.37618281  0.63727506  1
  V  V11  1  0.87401464  0.62427189  0.39073839  1
  V  V12  1  0.62611135  0.12186118  0.64169914  1
  V  V13  1  0.87366713  0.62710875  0.63755678  1
  V  V14  1  0.62655476  0.62474377  0.39109001  1
  V  V15  1  0.87514952  0.87130736  0.38696437  1
  V  V16  1  0.87565499  0.86469207  0.89249049  1
  V  V17  1  0.87554916  0.61878184  0.88786655  1
  V  V18  1  0.87698950  0.87522140  0.64017200  1
  V  V19  1  0.37565387  0.61945810  0.13821090  1
  V  V20  1  0.62245916  0.62404164  0.89295001  1
  V  V21  1  0.87681774  0.12180231  0.88938724  1
  V  V22  1  0.12956129  0.37466433  0.14000847  1
  V  V23  1  0.62247523  0.37590023  0.14057092  1
  V  V24  1  0.37684758  0.37616591  0.89063617  1
  V  V25  1  0.62633060  0.87304703  0.38469652  1
  V  V26  1  0.12652763  0.37660012  0.38964592  1
  V  V27  1  0.87498390  0.11802741  0.63855553  1
  V  V28  1  0.87701315  0.37180962  0.88563643  1
  V  V29  1  0.87442470  0.88327740  0.13650098  1
  V  V30  1  0.62496596  0.87675333  0.64123999  1
  V  V31  1  0.12466732  0.37710028  0.88788994  1
  Fe  Fe32  1  0.12505962  0.62777966  0.63288446  1
  Fe  Fe33  1  0.37666702  0.87539929  0.14125761  1
  Fe  Fe34  1  0.12567655  0.37276316  0.63264660  1
  Fe  Fe35  1  0.12232398  0.87442452  0.14555378  1
  Fe  Fe36  1  0.12267086  0.61954817  0.14315002  1
  Fe  Fe37  1  0.87591652  0.36996341  0.62973663  1
  Fe  Fe38  1  0.12317171  0.62416765  0.38386757  1
  Fe  Fe39  1  0.87308151  0.12358645  0.38128679  1
  Fe  Fe40  1  0.37687007  0.87261608  0.37279290  1
  Fe  Fe41  1  0.62788263  0.87408562  0.13021038  1
  Fe  Fe42  1  0.62490606  0.12491494  0.37811136  1
  Fe  Fe43  1  0.37667140  0.12677913  0.38124728  1
  Fe  Fe44  1  0.12534830  0.87298768  0.37404235  1
  Fe  Fe45  1  0.12640498  0.62620590  0.88962528  1
  Fe  Fe46  1  0.37284601  0.12671251  0.88541327  1
  Fe  Fe47  1  0.12307606  0.87321989  0.89278969  1
  Fe  Fe48  1  0.12526308  0.12206620  0.63458145  1
  Fe  Fe49  1  0.62410437  0.12762919  0.88733557  1
  Fe  Fe50  1  0.62370007  0.37390391  0.64000111  1
  Fe  Fe51  1  0.62465559  0.37624091  0.38614676  1
  Fe  Fe52  1  0.87443226  0.37603041  0.39230809  1
  Fe  Fe53  1  0.37518773  0.37540557  0.13137458  1
  Fe  Fe54  1  0.37648172  0.62326170  0.38903457  1
  Fe  Fe55  1  0.62358576  0.62870291  0.63582014  1
  Fe  Fe56  1  0.62776111  0.37663867  0.87939639  1
  Fe  Fe57  1  0.62681027  0.87454984  0.89805189  1
  Fe  Fe58  1  0.12335459  0.12863285  0.14342141  1
  Fe  Fe59  1  0.62672152  0.12809299  0.13991031  1
  Fe  Fe60  1  0.12457043  0.12530887  0.37856808  1
  Fe  Fe61  1  0.37581214  0.62980895  0.63199584  1
  Fe  Fe62  1  0.12525821  0.12505485  0.88805604  1
  Fe  Fe63  1  0.62777716  0.62069947  0.13270600  1
  Pb  Pb64  1  0.01154410  0.00318327  0.00627848  1
  Pb  Pb65  1  0.00428644  0.00706409  0.25178628  1
  Pb  Pb66  1  0.01031837  0.00912077  0.49330093  1
  Pb  Pb67  1  0.01031184  -0.00391783  0.75495421  1
  Pb  Pb68  1  0.00384388  0.24695568  0.00218188  1
  Pb  Pb69  1  -0.00498576  0.24647770  0.25713304  1
  Pb  Pb70  1  0.00002400  0.24919782  0.49490387  1
  Pb  Pb71  1  0.00420690  0.24703234  0.74226521  1
  Pb  Pb72  1  0.00584614  0.50470516  0.00249081  1
  Pb  Pb73  1  -0.00023534  0.49838643  0.25620610  1
  Pb  Pb74  1  0.00604834  0.49077887  0.50540262  1
  Pb  Pb75  1  0.00424051  0.50118131  0.74196937  1
  Pb  Pb76  1  0.01825834  0.74814584  0.01199011  1
  Pb  Pb77  1  0.01022415  0.74791193  0.25213370  1
  Pb  Pb78  1  0.00936426  0.74713620  0.49730863  1
  Pb  Pb79  1  0.00843095  0.75024138  0.75341642  1
  Pb  Pb80  1  0.24318513  -0.00019989  0.00511109  1
  Pb  Pb81  1  0.24923176  -0.00531430  0.24460633  1
  Pb  Pb82  1  0.24891682  -0.00058150  0.48279880  1
  Pb  Pb83  1  0.24762670  0.00736237  0.75585427  1
  Pb  Pb84  1  0.24699593  0.24464548  0.00054831  1
  Pb  Pb85  1  0.25426836  0.24137849  0.25301805  1
  Pb  Pb86  1  0.24203124  0.24577095  0.49721629  1
  Pb  Pb87  1  0.24961661  0.24278657  0.74787610  1
  Pb  Pb88  1  0.25336491  0.49780092  0.00211395  1
  Pb  Pb89  1  0.25422445  0.51350963  0.25704710  1
  Pb  Pb90  1  0.24529797  0.50719331  0.50032346  1
  Pb  Pb91  1  0.24417183  0.50906047  0.74398074  1
  Pb  Pb92  1  0.24781421  0.76109949  0.01276472  1
  Pb  Pb93  1  0.24951209  0.75383081  0.24789767  1
  Pb  Pb94  1  0.25194014  0.74790597  0.48658456  1
  Pb  Pb95  1  0.24130548  0.74977527  0.75148050  1
  Pb  Pb96  1  0.50548583  0.00307447  0.00229336  1
  Pb  Pb97  1  0.50263802  0.00057983  0.24136537  1
  Pb  Pb98  1  0.49566409  0.00129437  0.48894780  1
  Pb  Pb99  1  0.50212727  0.00677189  0.75917042  1
  Pb  Pb100  1  0.50678407  0.24430040  -0.00082919  1
  Pb  Pb101  1  0.50120779  0.24344889  0.25158204  1
  Pb  Pb102  1  0.50775749  0.25152346  0.49543705  1
  Pb  Pb103  1  0.50150226  0.24477132  0.75173032  1
  Pb  Pb104  1  0.49711349  0.49801619  -0.00022695  1
  Pb  Pb105  1  0.49590140  0.50393112  0.25146237  1
  Pb  Pb106  1  0.50508886  0.50462537  0.50490443  1
  Pb  Pb107  1  0.50262885  0.50085847  0.74536650  1
  Pb  Pb108  1  0.49650231  0.75884194  0.00870941  1
  Pb  Pb109  1  0.49737764  0.75145559  0.24376415  1
  Pb  Pb110  1  0.49641475  0.74435912  0.49880829  1
  Pb  Pb111  1  0.50170906  0.75361037  0.75081879  1
  Pb  Pb112  1  0.74282209  0.00641818  0.00216712  1
  Pb  Pb113  1  0.74797849  0.00968721  0.24882297  1
  Pb  Pb114  1  0.74985673  0.00260609  0.49432408  1
  Pb  Pb115  1  0.74101592  -0.00389882  0.75818827  1
  Pb  Pb116  1  0.74516041  0.25092019  -0.00198394  1
  Pb  Pb117  1  0.74886583  0.26117927  0.25922420  1
  Pb  Pb118  1  0.74985839  0.25311507  0.49331827  1
  Pb  Pb119  1  0.74480385  0.24969121  0.74705330  1
  Pb  Pb120  1  0.74581698  0.50176588  -0.00073306  1
  Pb  Pb121  1  0.75041629  0.48897684  0.25723499  1
  Pb  Pb122  1  0.74567245  0.48753653  0.50725853  1
  Pb  Pb123  1  0.74528610  0.49329537  0.74405190  1
  Pb  Pb124  1  0.74154696  0.74701856  0.00438033  1
  Pb  Pb125  1  0.74644798  0.74780510  0.24492536  1
  Pb  Pb126  1  0.74546346  0.74494127  0.50330650  1
  Pb  Pb127  1  0.74622722  0.75692874  0.75294719  1
  O  O128  1  0.12075513  0.00251100  0.16250835  1
  O  O129  1  0.12249918  -0.00285255  0.40369766  1
  O  O130  1  0.12414010  -0.00585349  0.66501107  1
  O  O131  1  0.12419055  -0.00104604  0.92002392  1
  O  O132  1  0.11830731  0.26084217  0.16717167  1
  O  O133  1  0.12480082  0.25587869  0.41031421  1
  O  O134  1  0.12578459  0.24689514  0.66276738  1
  O  O135  1  0.12484892  0.25914636  0.91284363  1
  O  O136  1  0.11632128  0.48928465  0.16833759  1
  O  O137  1  0.12423333  0.49598031  0.41328671  1
  O  O138  1  0.12513668  0.50068962  0.66132177  1
  O  O139  1  0.12148112  0.49648943  0.91456689  1
  O  O140  1  0.12049203  0.74461471  0.16386068  1
  O  O141  1  0.12123448  0.75035484  0.40833585  1
  O  O142  1  0.12440308  0.75771036  0.66421353  1
  O  O143  1  0.12354962  0.74878806  0.92176793  1
  O  O144  1  0.37552831  0.01018616  0.15692254  1
  O  O145  1  0.37919925  -0.00221615  0.40604084  1
  O  O146  1  0.37502343  -0.00545773  0.66892620  1
  O  O147  1  0.37424082  -0.00571706  0.91406099  1
  O  O148  1  0.37529911  0.25066008  0.16267429  1
  O  O149  1  0.37432470  0.25982645  0.41564986  1
  O  O150  1  0.37553369  0.24815371  0.66404629  1
  O  O151  1  0.36980344  0.26033603  0.91031685  1
  O  O152  1  0.37689713  0.49989253  0.16677604  1
  O  O153  1  0.37443451  0.49149805  0.41759711  1
  O  O154  1  0.37497697  0.49414250  0.65830734  1
  O  O155  1  0.37280841  0.50093348  0.91658001  1
  O  O156  1  0.37556895  0.73617023  0.15985742  1
  O  O157  1  0.37975611  0.75027753  0.40897088  1
  O  O158  1  0.37385727  0.76257276  0.66448312  1
  O  O159  1  0.37648223  0.74491769  0.91653073  1
  O  O160  1  0.62824368  -0.00014715  0.15868917  1
  O  O161  1  0.62672829  -0.00943850  0.40568560  1
  O  O162  1  0.62491499  -0.00194048  0.67254892  1
  O  O163  1  0.62583882  0.00255407  0.91801901  1
  O  O164  1  0.63121060  0.25917139  0.16385104  1
  O  O165  1  0.62494990  0.24991241  0.41088958  1
  O  O166  1  0.62432714  0.24338251  0.66339675  1
  O  O167  1  0.62529373  0.25472403  0.91385569  1
  O  O168  1  0.63088128  0.49334376  0.16434166  1
  O  O169  1  0.62746678  0.50845732  0.41253957  1
  O  O170  1  0.62426304  0.50276717  0.66401981  1
  O  O171  1  0.62718922  0.50112419  0.91427132  1
  O  O172  1  0.63067643  0.74622156  0.15992334  1
  O  O173  1  0.62732092  0.74917069  0.41457401  1
  O  O174  1  0.62486737  0.75580762  0.66885197  1
  O  O175  1  0.62818789  0.74403515  0.91815242  1
  O  O176  1  0.87507105  0.00011087  0.15676377  1
  O  O177  1  0.86965351  -0.01244293  0.41046007  1
  O  O178  1  0.87366738  -0.00133273  0.66962734  1
  O  O179  1  0.87609529  0.00876537  0.91351562  1
  O  O180  1  0.87307732  0.25124594  0.16417584  1
  O  O181  1  0.87385527  0.24862754  0.41203656  1
  O  O182  1  0.87366926  0.23738815  0.65732039  1
  O  O183  1  0.87814178  0.25112554  0.91472125  1
  O  O184  1  0.87452358  0.49636334  0.16368888  1
  O  O185  1  0.87176094  0.51082388  0.41333980  1
  O  O186  1  0.87539716  0.50996934  0.65633857  1
  O  O187  1  0.87689197  0.50093373  0.91128299  1
  O  O188  1  0.87214482  0.74477473  0.15671269  1
  O  O189  1  0.86934091  0.75071902  0.41770340  1
  O  O190  1  0.87532248  0.75339773  0.66778196  1
  O  O191  1  0.87088337  0.74955017  0.90808906  1
  O  O192  1  -0.00874568  0.12835649  0.16596932  1
  O  O193  1  -0.00140568  0.12310992  0.41027174  1
  O  O194  1  -0.00712690  0.11820928  0.66135925  1
  O  O195  1  -0.00407148  0.12953847  0.91636732  1
  O  O196  1  -0.00725394  0.37335410  0.16816784  1
  O  O197  1  0.00569098  0.37762030  0.41087221  1
  O  O198  1  -0.00219920  0.37358115  0.66372321  1
  O  O199  1  0.00306065  0.37634295  0.91402887  1
  O  O200  1  -0.01194983  0.61865899  0.16799958  1
  O  O201  1  -0.00939185  0.62920204  0.41123885  1
  O  O202  1  -0.00628420  0.63094877  0.66255703  1
  O  O203  1  -0.00938442  0.62601842  0.91352823  1
  O  O204  1  -0.01353961  0.87134051  0.16532142  1
  O  O205  1  -0.00943903  0.86980569  0.40459603  1
  O  O206  1  0.00350743  0.87613092  0.66466701  1
  O  O207  1  -0.01104529  0.87705375  0.91929875  1
  O  O208  1  0.25484272  0.13130679  0.16183352  1
  O  O209  1  0.25044671  0.12782075  0.40859732  1
  O  O210  1  0.25379888  0.11998764  0.66446067  1
  O  O211  1  0.25016982  0.12667449  0.91945729  1
  O  O212  1  0.24409935  0.37618346  0.15568880  1
  O  O213  1  0.24832862  0.37593735  0.41317200  1
  O  O214  1  0.25703069  0.37191490  0.66352459  1
  O  O215  1  0.24438787  0.38051688  0.91289249  1
  O  O216  1  0.25464906  0.61663183  0.16104824  1
  O  O217  1  0.24921940  0.62225505  0.41009665  1
  O  O218  1  0.25186335  0.62966836  0.66312495  1
  O  O219  1  0.25714848  0.62258928  0.91456674  1
  O  O220  1  0.25087942  0.87294999  0.16260774  1
  O  O221  1  0.25086876  0.87336560  0.40141432  1
  O  O222  1  0.24723892  0.87762941  0.66167027  1
  O  O223  1  0.25600600  0.87060468  0.91961846  1
  O  O224  1  0.49545183  0.13106829  0.15986303  1
  O  O225  1  0.50153076  0.12532259  0.41369092  1
  O  O226  1  0.50043737  0.12013909  0.66960391  1
  O  O227  1  0.49601112  0.12770097  0.91669698  1
  O  O228  1  0.50622329  0.37627221  0.15704059  1
  O  O229  1  0.49540490  0.37729429  0.41203890  1
  O  O230  1  0.49144739  0.37158168  0.66504314  1
  O  O231  1  0.49411484  0.38011937  0.90620297  1
  O  O232  1  0.49781650  0.61822263  0.15969968  1
  O  O233  1  0.50848130  0.62533488  0.41235323  1
  O  O234  1  0.49740846  0.63024018  0.66864024  1
  O  O235  1  0.49555681  0.62117374  0.91552268  1
  O  O236  1  0.50366486  0.87181451  0.16030423  1
  O  O237  1  0.51009249  0.87117072  0.40598297  1
  O  O238  1  0.49718832  0.87759692  0.66614576  1
  O  O239  1  0.49337681  0.87090462  0.91776220  1
  O  O240  1  0.75774043  0.12491041  0.16247631  1
  O  O241  1  0.74835368  0.11950646  0.41264595  1
  O  O242  1  0.75218945  0.11863896  0.66518650  1
  O  O243  1  0.75794902  0.13033416  0.91411061  1
  O  O244  1  0.75520512  0.37504641  0.16702409  1
  O  O245  1  0.74812270  0.37930844  0.41826329  1
  O  O246  1  0.75377842  0.37344924  0.66286603  1
  O  O247  1  0.75683807  0.37651807  0.91002590  1
  O  O248  1  0.75862606  0.61863361  0.16459116  1
  O  O249  1  0.74922175  0.62991766  0.41714458  1
  O  O250  1  0.75623342  0.63150554  0.66317551  1
  O  O251  1  0.75640081  0.62293586  0.91470469  1
  O  O252  1  0.75890925  0.87313254  0.16319399  1
  O  O253  1  0.74620735  0.86983243  0.41553181  1
  O  O254  1  0.74998525  0.87590535  0.66753309  1
  O  O255  1  0.76132792  0.87946568  0.91982311  1
  O  O256  1  0.12016951  0.13319044  0.04188322  1
  O  O257  1  0.12000049  0.13171406  0.27742309  1
  O  O258  1  0.12240184  0.11990157  0.53483319  1
  O  O259  1  0.12699001  0.11811985  0.78777300  1
  O  O260  1  0.11924363  0.37645761  0.04858110  1
  O  O261  1  0.12773346  0.37738930  0.29882761  1
  O  O262  1  0.12257789  0.37622461  0.53305308  1
  O  O263  1  0.12404240  0.37740073  0.79709616  1
  O  O264  1  0.11300857  0.61972961  0.04175158  1
  O  O265  1  0.11934514  0.61735439  0.28241719  1
  O  O266  1  0.12092391  0.62827284  0.53317761  1
  O  O267  1  0.12657302  0.63106486  0.78915901  1
  O  O268  1  0.12114983  0.87049335  0.04197616  1
  O  O269  1  0.12123457  0.87031658  0.27279167  1
  O  O270  1  0.12590564  0.87558409  0.54847407  1
  O  O271  1  0.11930918  0.87170107  0.79244579  1
  O  O272  1  0.37330616  0.13335634  0.04625122  1
  O  O273  1  0.37781439  0.13814431  0.28189356  1
  O  O274  1  0.38009609  0.12043192  0.55069973  1
  O  O275  1  0.37281872  0.12212455  0.78514179  1
  O  O276  1  0.37442457  0.38340831  0.03224916  1
  O  O277  1  0.37583003  0.37742892  0.29822157  1
  O  O278  1  0.37439759  0.37265283  0.54689321  1
  O  O279  1  0.36975407  0.37990290  0.80037882  1
  O  O280  1  0.37526716  0.61543857  0.04690088  1
  O  O281  1  0.37855583  0.61119922  0.28841312  1
  O  O282  1  0.38245531  0.62870922  0.53173533  1
  O  O283  1  0.37469740  0.62877561  0.80050290  1
  O  O284  1  0.37549512  0.86562009  0.03956137  1
  O  O285  1  0.37912784  0.87042692  0.27155329  1
  O  O286  1  0.37760040  0.88055323  0.54930198  1
  O  O287  1  0.37309423  0.87385448  0.80432614  1
  O  O288  1  0.62613711  0.13405750  0.03851166  1
  O  O289  1  0.62330514  0.12406640  0.27703335  1
  O  O290  1  0.62437550  0.11620400  0.55108759  1
  O  O291  1  0.62314307  0.12300853  0.78687621  1
  O  O292  1  0.63081876  0.37684028  0.04905812  1
  O  O293  1  0.63461220  0.37687305  0.28601182  1
  O  O294  1  0.62266101  0.37871755  0.53944133  1
  O  O295  1  0.62857547  0.37494976  0.77929046  1
  O  O296  1  0.63497515  0.61953013  0.03316094  1
  O  O297  1  0.62948488  0.62802812  0.29998346  1
  O  O298  1  0.62087697  0.63064494  0.53639215  1
  O  O299  1  0.62388931  0.62588579  0.80161922  1
  O  O300  1  0.62773426  0.87168092  0.02828416  1
  O  O301  1  0.63200292  0.86766619  0.29388868  1
  O  O302  1  0.62311022  0.87794161  0.55066548  1
  O  O303  1  0.63305488  0.87398009  0.79730752  1
  O  O304  1  0.87720863  0.13335325  0.05035321  1
  O  O305  1  0.87616869  0.11977341  0.28128935  1
  O  O306  1  0.87247610  0.11082215  0.54779674  1
  O  O307  1  0.87715724  0.12362153  0.79857211  1
  O  O308  1  0.87643474  0.37700771  0.05242371  1
  O  O309  1  0.86639743  0.37801035  0.29075144  1
  O  O310  1  0.87731530  0.37831079  0.52948776  1
  O  O311  1  0.87909834  0.37183940  0.79484722  1
  O  O312  1  0.87665807  0.62259510  0.04708235  1
  O  O313  1  0.87073853  0.62798958  0.29976475  1
  O  O314  1  0.87321247  0.63312425  0.54669004  1
  O  O315  1  0.87435352  0.62124855  0.79735574  1
  O  O316  1  0.87504659  0.87764262  0.04598095  1
  O  O317  1  0.86818376  0.86866321  0.29641995  1
  O  O318  1  0.87618252  0.87580744  0.54939965  1
  O  O319  1  0.87524063  0.87351902  0.80121179  1
