# generated using pymatgen
data_VFe(PbO3)2
_symmetry_space_group_name_H-M   'P 1'
_cell_length_a   15.38093474
_cell_length_b   15.39157274
_cell_length_c   18.44998576
_cell_angle_alpha   89.98265199
_cell_angle_beta   89.97842830
_cell_angle_gamma   90.00581153
_symmetry_Int_Tables_number   1
_chemical_formula_structural   VFe(PbO3)2
_chemical_formula_sum   'V32 Fe32 Pb64 O192'
_cell_volume   4367.78960862
_cell_formula_units_Z   32
loop_
 _symmetry_equiv_pos_site_id
 _symmetry_equiv_pos_as_xyz
  1  'x, y, z'
loop_
 _atom_site_type_symbol
 _atom_site_label
 _atom_site_symmetry_multiplicity
 _atom_site_fract_x
 _atom_site_fract_y
 _atom_site_fract_z
 _atom_site_occupancy
  V  V0  1  0.87434198  0.37716725  0.39007517  1
  V  V1  1  0.12635623  0.37263515  0.13669267  1
  V  V2  1  0.37488828  0.37645987  0.39378070  1
  V  V3  1  0.62377586  0.62520880  0.39040647  1
  V  V4  1  0.62505152  0.86969362  0.64173831  1
  V  V5  1  0.62403512  0.12426013  0.13433172  1
  V  V6  1  0.12331987  0.12348725  0.64117596  1
  V  V7  1  0.87415834  0.87078971  0.39155856  1
  V  V8  1  0.62684414  0.11831255  0.64873408  1
  V  V9  1  0.62414017  0.37226607  0.39072637  1
  V  V10  1  0.87542140  0.12415254  0.39106158  1
  V  V11  1  0.37437976  0.37598024  0.64785172  1
  V  V12  1  0.62701855  0.37469595  0.88706077  1
  V  V13  1  0.87308860  0.87337969  0.64268825  1
  V  V14  1  0.62307422  0.37514089  0.64586633  1
  V  V15  1  0.12458635  0.62455891  0.39433286  1
  V  V16  1  0.37552639  0.62524285  0.64407750  1
  V  V17  1  0.37419764  0.62407875  0.39140418  1
  V  V18  1  0.87414589  0.62158426  0.64126620  1
  V  V19  1  0.87668828  0.62653448  0.89013188  1
  V  V20  1  0.62684276  0.87443344  0.88137358  1
  V  V21  1  0.12571590  0.13002653  0.88522674  1
  V  V22  1  0.62352112  0.87500041  0.13488664  1
  V  V23  1  0.12255458  0.87584801  0.88702523  1
  V  V24  1  0.87231065  0.37381434  0.64585046  1
  V  V25  1  0.12322348  0.37658338  0.64502026  1
  V  V26  1  0.12844994  0.12588522  0.39456110  1
  V  V27  1  0.12524442  0.62748496  0.88638016  1
  V  V28  1  0.37449565  0.12343246  0.13657245  1
  V  V29  1  0.37584027  0.87428623  0.39462483  1
  V  V30  1  0.12329988  0.87664351  0.39957709  1
  V  V31  1  0.12781150  0.62590288  0.13553334  1
  Fe  Fe32  1  0.12680158  0.12420766  0.12719282  1
  Fe  Fe33  1  0.37577494  0.87629105  0.13238255  1
  Fe  Fe34  1  0.62450705  0.12276941  0.87908583  1
  Fe  Fe35  1  0.87501487  0.62549851  0.13487054  1
  Fe  Fe36  1  0.87472833  0.62500072  0.38348047  1
  Fe  Fe37  1  0.37360336  0.87534593  0.87575042  1
  Fe  Fe38  1  0.62418787  0.62385442  0.12423935  1
  Fe  Fe39  1  0.37546583  0.87401665  0.64579724  1
  Fe  Fe40  1  0.87669710  0.12629775  0.64761265  1
  Fe  Fe41  1  0.62422302  0.12404995  0.38879829  1
  Fe  Fe42  1  0.87716958  0.37691876  0.88798545  1
  Fe  Fe43  1  0.37278415  0.37559928  0.88465042  1
  Fe  Fe44  1  0.87624993  0.12376201  0.12920756  1
  Fe  Fe45  1  0.37405189  0.12397183  0.87533277  1
  Fe  Fe46  1  0.12286106  0.62291671  0.63702710  1
  Fe  Fe47  1  0.37576187  0.37328725  0.12890397  1
  Fe  Fe48  1  0.62269058  0.37290621  0.12624968  1
  Fe  Fe49  1  0.37393982  0.12875079  0.64770566  1
  Fe  Fe50  1  0.37328911  0.62637830  0.88753064  1
  Fe  Fe51  1  0.37460497  0.62455489  0.12811690  1
  Fe  Fe52  1  0.87528424  0.12402612  0.88202317  1
  Fe  Fe53  1  0.12285717  0.38083848  0.88219461  1
  Fe  Fe54  1  0.62716143  0.62119178  0.65141884  1
  Fe  Fe55  1  0.12238684  0.87382005  0.63328882  1
  Fe  Fe56  1  0.37433119  0.12583207  0.39109065  1
  Fe  Fe57  1  0.12840197  0.87663801  0.13063932  1
  Fe  Fe58  1  0.87525964  0.87717322  0.12823918  1
  Fe  Fe59  1  0.12559848  0.37176499  0.38771909  1
  Fe  Fe60  1  0.87609431  0.87490958  0.89058389  1
  Fe  Fe61  1  0.62588576  0.87620137  0.38856991  1
  Fe  Fe62  1  0.87380886  0.37241037  0.12890198  1
  Fe  Fe63  1  0.62730374  0.62758430  0.88578384  1
  Pb  Pb64  1  0.00121385  0.00805925  0.00006016  1
  Pb  Pb65  1  0.00079684  -0.00017667  0.23770278  1
  Pb  Pb66  1  -0.00369307  0.00387625  0.50551102  1
  Pb  Pb67  1  -0.01249930  -0.00224119  0.75679404  1
  Pb  Pb68  1  -0.00884810  0.25097361  -0.00396658  1
  Pb  Pb69  1  0.00169542  0.24863032  0.24248650  1
  Pb  Pb70  1  -0.00631463  0.24447191  0.50581068  1
  Pb  Pb71  1  -0.00115226  0.25657950  0.75682253  1
  Pb  Pb72  1  -0.00788922  0.49934352  0.00003363  1
  Pb  Pb73  1  -0.00426407  0.50150267  0.24622002  1
  Pb  Pb74  1  0.00358880  0.50212516  0.50113636  1
  Pb  Pb75  1  0.00002564  0.49208489  0.75653475  1
  Pb  Pb76  1  -0.00553130  0.75257597  0.00400150  1
  Pb  Pb77  1  -0.00428852  0.75096127  0.24424017  1
  Pb  Pb78  1  0.00659458  0.74724208  0.50400976  1
  Pb  Pb79  1  -0.00201327  0.75418635  0.75124804  1
  Pb  Pb80  1  0.24544356  -0.00370676  -0.00486589  1
  Pb  Pb81  1  0.25084052  0.00123210  0.24615942  1
  Pb  Pb82  1  0.25790606  -0.01035862  0.51207450  1
  Pb  Pb83  1  0.25426849  -0.00272483  0.74708612  1
  Pb  Pb84  1  0.25443150  0.25441307  -0.00828615  1
  Pb  Pb85  1  0.25286990  0.24812284  0.24900479  1
  Pb  Pb86  1  0.25582903  0.24460450  0.50841812  1
  Pb  Pb87  1  0.24917338  0.25603467  0.75568603  1
  Pb  Pb88  1  0.26218908  0.49857913  -0.00282155  1
  Pb  Pb89  1  0.24743325  0.49400676  0.24658716  1
  Pb  Pb90  1  0.24449265  0.50411228  0.50428809  1
  Pb  Pb91  1  0.25483918  0.49948034  0.75715245  1
  Pb  Pb92  1  0.25381027  0.75953269  -0.00235943  1
  Pb  Pb93  1  0.25347110  0.75312667  0.24501941  1
  Pb  Pb94  1  0.25004587  0.75670370  0.51015030  1
  Pb  Pb95  1  0.24810607  0.75364978  0.74689729  1
  Pb  Pb96  1  0.49187934  -0.00226706  -0.01341063  1
  Pb  Pb97  1  0.50785458  0.00191348  0.25501488  1
  Pb  Pb98  1  0.49705867  0.00471321  0.50442787  1
  Pb  Pb99  1  0.49027005  -0.00119696  0.75216684  1
  Pb  Pb100  1  0.49866803  0.25477354  -0.00969751  1
  Pb  Pb101  1  0.49765553  0.24172679  0.24878522  1
  Pb  Pb102  1  0.49597282  0.24260632  0.50669244  1
  Pb  Pb103  1  0.50186287  0.24491590  0.75807299  1
  Pb  Pb104  1  0.50168528  0.50503743  -0.00647945  1
  Pb  Pb105  1  0.49997145  0.49780492  0.23440230  1
  Pb  Pb106  1  0.50417930  0.50405564  0.50520448  1
  Pb  Pb107  1  0.49020339  0.50056610  0.76293154  1
  Pb  Pb108  1  0.49208615  0.74889980  -0.00827696  1
  Pb  Pb109  1  0.50068158  0.74871209  0.24042517  1
  Pb  Pb110  1  0.49548581  0.75160119  0.50561051  1
  Pb  Pb111  1  0.49705287  0.73316869  0.76199713  1
  Pb  Pb112  1  0.75866128  0.00334773  -0.00742425  1
  Pb  Pb113  1  0.74319700  -0.00152894  0.24802670  1
  Pb  Pb114  1  0.75102710  0.00354493  0.50227587  1
  Pb  Pb115  1  0.75491257  0.00187650  0.75715238  1
  Pb  Pb116  1  0.75418691  0.25058416  -0.00729682  1
  Pb  Pb117  1  0.74952865  0.25014278  0.24057391  1
  Pb  Pb118  1  0.75411024  0.24622561  0.50358441  1
  Pb  Pb119  1  0.75036234  0.24494235  0.75855988  1
  Pb  Pb120  1  0.74136945  0.49951594  0.00130740  1
  Pb  Pb121  1  0.74929087  0.50116826  0.23725476  1
  Pb  Pb122  1  0.74310013  0.50481619  0.50384156  1
  Pb  Pb123  1  0.75212341  0.49574602  0.75932310  1
  Pb  Pb124  1  0.75454235  0.74733792  0.00081013  1
  Pb  Pb125  1  0.75235945  0.74645522  0.24293765  1
  Pb  Pb126  1  0.73972791  0.74042650  0.50519705  1
  Pb  Pb127  1  0.75091944  0.75015522  0.75776534  1
  O  O128  1  0.12957453  0.00201591  0.16445443  1
  O  O129  1  0.12401563  0.00618972  0.42110926  1
  O  O130  1  0.12497417  0.00671071  0.65788504  1
  O  O131  1  0.12626177  -0.00557528  0.90487735  1
  O  O132  1  0.12867171  0.25429040  0.15822367  1
  O  O133  1  0.12414214  0.24380389  0.41911180  1
  O  O134  1  0.12346539  0.25409259  0.66882833  1
  O  O135  1  0.12339336  0.24565477  0.90352625  1
  O  O136  1  0.12655703  0.49885709  0.16174463  1
  O  O137  1  0.12460632  0.49897795  0.41907956  1
  O  O138  1  0.12430325  0.49764406  0.66664642  1
  O  O139  1  0.12033221  0.51132042  0.90889303  1
  O  O140  1  0.12747493  0.74290536  0.15962365  1
  O  O141  1  0.12352617  0.74998196  0.42053252  1
  O  O142  1  0.12207622  0.74794209  0.66275104  1
  O  O143  1  0.12139261  0.74831558  0.91240518  1
  O  O144  1  0.37635352  0.00676278  0.16280451  1
  O  O145  1  0.37273713  -0.00688376  0.41574504  1
  O  O146  1  0.37546482  0.00222184  0.66140462  1
  O  O147  1  0.37148456  -0.00106370  0.90353526  1
  O  O148  1  0.37599947  0.24270059  0.16225966  1
  O  O149  1  0.37567414  0.25826603  0.42014970  1
  O  O150  1  0.37715979  0.25970860  0.66844390  1
  O  O151  1  0.37244403  0.24849278  0.90524159  1
  O  O152  1  0.37258291  0.49901983  0.15964757  1
  O  O153  1  0.37630406  0.49821594  0.42002619  1
  O  O154  1  0.37708763  0.49909321  0.66845374  1
  O  O155  1  0.37288434  0.50075279  0.91075698  1
  O  O156  1  0.37364652  0.74976000  0.16415256  1
  O  O157  1  0.37417284  0.74963348  0.42023811  1
  O  O158  1  0.37798757  0.74200886  0.66318352  1
  O  O159  1  0.37467028  0.75303919  0.90611505  1
  O  O160  1  0.62105705  0.00200423  0.16312122  1
  O  O161  1  0.62463370  -0.00138407  0.42416919  1
  O  O162  1  0.63035676  -0.00044477  0.66369301  1
  O  O163  1  0.62556076  -0.00744571  0.90627005  1
  O  O164  1  0.62180163  0.24035699  0.15734327  1
  O  O165  1  0.62508703  0.25385714  0.41857827  1
  O  O166  1  0.62681812  0.25815610  0.66912230  1
  O  O167  1  0.62507560  0.25495951  0.90713732  1
  O  O168  1  0.62421065  0.49896371  0.15646739  1
  O  O169  1  0.62461757  0.49894846  0.42050417  1
  O  O170  1  0.62916427  0.49152976  0.67148191  1
  O  O171  1  0.62931113  0.49579291  0.90658467  1
  O  O172  1  0.62413086  0.75735872  0.15438007  1
  O  O173  1  0.62402627  0.74764796  0.41870222  1
  O  O174  1  0.62965692  0.75584652  0.66471698  1
  O  O175  1  0.62596419  0.75813951  0.90908284  1
  O  O176  1  0.87336608  0.00006209  0.16107288  1
  O  O177  1  0.87714569  -0.00070729  0.41863562  1
  O  O178  1  0.87316510  -0.00577116  0.66443326  1
  O  O179  1  0.87653378  -0.00012992  0.91028497  1
  O  O180  1  0.87479768  0.24840387  0.16393272  1
  O  O181  1  0.87384497  0.25099741  0.41892825  1
  O  O182  1  0.87536296  0.25587938  0.66816866  1
  O  O183  1  0.87939198  0.24896466  0.90501797  1
  O  O184  1  0.87813128  0.49737397  0.16072455  1
  O  O185  1  0.87342233  0.49354122  0.41144013  1
  O  O186  1  0.87287406  0.50351718  0.66527337  1
  O  O187  1  0.87721963  0.50860004  0.91197065  1
  O  O188  1  0.87478427  0.75298844  0.16425399  1
  O  O189  1  0.87759189  0.75506947  0.41317808  1
  O  O190  1  0.87294874  0.75140711  0.66472043  1
  O  O191  1  0.87751737  0.74571701  0.91380329  1
  O  O192  1  0.00275450  0.12652201  0.16091299  1
  O  O193  1  0.00132181  0.12565658  0.42022466  1
  O  O194  1  0.00784367  0.12953415  0.66793461  1
  O  O195  1  0.00815342  0.11811768  0.90728155  1
  O  O196  1  0.00824867  0.37391582  0.16015597  1
  O  O197  1  -0.00776280  0.37219488  0.41439398  1
  O  O198  1  -0.00392934  0.37838709  0.66626107  1
  O  O199  1  0.00216853  0.37906700  0.91481977  1
  O  O200  1  0.00963950  0.62292579  0.16315575  1
  O  O201  1  0.00048822  0.62327222  0.41715124  1
  O  O202  1  -0.01039540  0.62577152  0.66401939  1
  O  O203  1  -0.00041975  0.62866698  0.91500193  1
  O  O204  1  0.00272723  0.87414174  0.15881831  1
  O  O205  1  -0.00478524  0.87738001  0.42060200  1
  O  O206  1  -0.00685356  0.87506112  0.66184371  1
  O  O207  1  0.00729745  0.87271374  0.91258103  1
  O  O208  1  0.25631547  0.12631858  0.15973873  1
  O  O209  1  0.24522952  0.12603800  0.41907901  1
  O  O210  1  0.24036089  0.13292593  0.66583791  1
  O  O211  1  0.24331789  0.12161771  0.90556629  1
  O  O212  1  0.24615294  0.37427863  0.16291135  1
  O  O213  1  0.25706183  0.37633526  0.41851773  1
  O  O214  1  0.25388025  0.37744273  0.66508253  1
  O  O215  1  0.24514822  0.37628594  0.91088886  1
  O  O216  1  0.24361090  0.62228545  0.16273170  1
  O  O217  1  0.25180709  0.62329061  0.42062842  1
  O  O218  1  0.25644188  0.62146691  0.66265341  1
  O  O219  1  0.24072111  0.62874141  0.90610426  1
  O  O220  1  0.25180572  0.87576566  0.16894399  1
  O  O221  1  0.25311242  0.87309520  0.42099255  1
  O  O222  1  0.24577039  0.87385920  0.66479917  1
  O  O223  1  0.24248601  0.87067147  0.90543566  1
  O  O224  1  0.49965595  0.12359132  0.16189150  1
  O  O225  1  0.49852373  0.12524092  0.42251882  1
  O  O226  1  0.50906148  0.12971054  0.66600508  1
  O  O227  1  0.49973392  0.12385180  0.90596986  1
  O  O228  1  0.49900739  0.37034725  0.16047585  1
  O  O229  1  0.49730871  0.37752607  0.41897105  1
  O  O230  1  0.50271685  0.37747209  0.66754944  1
  O  O231  1  0.50591766  0.37658252  0.90537599  1
  O  O232  1  0.50076760  0.62760705  0.15832123  1
  O  O233  1  0.49865326  0.62438218  0.42176630  1
  O  O234  1  0.49653334  0.62137868  0.66802079  1
  O  O235  1  0.50231408  0.62552815  0.90678202  1
  O  O236  1  0.50501898  0.87810522  0.16247621  1
  O  O237  1  0.49309390  0.87252156  0.41758819  1
  O  O238  1  0.51071010  0.87828418  0.65992068  1
  O  O239  1  0.50535813  0.87535832  0.90252036  1
  O  O240  1  0.74118825  0.12203849  0.15597076  1
  O  O241  1  0.75364956  0.12522038  0.41868989  1
  O  O242  1  0.74522652  0.12951178  0.66722023  1
  O  O243  1  0.74823555  0.12482149  0.90705160  1
  O  O244  1  0.74754617  0.37044247  0.16007969  1
  O  O245  1  0.75268480  0.37315073  0.41751361  1
  O  O246  1  0.74982483  0.37597857  0.67073468  1
  O  O247  1  0.74721457  0.37505872  0.90886458  1
  O  O248  1  0.74718058  0.62705771  0.16042686  1
  O  O249  1  0.74748524  0.62396931  0.41623282  1
  O  O250  1  0.75951052  0.62675124  0.67183155  1
  O  O251  1  0.75756728  0.62773601  0.90763199  1
  O  O252  1  0.74106765  0.87918275  0.15988505  1
  O  O253  1  0.75850875  0.87649934  0.41576710  1
  O  O254  1  0.75096193  0.87545185  0.66881574  1
  O  O255  1  0.74451441  0.87385381  0.90799088  1
  O  O256  1  0.12564392  0.11691599  0.02736908  1
  O  O257  1  0.12746214  0.12560927  0.30352476  1
  O  O258  1  0.12191813  0.13084399  0.54943474  1
  O  O259  1  0.12442984  0.12604566  0.79358800  1
  O  O260  1  0.12744355  0.37554881  0.04568998  1
  O  O261  1  0.13032915  0.37260424  0.28923273  1
  O  O262  1  0.12360840  0.37443720  0.55304707  1
  O  O263  1  0.11977058  0.37771582  0.78089220  1
  O  O264  1  0.12764480  0.62409498  0.04467908  1
  O  O265  1  0.12671606  0.62546172  0.30325630  1
  O  O266  1  0.11927708  0.61842997  0.53642174  1
  O  O267  1  0.11975679  0.62991249  0.79457303  1
  O  O268  1  0.13807503  0.87703368  0.03060982  1
  O  O269  1  0.12508234  0.87630116  0.30854483  1
  O  O270  1  0.12792173  0.87390865  0.53229689  1
  O  O271  1  0.12026456  0.87058011  0.79473404  1
  O  O272  1  0.37645746  0.12320775  0.04542463  1
  O  O273  1  0.37558739  0.13345017  0.29177028  1
  O  O274  1  0.37410896  0.13670986  0.54493148  1
  O  O275  1  0.37607488  0.12572828  0.77280885  1
  O  O276  1  0.36948290  0.37052932  0.02816172  1
  O  O277  1  0.37495124  0.37501149  0.30268836  1
  O  O278  1  0.37662384  0.37817470  0.55632455  1
  O  O279  1  0.37170578  0.38432321  0.78218934  1
  O  O280  1  0.37298090  0.62627856  0.02721967  1
  O  O281  1  0.37500550  0.62385632  0.30081518  1
  O  O282  1  0.37915355  0.62096113  0.55216226  1
  O  O283  1  0.37865198  0.62067587  0.78449872  1
  O  O284  1  0.37187851  0.87432110  0.03238545  1
  O  O285  1  0.37336949  0.87072719  0.30364182  1
  O  O286  1  0.36978202  0.86948962  0.54302949  1
  O  O287  1  0.37422066  0.87825391  0.77269110  1
  O  O288  1  0.62017276  0.12110580  0.04354027  1
  O  O289  1  0.62051552  0.11825745  0.28886049  1
  O  O290  1  0.62665102  0.12529224  0.55654564  1
  O  O291  1  0.62743749  0.13018579  0.77770200  1
  O  O292  1  0.62651239  0.37481525  0.02605136  1
  O  O293  1  0.62393313  0.37402911  0.29997135  1
  O  O294  1  0.62506957  0.37587343  0.55432125  1
  O  O295  1  0.62966214  0.37411547  0.79483350  1
  O  O296  1  0.63026492  0.62059739  0.02324077  1
  O  O297  1  0.62186836  0.62431337  0.29952193  1
  O  O298  1  0.63408945  0.62081445  0.54955019  1
  O  O299  1  0.62724935  0.63297407  0.78165530  1
  O  O300  1  0.62279086  0.88013273  0.04425478  1
  O  O301  1  0.62565552  0.88342002  0.28921942  1
  O  O302  1  0.63144727  0.87045115  0.54998187  1
  O  O303  1  0.62865735  0.87266124  0.78932150  1
  O  O304  1  0.87946880  0.12442792  0.02822207  1
  O  O305  1  0.87566536  0.12507463  0.30021493  1
  O  O306  1  0.87943431  0.12904064  0.54641191  1
  O  O307  1  0.87567950  0.11747942  0.77751511  1
  O  O308  1  0.87956334  0.37019132  0.02783347  1
  O  O309  1  0.87252373  0.37172353  0.29919383  1
  O  O310  1  0.87105908  0.37595268  0.55422396  1
  O  O311  1  0.87920524  0.38493510  0.78560698  1
  O  O312  1  0.87807900  0.63152190  0.03450578  1
  O  O313  1  0.87729230  0.62656742  0.28415324  1
  O  O314  1  0.87004262  0.62266171  0.54949983  1
  O  O315  1  0.88103897  0.62855645  0.79815772  1
  O  O316  1  0.87178592  0.86897991  0.02721252  1
  O  O317  1  0.87636556  0.87412336  0.30050190  1
  O  O318  1  0.86949883  0.87153140  0.55167032  1
  O  O319  1  0.88080135  0.87550634  0.78833518  1
