# generated using pymatgen
data_VFe(PbO3)2
_symmetry_space_group_name_H-M   'P 1'
_cell_length_a   15.37776896
_cell_length_b   15.38718330
_cell_length_c   18.51031426
_cell_angle_alpha   89.97440881
_cell_angle_beta   90.01256137
_cell_angle_gamma   90.00506194
_symmetry_Int_Tables_number   1
_chemical_formula_structural   VFe(PbO3)2
_chemical_formula_sum   'V32 Fe32 Pb64 O192'
_cell_volume   4379.92017689
_cell_formula_units_Z   32
loop_
 _symmetry_equiv_pos_site_id
 _symmetry_equiv_pos_as_xyz
  1  'x, y, z'
loop_
 _atom_site_type_symbol
 _atom_site_label
 _atom_site_symmetry_multiplicity
 _atom_site_fract_x
 _atom_site_fract_y
 _atom_site_fract_z
 _atom_site_occupancy
  V  V0  1  0.63375178  0.12285630  0.63599170  1
  V  V1  1  0.37154118  0.62362935  0.63491244  1
  V  V2  1  0.37731822  0.62593617  0.39007958  1
  V  V3  1  0.12707838  0.11728153  0.63599021  1
  V  V4  1  0.87114877  0.37677739  0.14114636  1
  V  V5  1  0.37604000  0.12162841  0.39011273  1
  V  V6  1  0.37501858  0.12613135  0.63861025  1
  V  V7  1  0.12228069  0.62309266  0.89197401  1
  V  V8  1  0.87838266  0.62440734  0.63488098  1
  V  V9  1  0.62396360  0.12414490  0.88587113  1
  V  V10  1  0.37251017  0.37746450  0.88869047  1
  V  V11  1  0.37541484  0.87308521  0.39140481  1
  V  V12  1  0.37229950  0.12845808  0.88947207  1
  V  V13  1  0.12389227  0.12651522  0.89132689  1
  V  V14  1  0.12448337  0.87711590  0.38834007  1
  V  V15  1  0.37357476  0.62729784  0.89013761  1
  V  V16  1  0.87300412  0.62691174  0.39133429  1
  V  V17  1  0.12467424  0.62766186  0.39046010  1
  V  V18  1  0.62659670  0.87643230  0.39431025  1
  V  V19  1  0.37752561  0.12759737  0.14023881  1
  V  V20  1  0.87147517  0.62408302  0.88740337  1
  V  V21  1  0.62453027  0.12362282  0.39238500  1
  V  V22  1  0.62363565  0.87630594  0.13499948  1
  V  V23  1  0.87423637  0.12260132  0.39122501  1
  V  V24  1  0.62603551  0.37396692  0.39543719  1
  V  V25  1  0.87446160  0.12652024  0.88950464  1
  V  V26  1  0.62309203  0.37356132  0.14071566  1
  V  V27  1  0.12610504  0.37464000  0.63521819  1
  V  V28  1  0.37627114  0.37518861  0.14225066  1
  V  V29  1  0.87544398  0.87203758  0.39129315  1
  V  V30  1  0.62472961  0.87041225  0.88688914  1
  V  V31  1  0.12451604  0.37536842  0.14379658  1
  Fe  Fe32  1  0.37650681  0.62177856  0.13370810  1
  Fe  Fe33  1  0.12590158  0.12024125  0.37874648  1
  Fe  Fe34  1  0.37893823  0.87492604  0.12687214  1
  Fe  Fe35  1  0.87369829  0.62345090  0.13362986  1
  Fe  Fe36  1  0.12583138  0.87463489  0.89738369  1
  Fe  Fe37  1  0.87555373  0.37675500  0.39488778  1
  Fe  Fe38  1  0.87225673  0.87450991  0.12681586  1
  Fe  Fe39  1  0.12657716  0.87492247  0.12647988  1
  Fe  Fe40  1  0.88317801  0.12391656  0.63320012  1
  Fe  Fe41  1  0.62468625  0.13049489  0.13718238  1
  Fe  Fe42  1  0.62463762  0.62527445  0.39728457  1
  Fe  Fe43  1  0.12460449  0.37335669  0.38372519  1
  Fe  Fe44  1  0.12432834  0.37537500  0.88806313  1
  Fe  Fe45  1  0.12644712  0.87193935  0.63520287  1
  Fe  Fe46  1  0.37721806  0.87747716  0.89764780  1
  Fe  Fe47  1  0.12497073  0.62188528  0.13333137  1
  Fe  Fe48  1  0.87644125  0.37392227  0.62854897  1
  Fe  Fe49  1  0.87862578  0.37467462  0.88469123  1
  Fe  Fe50  1  0.37544545  0.37504083  0.39328191  1
  Fe  Fe51  1  0.62432714  0.62656576  0.63214554  1
  Fe  Fe52  1  0.62283141  0.37211163  0.63869472  1
  Fe  Fe53  1  0.37305920  0.87499881  0.63582636  1
  Fe  Fe54  1  0.87636538  0.87623965  0.63492611  1
  Fe  Fe55  1  0.37322553  0.37428681  0.62971357  1
  Fe  Fe56  1  0.62311986  0.87811455  0.63531463  1
  Fe  Fe57  1  0.87352118  0.87601002  0.89633736  1
  Fe  Fe58  1  0.62340975  0.62294424  0.87985892  1
  Fe  Fe59  1  0.12485833  0.62418732  0.63263918  1
  Fe  Fe60  1  0.87209253  0.12783708  0.13447381  1
  Fe  Fe61  1  0.62397762  0.62214500  0.13555262  1
  Fe  Fe62  1  0.12360888  0.12901094  0.14295173  1
  Fe  Fe63  1  0.62748433  0.37356704  0.87846455  1
  Pb  Pb64  1  0.00141208  -0.00307039  0.00386908  1
  Pb  Pb65  1  0.00147158  0.00111085  0.23690711  1
  Pb  Pb66  1  -0.00632901  -0.00214130  0.50195980  1
  Pb  Pb67  1  -0.00157740  -0.01661292  0.75627828  1
  Pb  Pb68  1  0.00038668  0.24309690  0.00426331  1
  Pb  Pb69  1  -0.00080328  0.25622221  0.25525503  1
  Pb  Pb70  1  -0.00073506  0.24906124  0.49446674  1
  Pb  Pb71  1  -0.00127818  0.25703794  0.74777027  1
  Pb  Pb72  1  0.00112585  0.50508757  0.00126900  1
  Pb  Pb73  1  -0.00220804  0.49416538  0.25324515  1
  Pb  Pb74  1  0.00131061  0.50063235  0.49763818  1
  Pb  Pb75  1  -0.00174765  0.49051251  0.74873757  1
  Pb  Pb76  1  -0.00079508  0.75338070  0.00144118  1
  Pb  Pb77  1  -0.00020689  0.75117264  0.23516596  1
  Pb  Pb78  1  0.00591685  0.75486504  0.50284130  1
  Pb  Pb79  1  0.00300859  0.75466317  0.74864447  1
  Pb  Pb80  1  0.24840440  -0.00575926  0.00506436  1
  Pb  Pb81  1  0.24484756  0.00017108  0.24297588  1
  Pb  Pb82  1  0.25010462  -0.01150470  0.50196141  1
  Pb  Pb83  1  0.24977124  -0.01735354  0.76115552  1
  Pb  Pb84  1  0.24383137  0.24516085  0.00532506  1
  Pb  Pb85  1  0.24705565  0.25599190  0.25755694  1
  Pb  Pb86  1  0.24832537  0.25057653  0.49301069  1
  Pb  Pb87  1  0.24328640  0.25171211  0.74834072  1
  Pb  Pb88  1  0.25098787  0.50809553  0.00483799  1
  Pb  Pb89  1  0.25113343  0.49572730  0.25139899  1
  Pb  Pb90  1  0.24854579  0.50188603  0.49593730  1
  Pb  Pb91  1  0.24672580  0.49631584  0.74714824  1
  Pb  Pb92  1  0.24882767  0.75346853  0.00275663  1
  Pb  Pb93  1  0.25226399  0.75102036  0.23534666  1
  Pb  Pb94  1  0.24409142  0.75168151  0.50343749  1
  Pb  Pb95  1  0.24648158  0.75616403  0.75116483  1
  Pb  Pb96  1  0.50301247  -0.00017950  0.00034390  1
  Pb  Pb97  1  0.50077626  0.00110264  0.24684082  1
  Pb  Pb98  1  0.50001523  -0.00800254  0.50544882  1
  Pb  Pb99  1  0.49080237  -0.00794122  0.75202407  1
  Pb  Pb100  1  0.50557678  0.24694480  -0.00312351  1
  Pb  Pb101  1  0.49356734  0.25839190  0.25815456  1
  Pb  Pb102  1  0.50168238  0.25419213  0.50566619  1
  Pb  Pb103  1  0.50155761  0.25459983  0.74720637  1
  Pb  Pb104  1  0.50324731  0.50398318  -0.00184868  1
  Pb  Pb105  1  0.50402626  0.50745394  0.25631410  1
  Pb  Pb106  1  0.50387825  0.49057848  0.50829139  1
  Pb  Pb107  1  0.50746599  0.50036714  0.74469755  1
  Pb  Pb108  1  0.50175757  0.73589637  0.00262320  1
  Pb  Pb109  1  0.50106945  0.74500698  0.24612675  1
  Pb  Pb110  1  0.50360802  0.75278429  0.50536963  1
  Pb  Pb111  1  0.50144815  0.74740750  0.74468674  1
  Pb  Pb112  1  0.75372632  0.00569114  0.00179226  1
  Pb  Pb113  1  0.75303971  0.00338782  0.24366393  1
  Pb  Pb114  1  0.75849191  -0.00326228  0.50635562  1
  Pb  Pb115  1  0.76277727  -0.00931472  0.75114660  1
  Pb  Pb116  1  0.74993532  0.24498325  -0.00228924  1
  Pb  Pb117  1  0.75559184  0.25536610  0.25451668  1
  Pb  Pb118  1  0.75571868  0.25088443  0.50506812  1
  Pb  Pb119  1  0.75855263  0.26216938  0.74650445  1
  Pb  Pb120  1  0.74572447  0.50046657  -0.00811497  1
  Pb  Pb121  1  0.74590997  0.50735098  0.25532103  1
  Pb  Pb122  1  0.74455268  0.49480485  0.50734475  1
  Pb  Pb123  1  0.74487105  0.49789810  0.74233630  1
  Pb  Pb124  1  0.75886946  0.74364033  0.00261956  1
  Pb  Pb125  1  0.74772820  0.74514092  0.24540909  1
  Pb  Pb126  1  0.74306913  0.75091180  0.50634453  1
  Pb  Pb127  1  0.74759535  0.74864770  0.74296751  1
  O  O128  1  0.12816174  0.00051878  0.15900215  1
  O  O129  1  0.12539957  -0.00380266  0.41195249  1
  O  O130  1  0.12824178  0.00412652  0.65421916  1
  O  O131  1  0.12717767  0.01122373  0.91630206  1
  O  O132  1  0.12530523  0.25883400  0.16803116  1
  O  O133  1  0.12562363  0.24370279  0.40993212  1
  O  O134  1  0.12646961  0.25744898  0.66043820  1
  O  O135  1  0.12661061  0.24508878  0.91682783  1
  O  O136  1  0.12511084  0.49220390  0.16740752  1
  O  O137  1  0.12491346  0.50608640  0.41247261  1
  O  O138  1  0.12546419  0.49504862  0.66070095  1
  O  O139  1  0.12772356  0.50485327  0.91621593  1
  O  O140  1  0.12691524  0.74968047  0.15753340  1
  O  O141  1  0.12579872  0.75211014  0.41654022  1
  O  O142  1  0.12575559  0.74621904  0.66733988  1
  O  O143  1  0.12891291  0.73977154  0.91482831  1
  O  O144  1  0.38033144  0.00913198  0.15914279  1
  O  O145  1  0.37909900  0.00083978  0.41617488  1
  O  O146  1  0.36711466  0.01038941  0.66596014  1
  O  O147  1  0.37518283  0.01376622  0.91707557  1
  O  O148  1  0.37766255  0.25147628  0.17088644  1
  O  O149  1  0.37919005  0.23909533  0.41359290  1
  O  O150  1  0.36645267  0.24456869  0.66330146  1
  O  O151  1  0.37299589  0.24787987  0.91485693  1
  O  O152  1  0.37688017  0.49303870  0.16776145  1
  O  O153  1  0.37450624  0.50865347  0.41154533  1
  O  O154  1  0.37412118  0.50393145  0.65964583  1
  O  O155  1  0.37373742  0.49640128  0.91123187  1
  O  O156  1  0.38031798  0.74968447  0.15840357  1
  O  O157  1  0.37520525  0.75014613  0.41533518  1
  O  O158  1  0.37260461  0.74334429  0.66030132  1
  O  O159  1  0.37638155  0.74322315  0.91033719  1
  O  O160  1  0.62269939  -0.00246326  0.16124145  1
  O  O161  1  0.62480719  -0.00320401  0.41701200  1
  O  O162  1  0.61796116  0.01087860  0.66329841  1
  O  O163  1  0.62538224  0.00437617  0.91385410  1
  O  O164  1  0.62595860  0.25948531  0.17028069  1
  O  O165  1  0.62528254  0.24991914  0.41744415  1
  O  O166  1  0.62079760  0.23752382  0.66441454  1
  O  O167  1  0.62349733  0.24652763  0.91044513  1
  O  O168  1  0.62568156  0.48991869  0.16749116  1
  O  O169  1  0.62520944  0.49334252  0.41799327  1
  O  O170  1  0.62344202  0.50127894  0.65793156  1
  O  O171  1  0.62230656  0.49779291  0.90868099  1
  O  O172  1  0.62185483  0.75590011  0.15963785  1
  O  O173  1  0.62482084  0.75713046  0.41653645  1
  O  O174  1  0.62297315  0.75093918  0.66182411  1
  O  O175  1  0.62096106  0.75430137  0.90554362  1
  O  O176  1  0.86898569  -0.00093372  0.15893084  1
  O  O177  1  0.87211302  -0.00060630  0.41494167  1
  O  O178  1  0.87906337  0.00262633  0.66866460  1
  O  O179  1  0.87440526  0.00983095  0.91673291  1
  O  O180  1  0.87390702  0.25984400  0.16790192  1
  O  O181  1  0.87169991  0.24101851  0.41263752  1
  O  O182  1  0.87984930  0.24850234  0.66113758  1
  O  O183  1  0.87834911  0.24281591  0.91173472  1
  O  O184  1  0.87360480  0.49231313  0.16671529  1
  O  O185  1  0.87550800  0.50976021  0.41418814  1
  O  O186  1  0.87557793  0.50431270  0.65741510  1
  O  O187  1  0.87766075  0.50733392  0.91122492  1
  O  O188  1  0.86917003  0.75093408  0.16142110  1
  O  O189  1  0.87393557  0.74943679  0.41750336  1
  O  O190  1  0.87628275  0.74448413  0.66073028  1
  O  O191  1  0.87473413  0.74247904  0.91271534  1
  O  O192  1  -0.00403292  0.12903929  0.16532451  1
  O  O193  1  -0.00737978  0.12031463  0.40687208  1
  O  O194  1  0.01348591  0.12965235  0.66220230  1
  O  O195  1  0.00252278  0.12578817  0.91260136  1
  O  O196  1  -0.00147198  0.37584315  0.16350216  1
  O  O197  1  0.00174721  0.37486720  0.41644788  1
  O  O198  1  0.00579549  0.37683284  0.65777519  1
  O  O199  1  0.00132703  0.37579038  0.92026537  1
  O  O200  1  -0.00119776  0.62091732  0.16372990  1
  O  O201  1  -0.00357708  0.62989886  0.41377612  1
  O  O202  1  -0.00497248  0.62339364  0.66247497  1
  O  O203  1  0.00228566  0.62479619  0.91093863  1
  O  O204  1  -0.00102927  0.87565040  0.15206629  1
  O  O205  1  -0.00083450  0.87395514  0.41308393  1
  O  O206  1  0.00176989  0.87454942  0.66609876  1
  O  O207  1  -0.00046226  0.87627184  0.91777670  1
  O  O208  1  0.26155036  0.13064003  0.16511848  1
  O  O209  1  0.25897086  0.12004321  0.40905755  1
  O  O210  1  0.24223084  0.13102493  0.66578878  1
  O  O211  1  0.25123177  0.12898799  0.91486374  1
  O  O212  1  0.24886582  0.37414671  0.16571044  1
  O  O213  1  0.24942200  0.37450730  0.41374317  1
  O  O214  1  0.24592397  0.37684249  0.66041173  1
  O  O215  1  0.25595759  0.37316489  0.91752598  1
  O  O216  1  0.25151936  0.61947041  0.16444115  1
  O  O217  1  0.25382684  0.62892335  0.41281633  1
  O  O218  1  0.25456388  0.62201882  0.66351941  1
  O  O219  1  0.25346576  0.62130231  0.91419452  1
  O  O220  1  0.25485463  0.87759620  0.15486458  1
  O  O221  1  0.25121734  0.87576943  0.41395297  1
  O  O222  1  0.25047651  0.87539232  0.66889848  1
  O  O223  1  0.25211399  0.87706101  0.91908887  1
  O  O224  1  0.49634401  0.13108214  0.16883036  1
  O  O225  1  0.50112820  0.12131933  0.41859162  1
  O  O226  1  0.48963351  0.12761772  0.65859606  1
  O  O227  1  0.49597557  0.12897510  0.91093073  1
  O  O228  1  0.50458281  0.37346307  0.16612458  1
  O  O229  1  0.50539908  0.37310110  0.41719045  1
  O  O230  1  0.49530910  0.36960371  0.66237993  1
  O  O231  1  0.48985579  0.37086173  0.90961866  1
  O  O232  1  0.50164046  0.62019855  0.16973549  1
  O  O233  1  0.49273809  0.62849132  0.41593767  1
  O  O234  1  0.49149198  0.62513248  0.65795418  1
  O  O235  1  0.49397304  0.62138726  0.91142929  1
  O  O236  1  0.50515240  0.87798603  0.16374381  1
  O  O237  1  0.50257587  0.87584205  0.41637384  1
  O  O238  1  0.49664024  0.87971761  0.66665394  1
  O  O239  1  0.50911460  0.88187096  0.91436353  1
  O  O240  1  0.74789192  0.13016614  0.17002173  1
  O  O241  1  0.74951347  0.12160279  0.41804762  1
  O  O242  1  0.74733255  0.12416304  0.65254373  1
  O  O243  1  0.75245890  0.12736404  0.90908022  1
  O  O244  1  0.74977618  0.37505233  0.16411469  1
  O  O245  1  0.74467285  0.37329719  0.41764580  1
  O  O246  1  0.75084706  0.37139320  0.65803857  1
  O  O247  1  0.75268427  0.37396492  0.91048962  1
  O  O248  1  0.74751533  0.62113739  0.16754953  1
  O  O249  1  0.75658067  0.62814791  0.41723396  1
  O  O250  1  0.75719891  0.62554279  0.65812009  1
  O  O251  1  0.75293921  0.62464399  0.90653433  1
  O  O252  1  0.73967081  0.87531803  0.16032997  1
  O  O253  1  0.74687124  0.87533444  0.41574862  1
  O  O254  1  0.74940770  0.87862566  0.66316902  1
  O  O255  1  0.73967392  0.87810171  0.91353084  1
  O  O256  1  0.12622969  0.13707069  0.04206247  1
  O  O257  1  0.13102472  0.12025347  0.27865123  1
  O  O258  1  0.12856534  0.12486639  0.54458924  1
  O  O259  1  0.12610976  0.12720894  0.80059543  1
  O  O260  1  0.12608101  0.37498654  0.05257314  1
  O  O261  1  0.12236798  0.37479461  0.28344483  1
  O  O262  1  0.12703393  0.37435510  0.54387774  1
  O  O263  1  0.12357230  0.37716153  0.78828632  1
  O  O264  1  0.12775390  0.61548021  0.03327643  1
  O  O265  1  0.12460636  0.62910745  0.29971868  1
  O  O266  1  0.12641215  0.62926173  0.53274314  1
  O  O267  1  0.12514835  0.62081636  0.80100466  1
  O  O268  1  0.12770019  0.87535266  0.02455407  1
  O  O269  1  0.12631791  0.87441923  0.29744473  1
  O  O270  1  0.13057716  0.86896711  0.53438655  1
  O  O271  1  0.12860066  0.87663417  0.79460517  1
  O  O272  1  0.37922942  0.13383584  0.04917801  1
  O  O273  1  0.38156501  0.12026639  0.29910287  1
  O  O274  1  0.37027448  0.12372329  0.54740744  1
  O  O275  1  0.36993146  0.12792340  0.79874638  1
  O  O276  1  0.37688326  0.37269109  0.05136332  1
  O  O277  1  0.37717854  0.36912299  0.29262110  1
  O  O278  1  0.37905233  0.37329443  0.52912058  1
  O  O279  1  0.36865052  0.37540817  0.79760348  1
  O  O280  1  0.38194518  0.61830112  0.03305708  1
  O  O281  1  0.37898185  0.62821387  0.29880850  1
  O  O282  1  0.36954698  0.62360202  0.54377448  1
  O  O283  1  0.37250731  0.62254514  0.79960163  1
  O  O284  1  0.38196712  0.88163243  0.02607279  1
  O  O285  1  0.37706691  0.87630764  0.30061934  1
  O  O286  1  0.37329556  0.88191754  0.53530755  1
  O  O287  1  0.37290829  0.88648515  0.79561644  1
  O  O288  1  0.62523873  0.13484226  0.03758477  1
  O  O289  1  0.62374744  0.12512169  0.30165149  1
  O  O290  1  0.62417172  0.12411850  0.54446430  1
  O  O291  1  0.62384510  0.12215592  0.79529660  1
  O  O292  1  0.62345051  0.37211997  0.04971159  1
  O  O293  1  0.62560240  0.37385249  0.30403275  1
  O  O294  1  0.61975762  0.37326279  0.53695685  1
  O  O295  1  0.62392521  0.37109128  0.77760979  1
  O  O296  1  0.61610956  0.62159536  0.03502010  1
  O  O297  1  0.62483789  0.61949056  0.29642971  1
  O  O298  1  0.62685943  0.63036531  0.52929084  1
  O  O299  1  0.62166439  0.62364344  0.78004726  1
  O  O300  1  0.62162156  0.87716484  0.04413248  1
  O  O301  1  0.62548436  0.87687072  0.30356005  1
  O  O302  1  0.62000181  0.87468014  0.53521065  1
  O  O303  1  0.62326247  0.87705821  0.79534447  1
  O  O304  1  0.86868793  0.13253400  0.03430388  1
  O  O305  1  0.86681480  0.12121226  0.30024083  1
  O  O306  1  0.87963963  0.11656124  0.53294085  1
  O  O307  1  0.87708790  0.12397303  0.79853604  1
  O  O308  1  0.87208727  0.37619429  0.05045331  1
  O  O309  1  0.87713048  0.37397181  0.29411977  1
  O  O310  1  0.87330746  0.37226371  0.52717748  1
  O  O311  1  0.88251318  0.37162511  0.78373927  1
  O  O312  1  0.86850580  0.62504813  0.03352847  1
  O  O313  1  0.87120377  0.62877037  0.30014834  1
  O  O314  1  0.87971058  0.62560342  0.54391596  1
  O  O315  1  0.87532002  0.62449805  0.79667924  1
  O  O316  1  0.86634693  0.87175137  0.02476867  1
  O  O317  1  0.87313605  0.87299805  0.30070463  1
  O  O318  1  0.87809363  0.88445610  0.53408609  1
  O  O319  1  0.87509998  0.88443739  0.79442765  1
