# generated using pymatgen
data_VFe(PbO3)2
_symmetry_space_group_name_H-M   'P 1'
_cell_length_a   15.37189068
_cell_length_b   15.38105818
_cell_length_c   18.55082176
_cell_angle_alpha   89.99274435
_cell_angle_beta   90.03842170
_cell_angle_gamma   89.97775205
_symmetry_Int_Tables_number   1
_chemical_formula_structural   VFe(PbO3)2
_chemical_formula_sum   'V32 Fe32 Pb64 O192'
_cell_volume   4386.07971948
_cell_formula_units_Z   32
loop_
 _symmetry_equiv_pos_site_id
 _symmetry_equiv_pos_as_xyz
  1  'x, y, z'
loop_
 _atom_site_type_symbol
 _atom_site_label
 _atom_site_symmetry_multiplicity
 _atom_site_fract_x
 _atom_site_fract_y
 _atom_site_fract_z
 _atom_site_occupancy
  V  V0  1  0.12180073  0.62548532  0.38894278  1
  V  V1  1  0.62529155  0.62322706  0.13941821  1
  V  V2  1  0.37302224  0.62493532  0.88803154  1
  V  V3  1  0.12321488  0.62371120  0.13817174  1
  V  V4  1  0.12599100  0.87446897  0.89300805  1
  V  V5  1  0.12653659  0.12262631  0.89296556  1
  V  V6  1  0.12748595  0.62711462  0.64128127  1
  V  V7  1  0.12405335  0.87496468  0.14380167  1
  V  V8  1  0.37583429  0.12376175  0.89475455  1
  V  V9  1  0.87072331  0.62417738  0.39393808  1
  V  V10  1  0.37408083  0.37582751  0.63903715  1
  V  V11  1  0.62353444  0.37557660  0.13933961  1
  V  V12  1  0.12514975  0.87834692  0.63277064  1
  V  V13  1  0.62758743  0.12270432  0.88903988  1
  V  V14  1  0.37645671  0.37712255  0.14276872  1
  V  V15  1  0.37425949  0.62170737  0.13982613  1
  V  V16  1  0.12631101  0.37337049  0.89185587  1
  V  V17  1  0.87181763  0.37527343  0.14212191  1
  V  V18  1  0.87143198  0.12646033  0.38910511  1
  V  V19  1  0.62657404  0.37508782  0.39562061  1
  V  V20  1  0.62589107  0.12704269  0.14287018  1
  V  V21  1  0.37524675  0.37619943  0.38702614  1
  V  V22  1  0.62200749  0.12594120  0.63561316  1
  V  V23  1  0.62431805  0.87262520  0.89378509  1
  V  V24  1  0.87692932  0.87741714  0.89379468  1
  V  V25  1  0.87483156  0.87424768  0.38883318  1
  V  V26  1  0.62413174  0.87431063  0.38715784  1
  V  V27  1  0.37601512  0.62400653  0.39200268  1
  V  V28  1  0.87370659  0.12343159  0.13959916  1
  V  V29  1  0.87726596  0.62297590  0.88942133  1
  V  V30  1  0.12689106  0.37400261  0.63355377  1
  V  V31  1  0.62509248  0.87791956  0.63524178  1
  Fe  Fe32  1  0.87606864  0.62696541  0.63178822  1
  Fe  Fe33  1  0.87653816  0.37504890  0.62705815  1
  Fe  Fe34  1  0.87700145  0.87247823  0.63430192  1
  Fe  Fe35  1  0.62679725  0.87415614  0.13414649  1
  Fe  Fe36  1  0.62339305  0.62697529  0.88195724  1
  Fe  Fe37  1  0.62279241  0.62680198  0.62802678  1
  Fe  Fe38  1  0.87711458  0.12305723  0.63231264  1
  Fe  Fe39  1  0.37436505  0.12538104  0.63121621  1
  Fe  Fe40  1  0.12264927  0.87267247  0.38114224  1
  Fe  Fe41  1  0.37916525  0.12591042  0.37654019  1
  Fe  Fe42  1  0.62247426  0.37397648  0.88033278  1
  Fe  Fe43  1  0.87212235  0.87128003  0.13536791  1
  Fe  Fe44  1  0.37222711  0.87719024  0.88947030  1
  Fe  Fe45  1  0.12642606  0.37806588  0.38306821  1
  Fe  Fe46  1  0.37326608  0.62542523  0.63242293  1
  Fe  Fe47  1  0.12380114  0.12466511  0.37719166  1
  Fe  Fe48  1  0.87684850  0.37672862  0.39780252  1
  Fe  Fe49  1  0.12414319  0.37878150  0.14355841  1
  Fe  Fe50  1  0.87679631  0.37131828  0.88248743  1
  Fe  Fe51  1  0.62305145  0.37240864  0.63367705  1
  Fe  Fe52  1  0.37279455  0.37217221  0.88458526  1
  Fe  Fe53  1  0.37824950  0.87141861  0.14339888  1
  Fe  Fe54  1  0.87433874  0.62256992  0.13439065  1
  Fe  Fe55  1  0.12803396  0.12638673  0.62871808  1
  Fe  Fe56  1  0.12579018  0.62712774  0.88603730  1
  Fe  Fe57  1  0.62688678  0.12231306  0.38453872  1
  Fe  Fe58  1  0.37487823  0.87264936  0.37903185  1
  Fe  Fe59  1  0.37569805  0.12740274  0.14733854  1
  Fe  Fe60  1  0.87862654  0.12363707  0.88647977  1
  Fe  Fe61  1  0.37474191  0.87443707  0.63237867  1
  Fe  Fe62  1  0.62441711  0.62681992  0.39724634  1
  Fe  Fe63  1  0.12290284  0.12672237  0.14758845  1
  Pb  Pb64  1  0.00577519  0.00204664  0.00453939  1
  Pb  Pb65  1  0.00964603  -0.00380169  0.25559062  1
  Pb  Pb66  1  0.00144884  0.00672123  0.49614171  1
  Pb  Pb67  1  -0.00366557  0.00767838  0.74542816  1
  Pb  Pb68  1  0.00842027  0.24935202  0.00358524  1
  Pb  Pb69  1  0.00408794  0.25266319  0.25358604  1
  Pb  Pb70  1  0.00629802  0.24446482  0.49458861  1
  Pb  Pb71  1  -0.01044635  0.24533128  0.74629311  1
  Pb  Pb72  1  0.00426715  0.49436653  0.00173254  1
  Pb  Pb73  1  -0.00922163  0.48617305  0.26062603  1
  Pb  Pb74  1  -0.00337172  0.49818819  0.50155676  1
  Pb  Pb75  1  -0.00613953  0.49413758  0.74493493  1
  Pb  Pb76  1  -0.00853577  0.74803738  0.00423345  1
  Pb  Pb77  1  0.00009834  0.75004430  0.24833664  1
  Pb  Pb78  1  -0.00662213  0.75077722  0.50226103  1
  Pb  Pb79  1  0.00475225  0.74521090  0.74903750  1
  Pb  Pb80  1  0.25473806  0.01070667  0.01450569  1
  Pb  Pb81  1  0.25786812  0.00054972  0.25131016  1
  Pb  Pb82  1  0.25022728  0.00137349  0.48310162  1
  Pb  Pb83  1  0.25560820  -0.00093608  0.74395296  1
  Pb  Pb84  1  0.24691853  0.23929319  0.01355654  1
  Pb  Pb85  1  0.24505123  0.24424408  0.25146933  1
  Pb  Pb86  1  0.24669697  0.23524629  0.49100847  1
  Pb  Pb87  1  0.25312530  0.25138695  0.74707117  1
  Pb  Pb88  1  0.24342217  0.49341762  0.00148540  1
  Pb  Pb89  1  0.24541114  0.49872387  0.25275479  1
  Pb  Pb90  1  0.25593941  0.50499426  0.50069801  1
  Pb  Pb91  1  0.24653946  0.50300066  0.75129190  1
  Pb  Pb92  1  0.25671355  0.75556304  0.00235520  1
  Pb  Pb93  1  0.25121497  0.75480774  0.25244971  1
  Pb  Pb94  1  0.25751838  0.75515151  0.49793843  1
  Pb  Pb95  1  0.25786563  0.75527547  0.75002977  1
  Pb  Pb96  1  0.49661489  -0.00703533  0.00864527  1
  Pb  Pb97  1  0.49404758  -0.00278796  0.25028652  1
  Pb  Pb98  1  0.48551050  0.00295116  0.49384754  1
  Pb  Pb99  1  0.49292625  -0.00523395  0.74731897  1
  Pb  Pb100  1  0.49425343  0.24683816  0.00022846  1
  Pb  Pb101  1  0.50348206  0.24412446  0.25572484  1
  Pb  Pb102  1  0.49868055  0.24664444  0.49735891  1
  Pb  Pb103  1  0.49847342  0.25954898  0.75166631  1
  Pb  Pb104  1  0.50106992  0.49788879  -0.00935238  1
  Pb  Pb105  1  0.51027019  0.50759224  0.25721269  1
  Pb  Pb106  1  0.50756461  0.50057540  0.50684098  1
  Pb  Pb107  1  0.51002145  0.50398260  0.74575905  1
  Pb  Pb108  1  0.49742402  0.75807278  0.00310211  1
  Pb  Pb109  1  0.50124779  0.75166755  0.25096488  1
  Pb  Pb110  1  0.49435236  0.75058730  0.50137811  1
  Pb  Pb111  1  0.49977641  0.74609388  0.74446918  1
  Pb  Pb112  1  0.74851831  -0.00866047  0.00334414  1
  Pb  Pb113  1  0.74674069  0.00069259  0.24991018  1
  Pb  Pb114  1  0.75919211  -0.00100129  0.50145253  1
  Pb  Pb115  1  0.75459938  0.00426712  0.74600384  1
  Pb  Pb116  1  0.75468394  0.25381942  -0.00752968  1
  Pb  Pb117  1  0.74927381  0.25023903  0.25648736  1
  Pb  Pb118  1  0.75501377  0.25274819  0.50404635  1
  Pb  Pb119  1  0.75732506  0.25981335  0.74388689  1
  Pb  Pb120  1  0.74966443  0.50141301  -0.00970504  1
  Pb  Pb121  1  0.75092777  0.49869679  0.25644107  1
  Pb  Pb122  1  0.74410047  0.49537686  0.50949855  1
  Pb  Pb123  1  0.74529471  0.49815280  0.73796597  1
  Pb  Pb124  1  0.75864824  0.74742678  0.00430732  1
  Pb  Pb125  1  0.74860306  0.74648846  0.24852638  1
  Pb  Pb126  1  0.75629864  0.75042000  0.50448060  1
  Pb  Pb127  1  0.74728216  0.74313911  0.74315476  1
  O  O128  1  0.12045450  -0.00729995  0.16324705  1
  O  O129  1  0.12187540  -0.00041406  0.40495491  1
  O  O130  1  0.12655141  -0.00676877  0.65345906  1
  O  O131  1  0.12526429  -0.00292307  0.92150071  1
  O  O132  1  0.12174162  0.25488876  0.16732462  1
  O  O133  1  0.12418530  0.25129359  0.40441782  1
  O  O134  1  0.12886408  0.25923651  0.65580814  1
  O  O135  1  0.12619632  0.25163976  0.91680099  1
  O  O136  1  0.12677455  0.50913931  0.16511443  1
  O  O137  1  0.12823437  0.50978969  0.41694299  1
  O  O138  1  0.12873151  0.49860552  0.66311526  1
  O  O139  1  0.12463958  0.49601476  0.91554662  1
  O  O140  1  0.12625936  0.74574117  0.16467155  1
  O  O141  1  0.12460025  0.74086359  0.41342472  1
  O  O142  1  0.12762293  0.74739610  0.66108138  1
  O  O143  1  0.12452435  0.75669116  0.91506143  1
  O  O144  1  0.37753114  -0.00137976  0.16453628  1
  O  O145  1  0.37806263  -0.00116766  0.40180097  1
  O  O146  1  0.37394804  -0.00082163  0.66308519  1
  O  O147  1  0.37220244  0.00593205  0.91991807  1
  O  O148  1  0.37786241  0.26224776  0.16721707  1
  O  O149  1  0.37837203  0.25912022  0.40520407  1
  O  O150  1  0.37139572  0.25491869  0.66254559  1
  O  O151  1  0.37157520  0.24217901  0.91903850  1
  O  O152  1  0.37855673  0.49897201  0.17018671  1
  O  O153  1  0.37564512  0.50096497  0.41632514  1
  O  O154  1  0.37130191  0.49398581  0.66116959  1
  O  O155  1  0.37329306  0.50520527  0.90963869  1
  O  O156  1  0.37680053  0.74060030  0.16757019  1
  O  O157  1  0.37575975  0.74411146  0.40991457  1
  O  O158  1  0.37176162  0.75082215  0.66470645  1
  O  O159  1  0.37322342  0.74711001  0.91569163  1
  O  O160  1  0.63037712  0.00960073  0.16091879  1
  O  O161  1  0.63015195  -0.00897063  0.41019945  1
  O  O162  1  0.62449944  -0.00107451  0.66444565  1
  O  O163  1  0.62098609  0.00408273  0.91922355  1
  O  O164  1  0.62927891  0.25200089  0.16871464  1
  O  O165  1  0.62365875  0.25628463  0.41388320  1
  O  O166  1  0.62249124  0.24161100  0.65740720  1
  O  O167  1  0.62074959  0.23941432  0.91290791  1
  O  O168  1  0.62449609  0.50007723  0.16783890  1
  O  O169  1  0.62285663  0.49466805  0.41898765  1
  O  O170  1  0.62138837  0.49950651  0.65703426  1
  O  O171  1  0.62308013  0.50208196  0.91093888  1
  O  O172  1  0.62495889  0.74046927  0.16016452  1
  O  O173  1  0.62836098  0.75842358  0.41605702  1
  O  O174  1  0.62390327  0.75868400  0.65693608  1
  O  O175  1  0.62370150  0.75603877  0.91137202  1
  O  O176  1  0.86985785  0.00701008  0.15909963  1
  O  O177  1  0.87282029  0.00181425  0.41147498  1
  O  O178  1  0.87637892  -0.00326968  0.66487397  1
  O  O179  1  0.87692437  -0.00218520  0.91897415  1
  O  O180  1  0.87091394  0.25473492  0.16668135  1
  O  O181  1  0.87243057  0.24422874  0.41062641  1
  O  O182  1  0.87772887  0.24968090  0.65778086  1
  O  O183  1  0.87771947  0.24756362  0.91725597  1
  O  O184  1  0.87080373  0.49557332  0.16530501  1
  O  O185  1  0.87520769  0.50915940  0.41794317  1
  O  O186  1  0.87870671  0.50056564  0.65821567  1
  O  O187  1  0.87683349  0.50444719  0.90846148  1
  O  O188  1  0.87183745  0.74567362  0.16734718  1
  O  O189  1  0.87725118  0.74678601  0.41394427  1
  O  O190  1  0.87809323  0.75036324  0.66842251  1
  O  O191  1  0.87519793  0.75022672  0.91675999  1
  O  O192  1  -0.01222112  0.12880286  0.16371517  1
  O  O193  1  -0.00791153  0.12394667  0.40830524  1
  O  O194  1  0.00532465  0.12330552  0.66165476  1
  O  O195  1  0.00644601  0.12356634  0.92048105  1
  O  O196  1  -0.00983050  0.37815381  0.16453298  1
  O  O197  1  0.00386892  0.38123782  0.41654800  1
  O  O198  1  0.00968479  0.37886891  0.65316187  1
  O  O199  1  0.00615884  0.37436390  0.91719794  1
  O  O200  1  0.00659662  0.62685930  0.15713731  1
  O  O201  1  0.00222251  0.62452857  0.41242446  1
  O  O202  1  0.00908497  0.62472160  0.66387419  1
  O  O203  1  -0.00413769  0.62762116  0.91518214  1
  O  O204  1  0.00198673  0.87009602  0.16370846  1
  O  O205  1  -0.00539234  0.87320542  0.41184930  1
  O  O206  1  0.01023607  0.87032428  0.66037001  1
  O  O207  1  0.00448595  0.87636246  0.91940109  1
  O  O208  1  0.24928087  0.12673345  0.16970972  1
  O  O209  1  0.25255644  0.12706725  0.39903571  1
  O  O210  1  0.24958406  0.12576511  0.66387388  1
  O  O211  1  0.25034172  0.12390747  0.92330603  1
  O  O212  1  0.25832646  0.38050027  0.16463122  1
  O  O213  1  0.25798085  0.38104963  0.40854791  1
  O  O214  1  0.24833700  0.37672050  0.66554917  1
  O  O215  1  0.24457928  0.37500458  0.91547142  1
  O  O216  1  0.24881304  0.62422676  0.16581587  1
  O  O217  1  0.25138925  0.62475958  0.41204178  1
  O  O218  1  0.24553001  0.62277915  0.66674689  1
  O  O219  1  0.25490994  0.62634894  0.91602724  1
  O  O220  1  0.24343349  0.87125966  0.16487426  1
  O  O221  1  0.24905973  0.87020709  0.40500409  1
  O  O222  1  0.24196562  0.87235142  0.66104038  1
  O  O223  1  0.24317120  0.87627614  0.91813164  1
  O  O224  1  0.50940286  0.13155943  0.16173610  1
  O  O225  1  0.50263642  0.12710156  0.41081588  1
  O  O226  1  0.50505135  0.12164597  0.66206813  1
  O  O227  1  0.49581333  0.12324166  0.91602715  1
  O  O228  1  0.50183824  0.37715163  0.16761487  1
  O  O229  1  0.49653219  0.37864766  0.41555274  1
  O  O230  1  0.49195001  0.37199125  0.65892332  1
  O  O231  1  0.49743287  0.37102353  0.91544542  1
  O  O232  1  0.50369601  0.62092744  0.16551412  1
  O  O233  1  0.49287067  0.62422145  0.41470969  1
  O  O234  1  0.49803378  0.62757834  0.65996122  1
  O  O235  1  0.49185021  0.62772062  0.91259043  1
  O  O236  1  0.50609275  0.87213922  0.16751641  1
  O  O237  1  0.50685589  0.87194314  0.40573864  1
  O  O238  1  0.50642697  0.87755511  0.66205700  1
  O  O239  1  0.50325196  0.87870327  0.91665810  1
  O  O240  1  0.75279644  0.13151142  0.16887007  1
  O  O241  1  0.75313774  0.12448803  0.41518456  1
  O  O242  1  0.74172185  0.12114665  0.66092164  1
  O  O243  1  0.74395110  0.12164710  0.90983652  1
  O  O244  1  0.74957108  0.37708683  0.16865857  1
  O  O245  1  0.74401850  0.37668165  0.41486793  1
  O  O246  1  0.74998314  0.37270257  0.65674346  1
  O  O247  1  0.74906587  0.37285902  0.91011741  1
  O  O248  1  0.74252507  0.61999311  0.16366477  1
  O  O249  1  0.75583000  0.62749267  0.41427499  1
  O  O250  1  0.74856648  0.62750146  0.65741852  1
  O  O251  1  0.75594850  0.62756084  0.90986944  1
  O  O252  1  0.74852952  0.87402745  0.16823819  1
  O  O253  1  0.75272956  0.87269779  0.41520908  1
  O  O254  1  0.74298269  0.87674389  0.66219145  1
  O  O255  1  0.74620129  0.87952869  0.91475850  1
  O  O256  1  0.12891921  0.12585675  0.04538374  1
  O  O257  1  0.11346853  0.12361955  0.27495318  1
  O  O258  1  0.12575176  0.12992337  0.52819942  1
  O  O259  1  0.12749184  0.12235545  0.80243621  1
  O  O260  1  0.12284164  0.38443280  0.04301705  1
  O  O261  1  0.12050051  0.38701304  0.28193659  1
  O  O262  1  0.13392400  0.37819684  0.54297972  1
  O  O263  1  0.12442340  0.37289035  0.80136413  1
  O  O264  1  0.12855272  0.62296945  0.04694957  1
  O  O265  1  0.12221103  0.62280836  0.29806552  1
  O  O266  1  0.12862562  0.62564310  0.55060749  1
  O  O267  1  0.12565688  0.62439193  0.78765473  1
  O  O268  1  0.12432921  0.87273622  0.05289645  1
  O  O269  1  0.11600480  0.86972692  0.28080372  1
  O  O270  1  0.12588030  0.87306477  0.54180586  1
  O  O271  1  0.12434628  0.87873811  0.80261601  1
  O  O272  1  0.36818798  0.13062247  0.04559453  1
  O  O273  1  0.38458839  0.12932267  0.27449051  1
  O  O274  1  0.37702959  0.12553622  0.53127289  1
  O  O275  1  0.37213848  0.12388470  0.80404685  1
  O  O276  1  0.37792049  0.37763513  0.05182369  1
  O  O277  1  0.37892251  0.38239346  0.29669503  1
  O  O278  1  0.36954722  0.37398419  0.54824335  1
  O  O279  1  0.37371214  0.36381855  0.78589161  1
  O  O280  1  0.37457659  0.62110883  0.04912268  1
  O  O281  1  0.37565250  0.62024897  0.30097130  1
  O  O282  1  0.36771605  0.62925119  0.53268056  1
  O  O283  1  0.37134417  0.62865330  0.79697243  1
  O  O284  1  0.37986602  0.86699381  0.04137731  1
  O  O285  1  0.37713354  0.86852131  0.27774320  1
  O  O286  1  0.37780319  0.86997759  0.53216064  1
  O  O287  1  0.37006838  0.87933934  0.79012761  1
  O  O288  1  0.63010339  0.13062849  0.05240693  1
  O  O289  1  0.63013531  0.12918726  0.28491098  1
  O  O290  1  0.62209892  0.12233505  0.54459215  1
  O  O291  1  0.62216896  0.12049994  0.79888429  1
  O  O292  1  0.62435351  0.37504853  0.04874727  1
  O  O293  1  0.62405741  0.37876932  0.30395504  1
  O  O294  1  0.62265209  0.37579487  0.53297705  1
  O  O295  1  0.61742462  0.37098210  0.78011912  1
  O  O296  1  0.62357249  0.62061856  0.04869836  1
  O  O297  1  0.62318820  0.62039935  0.29693218  1
  O  O298  1  0.62108956  0.62317935  0.52611392  1
  O  O299  1  0.62091394  0.62738105  0.78282433  1
  O  O300  1  0.62268255  0.87952708  0.03409500  1
  O  O301  1  0.62994343  0.87199600  0.29565962  1
  O  O302  1  0.62408137  0.88193442  0.54488285  1
  O  O303  1  0.62450692  0.87914060  0.80367300  1
  O  O304  1  0.87093975  0.12864517  0.04888457  1
  O  O305  1  0.86875606  0.12429015  0.29791628  1
  O  O306  1  0.87575077  0.11915709  0.53253200  1
  O  O307  1  0.88492163  0.12361856  0.78663273  1
  O  O308  1  0.86983947  0.37339232  0.05124810  1
  O  O309  1  0.87627483  0.38642402  0.29627233  1
  O  O310  1  0.87019406  0.37566589  0.52511793  1
  O  O311  1  0.88189748  0.36767176  0.78306167  1
  O  O312  1  0.87073391  0.62876828  0.03498475  1
  O  O313  1  0.87265092  0.62318979  0.30224376  1
  O  O314  1  0.88088229  0.63568005  0.53206404  1
  O  O315  1  0.88031179  0.62865727  0.79874643  1
  O  O316  1  0.86946600  0.86653438  0.03507657  1
  O  O317  1  0.87212994  0.87283656  0.29749668  1
  O  O318  1  0.87325240  0.86991108  0.53434956  1
  O  O319  1  0.87786263  0.87502298  0.80322139  1
