# generated using pymatgen
data_VFe(PbO3)2
_symmetry_space_group_name_H-M   'P 1'
_cell_length_a   15.39897682
_cell_length_b   15.38453378
_cell_length_c   18.49666968
_cell_angle_alpha   89.98149511
_cell_angle_beta   90.00738131
_cell_angle_gamma   90.00496507
_symmetry_Int_Tables_number   1
_chemical_formula_structural   VFe(PbO3)2
_chemical_formula_sum   'V32 Fe32 Pb64 O192'
_cell_volume   4381.97320902
_cell_formula_units_Z   32
loop_
 _symmetry_equiv_pos_site_id
 _symmetry_equiv_pos_as_xyz
  1  'x, y, z'
loop_
 _atom_site_type_symbol
 _atom_site_label
 _atom_site_symmetry_multiplicity
 _atom_site_fract_x
 _atom_site_fract_y
 _atom_site_fract_z
 _atom_site_occupancy
  V  V0  1  0.12495245  0.12442908  0.88765734  1
  V  V1  1  0.62378067  0.87901130  0.65352160  1
  V  V2  1  0.87153442  0.37310857  0.13304968  1
  V  V3  1  0.62369950  0.12525715  0.88156199  1
  V  V4  1  0.62746081  0.12269495  0.13855796  1
  V  V5  1  0.87693506  0.62599121  0.39244384  1
  V  V6  1  0.37625828  0.37340740  0.89373174  1
  V  V7  1  0.37386436  0.12737726  0.64515864  1
  V  V8  1  0.62708018  0.87311394  0.39305637  1
  V  V9  1  0.37451670  0.87357861  0.39060734  1
  V  V10  1  0.87492924  0.87311620  0.64276759  1
  V  V11  1  0.62433190  0.62456277  0.64567066  1
  V  V12  1  0.37827147  0.87783439  0.13301698  1
  V  V13  1  0.37421809  0.62549482  0.89082573  1
  V  V14  1  0.62461061  0.37248537  0.13614589  1
  V  V15  1  0.37240787  0.37628837  0.38926802  1
  V  V16  1  0.12660834  0.12588080  0.38873280  1
  V  V17  1  0.87297667  0.87486738  0.88532388  1
  V  V18  1  0.12674612  0.62523796  0.64794730  1
  V  V19  1  0.62368453  0.87299645  0.13569262  1
  V  V20  1  0.62506279  0.37482992  0.65359828  1
  V  V21  1  0.88326546  0.12472023  0.64339413  1
  V  V22  1  0.62558443  0.12621462  0.64404413  1
  V  V23  1  0.12596299  0.87327532  0.38846497  1
  V  V24  1  0.12677516  0.37352515  0.64683618  1
  V  V25  1  0.37169732  0.37730116  0.64255908  1
  V  V26  1  0.12589791  0.62417881  0.38889659  1
  V  V27  1  0.37445746  0.62431323  0.64636626  1
  V  V28  1  0.37299903  0.87398223  0.64943214  1
  V  V29  1  0.62688201  0.62464307  0.39241643  1
  V  V30  1  0.62682963  0.37845474  0.39214902  1
  V  V31  1  0.62423497  0.62465560  0.88349229  1
  Fe  Fe32  1  0.12570618  0.87760433  0.64801821  1
  Fe  Fe33  1  0.37550969  0.62724580  0.38682426  1
  Fe  Fe34  1  0.87078347  0.87685486  0.12939076  1
  Fe  Fe35  1  0.12418277  0.37750264  0.38074100  1
  Fe  Fe36  1  0.12401755  0.12286472  0.12821259  1
  Fe  Fe37  1  0.37517530  0.12382073  0.89053921  1
  Fe  Fe38  1  0.87661142  0.37400688  0.64899487  1
  Fe  Fe39  1  0.87444701  0.12431543  0.88626949  1
  Fe  Fe40  1  0.12448683  0.37372166  0.12312605  1
  Fe  Fe41  1  0.87744481  0.37632412  0.38750837  1
  Fe  Fe42  1  0.62236151  0.12627552  0.38985022  1
  Fe  Fe43  1  0.12512987  0.37350407  0.89692692  1
  Fe  Fe44  1  0.62476651  0.87591376  0.87725871  1
  Fe  Fe45  1  0.37947624  0.37320081  0.12638611  1
  Fe  Fe46  1  0.12488471  0.87612901  0.88474728  1
  Fe  Fe47  1  0.87329589  0.12382337  0.38731648  1
  Fe  Fe48  1  0.87289322  0.12539002  0.12858482  1
  Fe  Fe49  1  0.37735476  0.87415037  0.88198997  1
  Fe  Fe50  1  0.37894698  0.12535266  0.12858722  1
  Fe  Fe51  1  0.12273784  0.62654632  0.12231536  1
  Fe  Fe52  1  0.87565604  0.87478165  0.38727565  1
  Fe  Fe53  1  0.62273855  0.37376200  0.87658605  1
  Fe  Fe54  1  0.12371605  0.87678327  0.12644892  1
  Fe  Fe55  1  0.12939195  0.12586048  0.63850706  1
  Fe  Fe56  1  0.12471054  0.62570459  0.89396093  1
  Fe  Fe57  1  0.87290355  0.37348141  0.87890909  1
  Fe  Fe58  1  0.87688144  0.62526200  0.65209602  1
  Fe  Fe59  1  0.87095534  0.62444806  0.12630333  1
  Fe  Fe60  1  0.87332416  0.62587987  0.87963325  1
  Fe  Fe61  1  0.62851836  0.62222238  0.13085442  1
  Fe  Fe62  1  0.37607351  0.12157394  0.38740250  1
  Fe  Fe63  1  0.38004923  0.62475554  0.12938142  1
  Pb  Pb64  1  -0.00206689  -0.00123167  -0.00112677  1
  Pb  Pb65  1  -0.00663705  0.00058667  0.23803057  1
  Pb  Pb66  1  0.00724338  -0.00113031  0.49963673  1
  Pb  Pb67  1  0.00739353  -0.00106746  0.75338662  1
  Pb  Pb68  1  -0.00006581  0.24711302  -0.00442508  1
  Pb  Pb69  1  0.00200713  0.25186504  0.24122289  1
  Pb  Pb70  1  -0.00193636  0.25501011  0.49767570  1
  Pb  Pb71  1  0.00661869  0.26142360  0.76328255  1
  Pb  Pb72  1  -0.00158433  0.50178434  -0.01273614  1
  Pb  Pb73  1  0.00467054  0.49444390  0.23854684  1
  Pb  Pb74  1  -0.00737866  0.49606351  0.50739962  1
  Pb  Pb75  1  -0.00091574  0.50289250  0.76045956  1
  Pb  Pb76  1  0.00101117  0.74915155  -0.00532059  1
  Pb  Pb77  1  -0.00243759  0.75191570  0.23252661  1
  Pb  Pb78  1  0.00287416  0.75041012  0.50267779  1
  Pb  Pb79  1  0.01187192  0.74461445  0.76352844  1
  Pb  Pb80  1  0.24495558  -0.00114619  -0.00489609  1
  Pb  Pb81  1  0.25110291  0.00592600  0.24051969  1
  Pb  Pb82  1  0.24028740  -0.00191070  0.50692290  1
  Pb  Pb83  1  0.25681963  0.00018948  0.75758509  1
  Pb  Pb84  1  0.24407166  0.24449587  0.00412928  1
  Pb  Pb85  1  0.25029546  0.25222086  0.23372259  1
  Pb  Pb86  1  0.24383688  0.24323687  0.49937530  1
  Pb  Pb87  1  0.24719269  0.25452083  0.76111053  1
  Pb  Pb88  1  0.24562586  0.49981841  0.00150260  1
  Pb  Pb89  1  0.24719511  0.49733051  0.23163489  1
  Pb  Pb90  1  0.24900000  0.50133118  0.49757255  1
  Pb  Pb91  1  0.23788963  0.50045219  0.76466165  1
  Pb  Pb92  1  0.24054188  0.75604524  -0.00328189  1
  Pb  Pb93  1  0.25165451  0.74342498  0.23712037  1
  Pb  Pb94  1  0.24471110  0.75838639  0.50590754  1
  Pb  Pb95  1  0.24185578  0.74998357  0.76151238  1
  Pb  Pb96  1  0.49713102  -0.00106866  -0.00880095  1
  Pb  Pb97  1  0.50318387  0.00953706  0.25305778  1
  Pb  Pb98  1  0.49731990  -0.00117226  0.50256011  1
  Pb  Pb99  1  0.49001611  0.00276338  0.75890869  1
  Pb  Pb100  1  0.49379779  0.24984010  -0.00065570  1
  Pb  Pb101  1  0.49899874  0.24225519  0.24965678  1
  Pb  Pb102  1  0.49847753  0.25135296  0.50137904  1
  Pb  Pb103  1  0.49638802  0.24831402  0.75551106  1
  Pb  Pb104  1  0.49697029  0.50192226  0.00067049  1
  Pb  Pb105  1  0.49336512  0.50523299  0.24506181  1
  Pb  Pb106  1  0.50198201  0.49983365  0.50186463  1
  Pb  Pb107  1  0.49921843  0.49574253  0.75650082  1
  Pb  Pb108  1  0.50356038  0.74191597  -0.00324836  1
  Pb  Pb109  1  0.49732177  0.74364933  0.24731582  1
  Pb  Pb110  1  0.49964263  0.75006449  0.50278962  1
  Pb  Pb111  1  0.49853640  0.75781193  0.75686348  1
  Pb  Pb112  1  0.75849382  -0.00173580  -0.00178200  1
  Pb  Pb113  1  0.76063778  0.00306679  0.25227622  1
  Pb  Pb114  1  0.75325540  0.00250590  0.50016102  1
  Pb  Pb115  1  0.75536767  0.00746088  0.75642273  1
  Pb  Pb116  1  0.75279612  0.25000605  -0.01055713  1
  Pb  Pb117  1  0.75833787  0.24671200  0.25311138  1
  Pb  Pb118  1  0.75528895  0.25307681  0.50119871  1
  Pb  Pb119  1  0.76060635  0.24934113  0.75801998  1
  Pb  Pb120  1  0.75045253  0.50589031  -0.01003654  1
  Pb  Pb121  1  0.75523198  0.49635866  0.24579719  1
  Pb  Pb122  1  0.76790904  0.49983457  0.51595425  1
  Pb  Pb123  1  0.76004904  0.49805396  0.75640936  1
  Pb  Pb124  1  0.75344129  0.74642096  -0.00300259  1
  Pb  Pb125  1  0.75721814  0.75235412  0.24448347  1
  Pb  Pb126  1  0.75790946  0.74135752  0.50740205  1
  Pb  Pb127  1  0.74931148  0.75241814  0.75479676  1
  O  O128  1  0.12827704  -0.00216599  0.16291063  1
  O  O129  1  0.12902861  0.00007801  0.41521398  1
  O  O130  1  0.12643544  0.00351959  0.67109665  1
  O  O131  1  0.12426692  0.00463610  0.90640439  1
  O  O132  1  0.12346586  0.25006564  0.15691154  1
  O  O133  1  0.12817032  0.24542792  0.40997035  1
  O  O134  1  0.13123719  0.25461300  0.66799954  1
  O  O135  1  0.12599391  0.24227655  0.91355194  1
  O  O136  1  0.12235907  0.49966539  0.15213106  1
  O  O137  1  0.12594247  0.50809940  0.41256019  1
  O  O138  1  0.12831704  0.49812952  0.67210284  1
  O  O139  1  0.12935792  0.50006425  0.90982213  1
  O  O140  1  0.12786315  0.75218010  0.15673001  1
  O  O141  1  0.12518506  0.74720601  0.41924057  1
  O  O142  1  0.12717950  0.74407746  0.66700500  1
  O  O143  1  0.12406669  0.75241742  0.91102561  1
  O  O144  1  0.38338661  -0.00562046  0.15847330  1
  O  O145  1  0.37628900  -0.00667410  0.42022674  1
  O  O146  1  0.37683531  0.00367547  0.66623031  1
  O  O147  1  0.37739410  -0.00135207  0.91278464  1
  O  O148  1  0.38022186  0.24962917  0.15998098  1
  O  O149  1  0.37640950  0.25905027  0.41437978  1
  O  O150  1  0.37351722  0.24900900  0.66631161  1
  O  O151  1  0.37909800  0.25438588  0.90865752  1
  O  O152  1  0.38125633  0.49806324  0.15910968  1
  O  O153  1  0.37471004  0.49690080  0.41715933  1
  O  O154  1  0.37160353  0.50415372  0.66947686  1
  O  O155  1  0.37869058  0.50199697  0.91410971  1
  O  O156  1  0.38362564  0.75870481  0.15983113  1
  O  O157  1  0.37551547  0.75305754  0.42164020  1
  O  O158  1  0.37244563  0.74297790  0.66914517  1
  O  O159  1  0.38065348  0.74307902  0.90777572  1
  O  O160  1  0.62382535  0.00404238  0.15986354  1
  O  O161  1  0.62152943  -0.00949887  0.41768204  1
  O  O162  1  0.61978632  0.00611002  0.66851941  1
  O  O163  1  0.62384039  0.00535097  0.90252644  1
  O  O164  1  0.62730339  0.25065493  0.16303910  1
  O  O165  1  0.62009796  0.26067541  0.41878156  1
  O  O166  1  0.61795671  0.24435701  0.66719979  1
  O  O167  1  0.62209800  0.24444179  0.90580401  1
  O  O168  1  0.62825647  0.48987979  0.16042319  1
  O  O169  1  0.62173631  0.49777593  0.41959175  1
  O  O170  1  0.61753453  0.50517381  0.66968849  1
  O  O171  1  0.62290616  0.50552597  0.90433656  1
  O  O172  1  0.62487382  0.75750029  0.15786803  1
  O  O173  1  0.62383331  0.75069316  0.42144969  1
  O  O174  1  0.62145656  0.74334182  0.66836178  1
  O  O175  1  0.62363802  0.74334304  0.90600025  1
  O  O176  1  0.86724145  0.00148866  0.16113461  1
  O  O177  1  0.87410963  -0.00151510  0.42002331  1
  O  O178  1  0.87085961  0.00452086  0.66798037  1
  O  O179  1  0.87188119  -0.00430368  0.90903448  1
  O  O180  1  0.86955383  0.25495173  0.15952151  1
  O  O181  1  0.87532911  0.25006075  0.42000459  1
  O  O182  1  0.87041508  0.24032072  0.66340678  1
  O  O183  1  0.87308677  0.24852412  0.90983421  1
  O  O184  1  0.87006826  0.49115486  0.15691289  1
  O  O185  1  0.87557427  0.50446454  0.42213329  1
  O  O186  1  0.87727416  0.49937064  0.67265263  1
  O  O187  1  0.87015485  0.49979157  0.90074123  1
  O  O188  1  0.86747574  0.75144919  0.15778760  1
  O  O189  1  0.87546119  0.74764703  0.42247689  1
  O  O190  1  0.87166191  0.75791226  0.66312288  1
  O  O191  1  0.87066890  0.75604672  0.90540430  1
  O  O192  1  -0.00268812  0.12425671  0.15753444  1
  O  O193  1  0.00927745  0.12271316  0.41265328  1
  O  O194  1  -0.00244847  0.12426723  0.65899185  1
  O  O195  1  0.00482863  0.12343791  0.90786306  1
  O  O196  1  -0.00951943  0.37274662  0.15153585  1
  O  O197  1  0.00365320  0.37688509  0.41948282  1
  O  O198  1  0.01053074  0.37274382  0.66713541  1
  O  O199  1  -0.00315522  0.37282580  0.90958872  1
  O  O200  1  -0.00346531  0.62632457  0.15401456  1
  O  O201  1  0.00452622  0.62756011  0.41804858  1
  O  O202  1  0.00954021  0.62349024  0.66817375  1
  O  O203  1  -0.00379956  0.62706368  0.90576951  1
  O  O204  1  -0.00210820  0.87680638  0.15450886  1
  O  O205  1  0.00531435  0.87362611  0.41633221  1
  O  O206  1  -0.00954147  0.87996765  0.66596366  1
  O  O207  1  -0.00856254  0.87655211  0.90783701  1
  O  O208  1  0.25347144  0.12286027  0.15810259  1
  O  O209  1  0.24779530  0.12398093  0.41516877  1
  O  O210  1  0.25780090  0.12522585  0.66846351  1
  O  O211  1  0.24502217  0.12506284  0.90890419  1
  O  O212  1  0.25167856  0.37518343  0.15087528  1
  O  O213  1  0.25395476  0.37810088  0.41152400  1
  O  O214  1  0.24981447  0.37658200  0.67484565  1
  O  O215  1  0.25982304  0.37532172  0.91477330  1
  O  O216  1  0.25231700  0.62653928  0.15394175  1
  O  O217  1  0.24425547  0.62737906  0.41409598  1
  O  O218  1  0.24962386  0.62303602  0.67269406  1
  O  O219  1  0.25924684  0.62463925  0.91144303  1
  O  O220  1  0.26269616  0.87577813  0.15459288  1
  O  O221  1  0.24946555  0.87207124  0.41970804  1
  O  O222  1  0.25448739  0.87450775  0.67098380  1
  O  O223  1  0.25203064  0.87403767  0.90605914  1
  O  O224  1  0.50788405  0.12633573  0.16359052  1
  O  O225  1  0.49869507  0.12528888  0.42533779  1
  O  O226  1  0.49610340  0.12631164  0.66782899  1
  O  O227  1  0.50752721  0.12506192  0.91016181  1
  O  O228  1  0.51013360  0.37195141  0.15970029  1
  O  O229  1  0.49795838  0.37942961  0.41829739  1
  O  O230  1  0.48916360  0.37628839  0.67004346  1
  O  O231  1  0.49757683  0.37720330  0.91052017  1
  O  O232  1  0.50554332  0.62579757  0.16502613  1
  O  O233  1  0.50375355  0.62502908  0.42157479  1
  O  O234  1  0.49441604  0.62452040  0.66787459  1
  O  O235  1  0.50179665  0.62314281  0.90976476  1
  O  O236  1  0.50538343  0.87822604  0.16325040  1
  O  O237  1  0.50202096  0.87106509  0.41972202  1
  O  O238  1  0.49733731  0.87249605  0.66899484  1
  O  O239  1  0.50334854  0.87285209  0.90925345  1
  O  O240  1  0.74312346  0.12779918  0.16249401  1
  O  O241  1  0.74567829  0.12633364  0.42157386  1
  O  O242  1  0.74154494  0.12433756  0.66413392  1
  O  O243  1  0.74062105  0.12467463  0.90722103  1
  O  O244  1  0.74888422  0.37215444  0.16406566  1
  O  O245  1  0.74240261  0.37730249  0.41543964  1
  O  O246  1  0.74617684  0.37460559  0.66719257  1
  O  O247  1  0.74565990  0.37278074  0.90275556  1
  O  O248  1  0.74922706  0.62211959  0.16631426  1
  O  O249  1  0.74967742  0.62556323  0.42121179  1
  O  O250  1  0.73944124  0.62345807  0.66772134  1
  O  O251  1  0.74300575  0.62614842  0.90320713  1
  O  O252  1  0.73803587  0.87955469  0.16277068  1
  O  O253  1  0.74232521  0.87124856  0.41756353  1
  O  O254  1  0.75502121  0.87941214  0.66989693  1
  O  O255  1  0.75150258  0.87561928  0.90596569  1
  O  O256  1  0.12697490  0.12246466  0.02803569  1
  O  O257  1  0.12932078  0.12176976  0.29828954  1
  O  O258  1  0.13437626  0.12481448  0.53851944  1
  O  O259  1  0.12545514  0.12951318  0.79539551  1
  O  O260  1  0.12647743  0.37061392  0.02146351  1
  O  O261  1  0.11626669  0.37931690  0.28193086  1
  O  O262  1  0.13206539  0.37757954  0.55580870  1
  O  O263  1  0.12914753  0.36530449  0.79322057  1
  O  O264  1  0.12537296  0.62887781  0.02073188  1
  O  O265  1  0.12348511  0.62778128  0.29855795  1
  O  O266  1  0.12998111  0.62050978  0.55697918  1
  O  O267  1  0.12841375  0.63032470  0.78925036  1
  O  O268  1  0.12751005  0.87853706  0.02522163  1
  O  O269  1  0.12970436  0.87169551  0.29820012  1
  O  O270  1  0.13011887  0.87573296  0.54649434  1
  O  O271  1  0.11812320  0.86944663  0.78126198  1
  O  O272  1  0.38316057  0.12864472  0.02777742  1
  O  O273  1  0.38698936  0.12003382  0.28844866  1
  O  O274  1  0.37415997  0.12666609  0.55382690  1
  O  O275  1  0.37942293  0.11980444  0.78896841  1
  O  O276  1  0.38682627  0.37326955  0.02641590  1
  O  O277  1  0.37682380  0.37813589  0.29883966  1
  O  O278  1  0.36757451  0.37788938  0.55148572  1
  O  O279  1  0.37406901  0.37836897  0.80142888  1
  O  O280  1  0.38914977  0.62502650  0.02959098  1
  O  O281  1  0.38324331  0.62999560  0.28799964  1
  O  O282  1  0.37107348  0.62399078  0.55548799  1
  O  O283  1  0.37564714  0.62051487  0.79920826  1
  O  O284  1  0.38243506  0.87613973  0.04200890  1
  O  O285  1  0.37440283  0.87357283  0.29992497  1
  O  O286  1  0.37390165  0.87225124  0.55754227  1
  O  O287  1  0.38065349  0.87996624  0.78032391  1
  O  O288  1  0.62620831  0.12466871  0.04785697  1
  O  O289  1  0.61669515  0.12434715  0.29053696  1
  O  O290  1  0.62199552  0.12585627  0.55299525  1
  O  O291  1  0.62195170  0.12733490  0.78949944  1
  O  O292  1  0.62796728  0.37202058  0.04515907  1
  O  O293  1  0.62389751  0.37854384  0.30173387  1
  O  O294  1  0.61770786  0.37650375  0.56193101  1
  O  O295  1  0.61296533  0.37431412  0.77518363  1
  O  O296  1  0.62771295  0.62545054  0.03091476  1
  O  O297  1  0.62745025  0.62500170  0.30178353  1
  O  O298  1  0.62289877  0.62364868  0.55437701  1
  O  O299  1  0.62017138  0.62575548  0.79182256  1
  O  O300  1  0.62426514  0.87540453  0.04458794  1
  O  O301  1  0.62474007  0.87162939  0.30259892  1
  O  O302  1  0.62722254  0.87437747  0.56220110  1
  O  O303  1  0.62527116  0.86748257  0.77534302  1
  O  O304  1  0.86827558  0.11992894  0.02756577  1
  O  O305  1  0.86705637  0.12525595  0.28745069  1
  O  O306  1  0.87310596  0.12121877  0.55214019  1
  O  O307  1  0.86722629  0.12505414  0.78473825  1
  O  O308  1  0.86479439  0.37164656  0.04217281  1
  O  O309  1  0.87357416  0.37533450  0.28835493  1
  O  O310  1  0.87822900  0.38186062  0.54659358  1
  O  O311  1  0.87834213  0.36506631  0.77520316  1
  O  O312  1  0.86008453  0.62537334  0.02578637  1
  O  O313  1  0.87595051  0.62547889  0.30179184  1
  O  O314  1  0.86968190  0.62132104  0.54973331  1
  O  O315  1  0.87226867  0.62816697  0.77622115  1
  O  O316  1  0.86530847  0.87995912  0.02917162  1
  O  O317  1  0.86655312  0.87606970  0.28830505  1
  O  O318  1  0.87371751  0.87676140  0.55140584  1
  O  O319  1  0.87369204  0.87718708  0.79355718  1
