# generated using pymatgen
data_VFe(PbO3)2
_symmetry_space_group_name_H-M   'P 1'
_cell_length_a   15.38260909
_cell_length_b   15.37480160
_cell_length_c   18.54106457
_cell_angle_alpha   89.99307025
_cell_angle_beta   89.98940181
_cell_angle_gamma   90.00810921
_symmetry_Int_Tables_number   1
_chemical_formula_structural   VFe(PbO3)2
_chemical_formula_sum   'V32 Fe32 Pb64 O192'
_cell_volume   4385.04622087
_cell_formula_units_Z   32
loop_
 _symmetry_equiv_pos_site_id
 _symmetry_equiv_pos_as_xyz
  1  'x, y, z'
loop_
 _atom_site_type_symbol
 _atom_site_label
 _atom_site_symmetry_multiplicity
 _atom_site_fract_x
 _atom_site_fract_y
 _atom_site_fract_z
 _atom_site_occupancy
  V  V0  1  0.87622346  0.12523749  0.64059933  1
  V  V1  1  0.12594321  0.87454519  0.39042956  1
  V  V2  1  0.87569180  0.87464591  0.14162688  1
  V  V3  1  0.12420496  0.12796602  0.38822109  1
  V  V4  1  0.87582020  0.37376406  0.88863132  1
  V  V5  1  0.87645559  0.87830117  0.88389433  1
  V  V6  1  0.12396348  0.87474818  0.64307216  1
  V  V7  1  0.12408283  0.12425428  0.88721500  1
  V  V8  1  0.37685053  0.62475650  0.90058707  1
  V  V9  1  0.62618213  0.12576003  0.88726940  1
  V  V10  1  0.62442926  0.12393033  0.39220222  1
  V  V11  1  0.87302578  0.12397701  0.13918833  1
  V  V12  1  0.12645573  0.12977279  0.63859013  1
  V  V13  1  0.37360047  0.62282643  0.64063934  1
  V  V14  1  0.62290342  0.62211432  0.64373007  1
  V  V15  1  0.62313515  0.37524295  0.38831807  1
  V  V16  1  0.87608472  0.37707958  0.64235410  1
  V  V17  1  0.12596664  0.62719077  0.88980216  1
  V  V18  1  0.12710163  0.62247629  0.64074374  1
  V  V19  1  0.62412117  0.87830118  0.14243230  1
  V  V20  1  0.62385291  0.62309560  0.38805983  1
  V  V21  1  0.37399449  0.37734512  0.64367367  1
  V  V22  1  0.87299737  0.62044352  0.39046641  1
  V  V23  1  0.37600653  0.12274865  0.13554708  1
  V  V24  1  0.37389066  0.87830002  0.88823003  1
  V  V25  1  0.12452071  0.62998865  0.13889335  1
  V  V26  1  0.62569486  0.87636454  0.88576032  1
  V  V27  1  0.87561675  0.62178036  0.64398408  1
  V  V28  1  0.37578454  0.37589171  0.38799935  1
  V  V29  1  0.87366832  0.87476487  0.39767105  1
  V  V30  1  0.87478610  0.62679190  0.13591642  1
  V  V31  1  0.37633629  0.62197722  0.38880050  1
  Fe  Fe32  1  0.12152326  0.87847260  0.13715549  1
  Fe  Fe33  1  0.87602142  0.12414244  0.88291732  1
  Fe  Fe34  1  0.12350824  0.12071647  0.13506798  1
  Fe  Fe35  1  0.62702039  0.62888752  0.89539752  1
  Fe  Fe36  1  0.62401492  0.12771606  0.63311317  1
  Fe  Fe37  1  0.12646348  0.37751738  0.38115789  1
  Fe  Fe38  1  0.87570213  0.37560343  0.13457142  1
  Fe  Fe39  1  0.87957294  0.62612886  0.88360859  1
  Fe  Fe40  1  0.62612351  0.87405147  0.63290345  1
  Fe  Fe41  1  0.37500497  0.12667605  0.39068186  1
  Fe  Fe42  1  0.87209146  0.37369619  0.38210873  1
  Fe  Fe43  1  0.12493581  0.37585591  0.64421081  1
  Fe  Fe44  1  0.37509470  0.86995364  0.63284163  1
  Fe  Fe45  1  0.62562126  0.12145914  0.13374087  1
  Fe  Fe46  1  0.37325155  0.37185118  0.89726199  1
  Fe  Fe47  1  0.62518810  0.87143401  0.38947978  1
  Fe  Fe48  1  0.87387224  0.12493616  0.38776672  1
  Fe  Fe49  1  0.62624776  0.37509482  0.88700911  1
  Fe  Fe50  1  0.62674463  0.37132997  0.12650948  1
  Fe  Fe51  1  0.62582634  0.37610889  0.64663009  1
  Fe  Fe52  1  0.87584028  0.87144238  0.63283086  1
  Fe  Fe53  1  0.37209049  0.12588681  0.63406808  1
  Fe  Fe54  1  0.37468588  0.37624117  0.12414122  1
  Fe  Fe55  1  0.12345589  0.37571524  0.88419042  1
  Fe  Fe56  1  0.37764605  0.62829919  0.12431668  1
  Fe  Fe57  1  0.12308317  0.37226751  0.13623138  1
  Fe  Fe58  1  0.37568545  0.87343297  0.38798232  1
  Fe  Fe59  1  0.12564494  0.87570163  0.88047287  1
  Fe  Fe60  1  0.37358687  0.87514174  0.13555657  1
  Fe  Fe61  1  0.12547278  0.62714603  0.38398845  1
  Fe  Fe62  1  0.62910858  0.62816652  0.12536318  1
  Fe  Fe63  1  0.37355882  0.12241165  0.88210029  1
  Pb  Pb64  1  0.00886575  0.00131465  0.00097281  1
  Pb  Pb65  1  -0.00441028  0.00674665  0.25278244  1
  Pb  Pb66  1  -0.00231808  -0.00431513  0.50228211  1
  Pb  Pb67  1  0.00208837  0.00006601  0.74984875  1
  Pb  Pb68  1  0.00177371  0.25550357  0.00201557  1
  Pb  Pb69  1  -0.00116146  0.25810064  0.24791317  1
  Pb  Pb70  1  -0.00109102  0.25789327  0.49492825  1
  Pb  Pb71  1  -0.00306906  0.24538990  0.75428640  1
  Pb  Pb72  1  -0.00176205  0.48901914  0.00346583  1
  Pb  Pb73  1  0.00618376  0.49586841  0.25182843  1
  Pb  Pb74  1  0.00660502  0.49251237  0.49738326  1
  Pb  Pb75  1  0.00219884  0.49756770  0.75482063  1
  Pb  Pb76  1  0.00737377  0.75708368  -0.00324219  1
  Pb  Pb77  1  0.00303960  0.74401102  0.25394283  1
  Pb  Pb78  1  -0.00506360  0.74983735  0.50224823  1
  Pb  Pb79  1  -0.00335012  0.74605110  0.75112029  1
  Pb  Pb80  1  0.23895709  -0.00123060  0.00225078  1
  Pb  Pb81  1  0.25447290  -0.00129084  0.24863586  1
  Pb  Pb82  1  0.25996772  -0.00033502  0.50157835  1
  Pb  Pb83  1  0.25208632  -0.00062614  0.74557173  1
  Pb  Pb84  1  0.24779804  0.25204897  -0.00342214  1
  Pb  Pb85  1  0.24908115  0.25230512  0.24107945  1
  Pb  Pb86  1  0.25263575  0.24806631  0.50086155  1
  Pb  Pb87  1  0.26252341  0.25318658  0.75966762  1
  Pb  Pb88  1  0.24625033  0.49150565  0.00283567  1
  Pb  Pb89  1  0.24598155  0.49868561  0.24060252  1
  Pb  Pb90  1  0.24193827  0.49411964  0.50007927  1
  Pb  Pb91  1  0.25297185  0.48863084  0.76251165  1
  Pb  Pb92  1  0.25605236  0.75669235  0.00287976  1
  Pb  Pb93  1  0.25702368  0.75503210  0.24588569  1
  Pb  Pb94  1  0.25499874  0.75163165  0.49976068  1
  Pb  Pb95  1  0.24478500  0.75264184  0.75181013  1
  Pb  Pb96  1  0.50060242  0.00203931  -0.00047503  1
  Pb  Pb97  1  0.48703787  0.00129061  0.25822438  1
  Pb  Pb98  1  0.49696656  -0.00529869  0.50017524  1
  Pb  Pb99  1  0.49585352  0.00173833  0.73665382  1
  Pb  Pb100  1  0.50107060  0.25290345  -0.00472126  1
  Pb  Pb101  1  0.49984350  0.24811073  0.23955433  1
  Pb  Pb102  1  0.50383952  0.24253557  0.50616653  1
  Pb  Pb103  1  0.49682409  0.24598999  0.75013741  1
  Pb  Pb104  1  0.50699318  0.49203140  -0.00103638  1
  Pb  Pb105  1  0.50141451  0.50210186  0.22826639  1
  Pb  Pb106  1  0.50367687  0.49268721  0.50419779  1
  Pb  Pb107  1  0.50047468  0.49062560  0.76324918  1
  Pb  Pb108  1  0.49185971  0.75581465  0.00450751  1
  Pb  Pb109  1  0.49915757  0.75344846  0.24561925  1
  Pb  Pb110  1  0.50059866  0.75692038  0.50119236  1
  Pb  Pb111  1  0.50419093  0.74609618  0.74965768  1
  Pb  Pb112  1  0.74634800  0.00545433  -0.00065173  1
  Pb  Pb113  1  0.74917596  0.00036207  0.25613884  1
  Pb  Pb114  1  0.74097331  -0.00195348  0.50389723  1
  Pb  Pb115  1  0.74957000  -0.00407099  0.74148666  1
  Pb  Pb116  1  0.75048516  0.25694679  0.00064313  1
  Pb  Pb117  1  0.75418138  0.25185090  0.24682610  1
  Pb  Pb118  1  0.74325091  0.25009589  0.50110781  1
  Pb  Pb119  1  0.74808005  0.25061905  0.75071834  1
  Pb  Pb120  1  0.74621381  0.50221922  -0.00353470  1
  Pb  Pb121  1  0.74985446  0.49403868  0.23974968  1
  Pb  Pb122  1  0.74329821  0.49271770  0.50296815  1
  Pb  Pb123  1  0.73730695  0.50556971  0.76413114  1
  Pb  Pb124  1  0.74966336  0.74761214  -0.00321430  1
  Pb  Pb125  1  0.74353863  0.75584235  0.25307628  1
  Pb  Pb126  1  0.74836768  0.75341393  0.50414007  1
  Pb  Pb127  1  0.75071744  0.74036965  0.75241716  1
  O  O128  1  0.12185188  0.00024026  0.17177828  1
  O  O129  1  0.12500583  -0.00571332  0.41466760  1
  O  O130  1  0.12294792  0.00425681  0.66305618  1
  O  O131  1  0.12393037  0.00143670  0.91220915  1
  O  O132  1  0.12377750  0.24486434  0.16377118  1
  O  O133  1  0.12561833  0.24567060  0.40722145  1
  O  O134  1  0.12215733  0.24486231  0.66268752  1
  O  O135  1  0.12346743  0.24343018  0.90699894  1
  O  O136  1  0.11914411  0.51042957  0.16046710  1
  O  O137  1  0.12606670  0.50284462  0.41533694  1
  O  O138  1  0.12437195  0.50759497  0.66730284  1
  O  O139  1  0.12486968  0.50990895  0.91235699  1
  O  O140  1  0.11648267  0.74783929  0.16488029  1
  O  O141  1  0.12366430  0.75407488  0.41599058  1
  O  O142  1  0.12421612  0.74391320  0.66547577  1
  O  O143  1  0.12525679  0.75005780  0.91349996  1
  O  O144  1  0.37719825  0.00252853  0.16451263  1
  O  O145  1  0.37341326  -0.00002162  0.41649991  1
  O  O146  1  0.37090226  -0.00205722  0.65635922  1
  O  O147  1  0.37876309  -0.00494887  0.91067745  1
  O  O148  1  0.37574148  0.24297946  0.15555646  1
  O  O149  1  0.37474666  0.25884098  0.41365459  1
  O  O150  1  0.37145032  0.25888825  0.66350215  1
  O  O151  1  0.37302690  0.24269211  0.91558575  1
  O  O152  1  0.37283693  0.50425209  0.15122836  1
  O  O153  1  0.37686391  0.49733537  0.41591967  1
  O  O154  1  0.37428156  0.50170950  0.67209316  1
  O  O155  1  0.37158508  0.50883541  0.91578648  1
  O  O156  1  0.37542622  0.74923275  0.16458068  1
  O  O157  1  0.37627248  0.73985538  0.41214778  1
  O  O158  1  0.37391751  0.74137452  0.66762994  1
  O  O159  1  0.37627585  0.75876806  0.91508187  1
  O  O160  1  0.62976166  -0.00601149  0.16868490  1
  O  O161  1  0.62490595  0.00546214  0.41262093  1
  O  O162  1  0.62721286  0.00188146  0.65991555  1
  O  O163  1  0.62610727  -0.00376343  0.91305662  1
  O  O164  1  0.62587484  0.24576220  0.16167798  1
  O  O165  1  0.62345311  0.25142630  0.41536306  1
  O  O166  1  0.62778878  0.25075472  0.66867712  1
  O  O167  1  0.62812652  0.24228669  0.90568373  1
  O  O168  1  0.63015338  0.50160512  0.15300027  1
  O  O169  1  0.62369525  0.49983336  0.41990858  1
  O  O170  1  0.62496890  0.50556764  0.67283209  1
  O  O171  1  0.62781779  0.50096616  0.91287739  1
  O  O172  1  0.63168862  0.75780000  0.16310095  1
  O  O173  1  0.62495015  0.74078674  0.41608042  1
  O  O174  1  0.62588832  0.74065737  0.66453463  1
  O  O175  1  0.62540815  0.76202570  0.91259303  1
  O  O176  1  0.87216647  -0.00460361  0.16693900  1
  O  O177  1  0.87585061  -0.00211121  0.42076267  1
  O  O178  1  0.87966709  0.00628532  0.65810638  1
  O  O179  1  0.87236785  -0.00612078  0.91085598  1
  O  O180  1  0.87396915  0.24124538  0.15817338  1
  O  O181  1  0.87558121  0.24942291  0.41705695  1
  O  O182  1  0.87951033  0.25123514  0.66551736  1
  O  O183  1  0.87725095  0.25271336  0.91257353  1
  O  O184  1  0.87429763  0.51000405  0.15524893  1
  O  O185  1  0.87216475  0.50467980  0.41292375  1
  O  O186  1  0.87743506  0.49621097  0.66760323  1
  O  O187  1  0.87821540  0.49447737  0.90885333  1
  O  O188  1  0.87487116  0.75381681  0.16559758  1
  O  O189  1  0.87336431  0.74502428  0.41902691  1
  O  O190  1  0.87690018  0.74378646  0.66392731  1
  O  O191  1  0.87481513  0.76200164  0.91103291  1
  O  O192  1  -0.00968706  0.11892954  0.16258213  1
  O  O193  1  0.00883653  0.12132029  0.41599338  1
  O  O194  1  0.00197540  0.12597423  0.66577000  1
  O  O195  1  0.00453863  0.12186585  0.91107877  1
  O  O196  1  -0.00145573  0.37588148  0.16539955  1
  O  O197  1  0.00001242  0.37713338  0.41111518  1
  O  O198  1  -0.00585812  0.37612685  0.66903255  1
  O  O199  1  -0.00245444  0.37407140  0.91361133  1
  O  O200  1  -0.00678248  0.62978368  0.16594880  1
  O  O201  1  -0.00833091  0.62544898  0.41297322  1
  O  O202  1  0.00482763  0.62397933  0.66602975  1
  O  O203  1  0.00658069  0.63086136  0.91297475  1
  O  O204  1  -0.00913369  0.87602228  0.16732401  1
  O  O205  1  0.00412707  0.87294295  0.41887551  1
  O  O206  1  0.00208135  0.87379600  0.66524864  1
  O  O207  1  -0.00561783  0.87770048  0.90445104  1
  O  O208  1  0.25786236  0.12135748  0.15993405  1
  O  O209  1  0.24100304  0.12393185  0.41586657  1
  O  O210  1  0.24191599  0.12615181  0.66204754  1
  O  O211  1  0.24283018  0.12048419  0.91052213  1
  O  O212  1  0.25050199  0.37570382  0.15880341  1
  O  O213  1  0.25657390  0.37767122  0.41105145  1
  O  O214  1  0.25529988  0.38010288  0.66817088  1
  O  O215  1  0.24472040  0.37657318  0.91629011  1
  O  O216  1  0.24103615  0.63014623  0.15409425  1
  O  O217  1  0.25813679  0.62212641  0.41207297  1
  O  O218  1  0.24583224  0.62525106  0.66448645  1
  O  O219  1  0.24536915  0.63163255  0.91750304  1
  O  O220  1  0.24723891  0.87420138  0.16380489  1
  O  O221  1  0.24377264  0.87129591  0.41333228  1
  O  O222  1  0.24646822  0.87103171  0.66560732  1
  O  O223  1  0.25630519  0.87703949  0.90704248  1
  O  O224  1  0.49513008  0.12106797  0.16285457  1
  O  O225  1  0.50555425  0.12807259  0.41685519  1
  O  O226  1  0.49724735  0.12992357  0.65950432  1
  O  O227  1  0.50794168  0.12005588  0.90941554  1
  O  O228  1  0.49939241  0.37441658  0.15394349  1
  O  O229  1  0.49691346  0.37677461  0.41713683  1
  O  O230  1  0.49202798  0.37957339  0.66918588  1
  O  O231  1  0.50101071  0.37469911  0.91198002  1
  O  O232  1  0.50416619  0.63024639  0.15231906  1
  O  O233  1  0.49727916  0.61981794  0.41524873  1
  O  O234  1  0.50200485  0.62278613  0.66623852  1
  O  O235  1  0.49411686  0.63083045  0.91416275  1
  O  O236  1  0.50759235  0.87454198  0.16066185  1
  O  O237  1  0.50024541  0.87253299  0.41639943  1
  O  O238  1  0.50044877  0.86946047  0.66187892  1
  O  O239  1  0.50357596  0.87744922  0.91104301  1
  O  O240  1  0.75572418  0.11880191  0.16527717  1
  O  O241  1  0.74337935  0.12671690  0.41556509  1
  O  O242  1  0.75945281  0.12844074  0.65997549  1
  O  O243  1  0.74595373  0.12050049  0.91152165  1
  O  O244  1  0.75113366  0.37311625  0.16150889  1
  O  O245  1  0.74445710  0.37678093  0.41456397  1
  O  O246  1  0.76057254  0.37500102  0.66769068  1
  O  O247  1  0.75741057  0.37231604  0.90974149  1
  O  O248  1  0.75828014  0.63153447  0.15963428  1
  O  O249  1  0.75090124  0.62310651  0.41638871  1
  O  O250  1  0.74716782  0.62203018  0.66632114  1
  O  O251  1  0.75727972  0.62949503  0.91443173  1
  O  O252  1  0.75456205  0.87510897  0.16924796  1
  O  O253  1  0.75183844  0.87240613  0.41908600  1
  O  O254  1  0.75203571  0.87349849  0.66222422  1
  O  O255  1  0.74752921  0.87778427  0.90838884  1
  O  O256  1  0.12394599  0.11162636  0.03507880  1
  O  O257  1  0.12343488  0.12250589  0.29752461  1
  O  O258  1  0.12510924  0.12817378  0.54773049  1
  O  O259  1  0.12362993  0.12076586  0.79582211  1
  O  O260  1  0.11603357  0.37702412  0.03476523  1
  O  O261  1  0.12609455  0.38264431  0.28107713  1
  O  O262  1  0.12547034  0.38261274  0.54402084  1
  O  O263  1  0.12552027  0.38412281  0.78344983  1
  O  O264  1  0.11562000  0.63240170  0.04820601  1
  O  O265  1  0.11978837  0.62668360  0.28492814  1
  O  O266  1  0.12647924  0.62233028  0.54962147  1
  O  O267  1  0.12772910  0.62841676  0.79857293  1
  O  O268  1  0.11798710  0.88321473  0.03639035  1
  O  O269  1  0.12219054  0.87341659  0.29992238  1
  O  O270  1  0.12589446  0.87276812  0.55176584  1
  O  O271  1  0.12867788  0.87534006  0.78105499  1
  O  O272  1  0.37863109  0.11738194  0.04468135  1
  O  O273  1  0.37917415  0.12148006  0.29117445  1
  O  O274  1  0.36658312  0.13440679  0.53264887  1
  O  O275  1  0.37045481  0.12977319  0.78188822  1
  O  O276  1  0.37247473  0.37406123  0.02320106  1
  O  O277  1  0.37844015  0.37818482  0.29772600  1
  O  O278  1  0.37480274  0.38104088  0.55274941  1
  O  O279  1  0.36749729  0.37620903  0.79431901  1
  O  O280  1  0.37163926  0.64189408  0.02345566  1
  O  O281  1  0.37777694  0.61992570  0.29837339  1
  O  O282  1  0.37432997  0.62109187  0.54984579  1
  O  O283  1  0.37125265  0.62969743  0.80945460  1
  O  O284  1  0.37837213  0.87146415  0.03544078  1
  O  O285  1  0.37776862  0.87395900  0.28722422  1
  O  O286  1  0.37067875  0.86483339  0.53217971  1
  O  O287  1  0.37729410  0.87448430  0.79731029  1
  O  O288  1  0.62684648  0.11461212  0.03448029  1
  O  O289  1  0.62376712  0.12626121  0.30125028  1
  O  O290  1  0.62678413  0.13271581  0.53299525  1
  O  O291  1  0.62759541  0.12087383  0.79625544  1
  O  O292  1  0.63047044  0.36891932  0.02517821  1
  O  O293  1  0.62173383  0.37794732  0.29784160  1
  O  O294  1  0.62514220  0.38456247  0.54607387  1
  O  O295  1  0.62725699  0.38260803  0.78470147  1
  O  O296  1  0.63560559  0.63117359  0.02480555  1
  O  O297  1  0.62481175  0.62148543  0.29736351  1
  O  O298  1  0.62355500  0.61779658  0.55293519  1
  O  O299  1  0.63043646  0.62898719  0.79352853  1
  O  O300  1  0.62958825  0.88075031  0.05136846  1
  O  O301  1  0.63098931  0.86894953  0.28971503  1
  O  O302  1  0.62734623  0.87086293  0.53186430  1
  O  O303  1  0.62483220  0.87662477  0.79479674  1
  O  O304  1  0.87098532  0.11912034  0.04797516  1
  O  O305  1  0.87421684  0.12017481  0.28881146  1
  O  O306  1  0.88067043  0.12996056  0.54997384  1
  O  O307  1  0.88074760  0.12736146  0.78378991  1
  O  O308  1  0.88118822  0.37107775  0.03401239  1
  O  O309  1  0.86991139  0.37275279  0.28226832  1
  O  O310  1  0.87669649  0.37616587  0.55123805  1
  O  O311  1  0.87892989  0.37172272  0.79748374  1
  O  O312  1  0.87895858  0.63293760  0.04513248  1
  O  O313  1  0.87142538  0.62384664  0.29980230  1
  O  O314  1  0.87541624  0.61865602  0.55311535  1
  O  O315  1  0.87819531  0.63097254  0.78353112  1
  O  O316  1  0.87452664  0.87655240  0.05104269  1
  O  O317  1  0.87595538  0.87308055  0.30653223  1
  O  O318  1  0.88052575  0.86824896  0.53284725  1
  O  O319  1  0.87356452  0.87808670  0.79254951  1
