# generated using pymatgen
data_VFe(PbO3)2
_symmetry_space_group_name_H-M   'P 1'
_cell_length_a   15.38185076
_cell_length_b   15.38984357
_cell_length_c   18.53436891
_cell_angle_alpha   90.01407126
_cell_angle_beta   90.02723931
_cell_angle_gamma   90.00055016
_symmetry_Int_Tables_number   1
_chemical_formula_structural   VFe(PbO3)2
_chemical_formula_sum   'V32 Fe32 Pb64 O192'
_cell_volume   4387.53445262
_cell_formula_units_Z   32
loop_
 _symmetry_equiv_pos_site_id
 _symmetry_equiv_pos_as_xyz
  1  'x, y, z'
loop_
 _atom_site_type_symbol
 _atom_site_label
 _atom_site_symmetry_multiplicity
 _atom_site_fract_x
 _atom_site_fract_y
 _atom_site_fract_z
 _atom_site_occupancy
  V  V0  1  0.87765290  0.62862270  0.89507763  1
  V  V1  1  0.37671974  0.12742947  0.13538774  1
  V  V2  1  0.62404663  0.62552314  0.63943049  1
  V  V3  1  0.37587715  0.62557361  0.38337160  1
  V  V4  1  0.87425794  0.37581202  0.64289439  1
  V  V5  1  0.12289966  0.12902616  0.88948709  1
  V  V6  1  0.12562357  0.12436616  0.13733534  1
  V  V7  1  0.87509795  0.62339489  0.63758627  1
  V  V8  1  0.12423345  0.12424583  0.38822288  1
  V  V9  1  0.62502905  0.87394184  0.89564556  1
  V  V10  1  0.62702325  0.62577795  0.89517520  1
  V  V11  1  0.12990874  0.62475638  0.13634820  1
  V  V12  1  0.37579720  0.87329623  0.64205496  1
  V  V13  1  0.12324093  0.87610929  0.89596959  1
  V  V14  1  0.12356576  0.62566919  0.38260701  1
  V  V15  1  0.37499487  0.62308251  0.63985098  1
  V  V16  1  0.62650670  0.62674456  0.13840058  1
  V  V17  1  0.62347667  0.37744352  0.64496308  1
  V  V18  1  0.37675126  0.62703306  0.90385474  1
  V  V19  1  0.12576421  0.62716244  0.89622834  1
  V  V20  1  0.37637707  0.37593418  0.63896836  1
  V  V21  1  0.87569424  0.12805802  0.13487819  1
  V  V22  1  0.12667198  0.62615062  0.63904180  1
  V  V23  1  0.87370815  0.12413757  0.39176744  1
  V  V24  1  0.87557957  0.87510975  0.89307353  1
  V  V25  1  0.87818345  0.12330188  0.88918300  1
  V  V26  1  0.87508461  0.37285764  0.38776837  1
  V  V27  1  0.87957544  0.62190488  0.14421467  1
  V  V28  1  0.37392832  0.37388802  0.89000386  1
  V  V29  1  0.62737288  0.37424406  0.13721571  1
  V  V30  1  0.12607005  0.87290785  0.63889528  1
  V  V31  1  0.62379331  0.87705971  0.38532719  1
  Fe  Fe32  1  0.12316881  0.37396271  0.14095323  1
  Fe  Fe33  1  0.62508494  0.62527951  0.37900285  1
  Fe  Fe34  1  0.62730390  0.12715351  0.12533684  1
  Fe  Fe35  1  0.37584465  0.37475616  0.14262455  1
  Fe  Fe36  1  0.37034136  0.12497467  0.88442959  1
  Fe  Fe37  1  0.87751174  0.37550845  0.88813915  1
  Fe  Fe38  1  0.12664660  0.37997223  0.63573697  1
  Fe  Fe39  1  0.62574542  0.37904922  0.88316373  1
  Fe  Fe40  1  0.87410751  0.87167176  0.63202842  1
  Fe  Fe41  1  0.12333967  0.37309194  0.38560052  1
  Fe  Fe42  1  0.87654117  0.12362504  0.63395206  1
  Fe  Fe43  1  0.12498070  0.87673168  0.37869036  1
  Fe  Fe44  1  0.62541914  0.12395637  0.63429592  1
  Fe  Fe45  1  0.62578512  0.12634717  0.38682439  1
  Fe  Fe46  1  0.37445633  0.87426610  0.89469209  1
  Fe  Fe47  1  0.62613194  0.87917264  0.13181566  1
  Fe  Fe48  1  0.12560399  0.37934421  0.88663161  1
  Fe  Fe49  1  0.37609635  0.87511604  0.13209596  1
  Fe  Fe50  1  0.62500621  0.12485154  0.89497845  1
  Fe  Fe51  1  0.37373562  0.37260733  0.37895388  1
  Fe  Fe52  1  0.87511517  0.87669009  0.38225791  1
  Fe  Fe53  1  0.87150953  0.87588606  0.14260538  1
  Fe  Fe54  1  0.37497508  0.12287019  0.38046093  1
  Fe  Fe55  1  0.62431508  0.37248089  0.38348611  1
  Fe  Fe56  1  0.62360448  0.87203516  0.63416846  1
  Fe  Fe57  1  0.37414215  0.12532207  0.63837541  1
  Fe  Fe58  1  0.12361917  0.87609019  0.14272881  1
  Fe  Fe59  1  0.12553070  0.12685700  0.63389761  1
  Fe  Fe60  1  0.87431060  0.62317307  0.37895088  1
  Fe  Fe61  1  0.37664246  0.62201717  0.12908105  1
  Fe  Fe62  1  0.87355793  0.37365181  0.13377324  1
  Fe  Fe63  1  0.37377367  0.87540274  0.38066354  1
  Pb  Pb64  1  -0.00020445  -0.00713424  0.00819931  1
  Pb  Pb65  1  -0.00317050  -0.00656530  0.25003781  1
  Pb  Pb66  1  -0.00253943  0.00332118  0.49982061  1
  Pb  Pb67  1  -0.00293356  0.00265421  0.74401940  1
  Pb  Pb68  1  0.00236680  0.26284377  0.00276843  1
  Pb  Pb69  1  0.00354066  0.25341747  0.24874476  1
  Pb  Pb70  1  0.00282471  0.24204515  0.50485648  1
  Pb  Pb71  1  0.00386302  0.25697034  0.74698508  1
  Pb  Pb72  1  0.00151284  0.49342049  0.00496382  1
  Pb  Pb73  1  0.00294385  0.49366322  0.25058076  1
  Pb  Pb74  1  0.00578336  0.49542002  0.49721429  1
  Pb  Pb75  1  0.00037999  0.49254212  0.75599746  1
  Pb  Pb76  1  0.00186681  0.75809619  0.01180142  1
  Pb  Pb77  1  -0.00339355  0.75872207  0.25258444  1
  Pb  Pb78  1  -0.00867233  0.75774788  0.49129206  1
  Pb  Pb79  1  0.00061270  0.74523436  0.74798931  1
  Pb  Pb80  1  0.25305906  -0.00364873  0.00246103  1
  Pb  Pb81  1  0.25922045  0.00090060  0.24882672  1
  Pb  Pb82  1  0.25365101  0.00584349  0.49714641  1
  Pb  Pb83  1  0.25908604  0.00265943  0.75225631  1
  Pb  Pb84  1  0.25064217  0.26671423  0.00841842  1
  Pb  Pb85  1  0.25677579  0.25066329  0.25135334  1
  Pb  Pb86  1  0.25091863  0.24701608  0.49504295  1
  Pb  Pb87  1  0.24864009  0.24770765  0.74536423  1
  Pb  Pb88  1  0.25838633  0.49502395  0.00977296  1
  Pb  Pb89  1  0.25469842  0.48878991  0.24862738  1
  Pb  Pb90  1  0.24625084  0.49334263  0.49526450  1
  Pb  Pb91  1  0.24627460  0.49837164  0.75241187  1
  Pb  Pb92  1  0.25028934  0.75887178  0.00972162  1
  Pb  Pb93  1  0.25368496  0.76257214  0.24516608  1
  Pb  Pb94  1  0.24977644  0.75213084  0.49139554  1
  Pb  Pb95  1  0.25716958  0.75416775  0.75743890  1
  Pb  Pb96  1  0.49756946  0.00377139  -0.00222302  1
  Pb  Pb97  1  0.49790925  0.00568057  0.24291427  1
  Pb  Pb98  1  0.49547474  0.00934921  0.49725762  1
  Pb  Pb99  1  0.50732893  0.01051963  0.75359779  1
  Pb  Pb100  1  0.50261933  0.24751040  -0.00463503  1
  Pb  Pb101  1  0.51090915  0.24747328  0.25276575  1
  Pb  Pb102  1  0.49754680  0.24410393  0.49239587  1
  Pb  Pb103  1  0.50556022  0.23639675  0.75586599  1
  Pb  Pb104  1  0.49349285  0.49910567  0.00408867  1
  Pb  Pb105  1  0.50374835  0.49570837  0.24680837  1
  Pb  Pb106  1  0.50079300  0.49693238  0.49051575  1
  Pb  Pb107  1  0.50349226  0.49886872  0.75319288  1
  Pb  Pb108  1  0.49956907  0.75686055  0.00720909  1
  Pb  Pb109  1  0.49543339  0.75555821  0.24146624  1
  Pb  Pb110  1  0.50708054  0.75651791  0.49478382  1
  Pb  Pb111  1  0.49314189  0.75488148  0.75552336  1
  Pb  Pb112  1  0.74981597  -0.00769122  0.00543488  1
  Pb  Pb113  1  0.74538410  0.00144214  0.24365222  1
  Pb  Pb114  1  0.74030002  -0.00182062  0.50269063  1
  Pb  Pb115  1  0.74677482  0.00125424  0.74243640  1
  Pb  Pb116  1  0.74798079  0.25108946  -0.00652320  1
  Pb  Pb117  1  0.73934089  0.24859327  0.25083857  1
  Pb  Pb118  1  0.74641594  0.24305416  0.50276531  1
  Pb  Pb119  1  0.74372687  0.24727047  0.75110983  1
  Pb  Pb120  1  0.75550961  0.49459328  0.00029253  1
  Pb  Pb121  1  0.74763506  0.50556474  0.25244162  1
  Pb  Pb122  1  0.74810537  0.50431385  0.49141015  1
  Pb  Pb123  1  0.75247653  0.49384945  0.75601437  1
  Pb  Pb124  1  0.75299275  0.75820305  0.00936056  1
  Pb  Pb125  1  0.75176126  0.74544819  0.25114205  1
  Pb  Pb126  1  0.75292275  0.75645771  0.49358545  1
  Pb  Pb127  1  0.74940096  0.75057358  0.74558701  1
  O  O128  1  0.12283533  0.00852243  0.16266974  1
  O  O129  1  0.12077154  0.00651654  0.40903084  1
  O  O130  1  0.12983390  -0.01235349  0.66214821  1
  O  O131  1  0.12201350  -0.00686172  0.91664174  1
  O  O132  1  0.12378956  0.24118152  0.16531012  1
  O  O133  1  0.12229495  0.24414198  0.41240308  1
  O  O134  1  0.12574047  0.25455318  0.66174173  1
  O  O135  1  0.12046472  0.24422709  0.90603068  1
  O  O136  1  0.11957049  0.50838188  0.16251189  1
  O  O137  1  0.12601561  0.50742353  0.41181381  1
  O  O138  1  0.12662104  0.50678517  0.66738348  1
  O  O139  1  0.12136543  0.51040487  0.91501933  1
  O  O140  1  0.11991148  0.73950737  0.16279952  1
  O  O141  1  0.12602263  0.74155607  0.40825174  1
  O  O142  1  0.12840715  0.75051591  0.67001332  1
  O  O143  1  0.12008113  0.75103957  0.92231958  1
  O  O144  1  0.37239761  0.00768077  0.15808632  1
  O  O145  1  0.37254764  -0.00158357  0.41333511  1
  O  O146  1  0.37201672  -0.01091918  0.66194011  1
  O  O147  1  0.37073744  0.00030620  0.91544706  1
  O  O148  1  0.36990061  0.24262516  0.16022326  1
  O  O149  1  0.37080599  0.24797705  0.40984657  1
  O  O150  1  0.37427274  0.26025105  0.65977185  1
  O  O151  1  0.37024910  0.25634558  0.91141128  1
  O  O152  1  0.37677198  0.50183279  0.16479066  1
  O  O153  1  0.37368477  0.50877533  0.40811143  1
  O  O154  1  0.37557794  0.50084418  0.66917506  1
  O  O155  1  0.37199369  0.49517231  0.91883901  1
  O  O156  1  0.37793743  0.74582353  0.15593295  1
  O  O157  1  0.37437162  0.74376084  0.41158355  1
  O  O158  1  0.37360397  0.74770813  0.67068515  1
  O  O159  1  0.37480664  0.74775930  0.92304218  1
  O  O160  1  0.62639394  0.00575957  0.15755032  1
  O  O161  1  0.62744750  -0.00513562  0.41036855  1
  O  O162  1  0.62276943  -0.00285107  0.66500309  1
  O  O163  1  0.62811236  -0.00822143  0.91263636  1
  O  O164  1  0.62565565  0.25269352  0.15935898  1
  O  O165  1  0.62770831  0.25111736  0.41884166  1
  O  O166  1  0.62539023  0.25593985  0.66558570  1
  O  O167  1  0.62628581  0.25406726  0.91266152  1
  O  O168  1  0.62706942  0.49568056  0.15992576  1
  O  O169  1  0.62507700  0.49889418  0.41206593  1
  O  O170  1  0.62412747  0.50355108  0.67162651  1
  O  O171  1  0.62715204  0.50547074  0.91806364  1
  O  O172  1  0.62708503  0.74313022  0.15655381  1
  O  O173  1  0.62366762  0.75498874  0.40812469  1
  O  O174  1  0.62259646  0.74426126  0.66830934  1
  O  O175  1  0.62861290  0.75010064  0.92140054  1
  O  O176  1  0.87609529  0.01067228  0.16309983  1
  O  O177  1  0.87692203  0.00738613  0.41021980  1
  O  O178  1  0.87742482  -0.00383343  0.66256534  1
  O  O179  1  0.87918131  -0.00109172  0.91733891  1
  O  O180  1  0.87881010  0.24380999  0.16094688  1
  O  O181  1  0.87737226  0.25083562  0.41579199  1
  O  O182  1  0.87486027  0.25931190  0.66386155  1
  O  O183  1  0.88246796  0.24035751  0.90837350  1
  O  O184  1  0.87097220  0.50285625  0.16396296  1
  O  O185  1  0.87618772  0.49279579  0.40970146  1
  O  O186  1  0.87406623  0.50146136  0.66835606  1
  O  O187  1  0.87872206  0.51103729  0.91571981  1
  O  O188  1  0.86916133  0.74149974  0.16324435  1
  O  O189  1  0.87601832  0.74897345  0.40783818  1
  O  O190  1  0.87665539  0.74420533  0.66631046  1
  O  O191  1  0.87628489  0.74991715  0.92172813  1
  O  O192  1  0.00065187  0.12540354  0.16135733  1
  O  O193  1  -0.00126061  0.12734383  0.41487977  1
  O  O194  1  0.00171986  0.12445701  0.66701571  1
  O  O195  1  0.00388601  0.11716969  0.91795182  1
  O  O196  1  -0.00268602  0.37541861  0.16620762  1
  O  O197  1  -0.00578365  0.37456223  0.41537750  1
  O  O198  1  -0.00554084  0.38147392  0.66284412  1
  O  O199  1  0.00223184  0.37772014  0.91747247  1
  O  O200  1  -0.00430772  0.62355828  0.16211516  1
  O  O201  1  0.00596786  0.62246109  0.40463245  1
  O  O202  1  0.00120706  0.62622164  0.66627332  1
  O  O203  1  -0.00184287  0.63088306  0.92164748  1
  O  O204  1  -0.00275742  0.87415223  0.16531723  1
  O  O205  1  0.00225858  0.87565325  0.41133035  1
  O  O206  1  0.00912761  0.86857531  0.65964799  1
  O  O207  1  0.00073997  0.87273494  0.92100324  1
  O  O208  1  0.24610295  0.12446614  0.15967720  1
  O  O209  1  0.24203078  0.12400703  0.40904543  1
  O  O210  1  0.24931057  0.12333362  0.66813090  1
  O  O211  1  0.23774167  0.11975689  0.91245517  1
  O  O212  1  0.24703476  0.37447153  0.16552290  1
  O  O213  1  0.24927683  0.37752911  0.41234192  1
  O  O214  1  0.25810521  0.38205473  0.66384209  1
  O  O215  1  0.25169133  0.37712621  0.91583086  1
  O  O216  1  0.24479829  0.62376260  0.15238641  1
  O  O217  1  0.25034765  0.62546652  0.40880296  1
  O  O218  1  0.25156129  0.62543002  0.66825518  1
  O  O219  1  0.24159285  0.63032390  0.91785629  1
  O  O220  1  0.25032839  0.87440412  0.15960143  1
  O  O221  1  0.24789631  0.87228823  0.41167311  1
  O  O222  1  0.25136077  0.86759063  0.66867340  1
  O  O223  1  0.24104930  0.87036485  0.91645721  1
  O  O224  1  0.49429320  0.12708496  0.15125309  1
  O  O225  1  0.50056575  0.12318751  0.41082509  1
  O  O226  1  0.49930382  0.12572042  0.66645501  1
  O  O227  1  0.49555230  0.12568248  0.91526406  1
  O  O228  1  0.50798871  0.37354320  0.15960543  1
  O  O229  1  0.49708525  0.37586428  0.41266984  1
  O  O230  1  0.49520771  0.38184253  0.66600520  1
  O  O231  1  0.49296719  0.37767256  0.91071380  1
  O  O232  1  0.50818014  0.61976126  0.15705675  1
  O  O233  1  0.49423329  0.62614429  0.40781566  1
  O  O234  1  0.49815036  0.62418253  0.66853322  1
  O  O235  1  0.50314143  0.62577212  0.92164608  1
  O  O236  1  0.50149255  0.87627378  0.15902112  1
  O  O237  1  0.50428639  0.87428691  0.40992529  1
  O  O238  1  0.49219612  0.86772006  0.66429753  1
  O  O239  1  0.50699440  0.87116795  0.91522668  1
  O  O240  1  0.75705784  0.12856196  0.15501018  1
  O  O241  1  0.75672916  0.12703854  0.41331587  1
  O  O242  1  0.75130879  0.12766459  0.66596232  1
  O  O243  1  0.76201963  0.12208176  0.90929536  1
  O  O244  1  0.74553154  0.37280857  0.16098332  1
  O  O245  1  0.75885558  0.37266204  0.41314606  1
  O  O246  1  0.75270070  0.38009967  0.66774868  1
  O  O247  1  0.75273602  0.37778456  0.91285720  1
  O  O248  1  0.74632667  0.62035903  0.16403257  1
  O  O249  1  0.75003146  0.62385748  0.41199649  1
  O  O250  1  0.75009974  0.62452235  0.66549867  1
  O  O251  1  0.75647448  0.62798617  0.91854861  1
  O  O252  1  0.74734227  0.87608503  0.16697375  1
  O  O253  1  0.74451009  0.87480639  0.40845218  1
  O  O254  1  0.74936218  0.87006669  0.66491207  1
  O  O255  1  0.75132644  0.87280141  0.91751518  1
  O  O256  1  0.12544513  0.12628142  0.04639702  1
  O  O257  1  0.12078047  0.12668879  0.29741338  1
  O  O258  1  0.12132303  0.12320624  0.53416002  1
  O  O259  1  0.12076395  0.12042484  0.79857644  1
  O  O260  1  0.12407913  0.36852071  0.03881875  1
  O  O261  1  0.11785594  0.37757961  0.28530126  1
  O  O262  1  0.12441721  0.38788886  0.53569456  1
  O  O263  1  0.12302286  0.38483781  0.78639826  1
  O  O264  1  0.12105092  0.62517271  0.04521232  1
  O  O265  1  0.12747169  0.62397611  0.29209814  1
  O  O266  1  0.12575895  0.62744946  0.54847234  1
  O  O267  1  0.12163328  0.63143542  0.80536797  1
  O  O268  1  0.11959195  0.87287067  0.04103119  1
  O  O269  1  0.12254982  0.87049556  0.27789422  1
  O  O270  1  0.13138498  0.86917816  0.54838488  1
  O  O271  1  0.12082384  0.87320072  0.80540127  1
  O  O272  1  0.36977497  0.12670443  0.04395368  1
  O  O273  1  0.37165722  0.11841242  0.27980843  1
  O  O274  1  0.37108729  0.11839261  0.53821316  1
  O  O275  1  0.37366883  0.12435595  0.78391337  1
  O  O276  1  0.36641115  0.37498113  0.04086330  1
  O  O277  1  0.37087411  0.37484713  0.27775106  1
  O  O278  1  0.37684269  0.38121539  0.54827501  1
  O  O279  1  0.37052418  0.37871000  0.79940186  1
  O  O280  1  0.37452848  0.61226209  0.02746221  1
  O  O281  1  0.37544114  0.62724932  0.29267402  1
  O  O282  1  0.37511014  0.62439092  0.54948939  1
  O  O283  1  0.37471999  0.62312574  0.81232698  1
  O  O284  1  0.37256178  0.87595380  0.03007646  1
  O  O285  1  0.37360133  0.87344080  0.28019162  1
  O  O286  1  0.37212939  0.86743182  0.55144667  1
  O  O287  1  0.37312679  0.86377407  0.79395227  1
  O  O288  1  0.62725343  0.12842133  0.02415922  1
  O  O289  1  0.62603454  0.13601491  0.28566429  1
  O  O290  1  0.63061688  0.12138395  0.53373312  1
  O  O291  1  0.61893686  0.12504796  0.79265285  1
  O  O292  1  0.62894769  0.37405500  0.04587053  1
  O  O293  1  0.62372813  0.36312762  0.28326802  1
  O  O294  1  0.62486802  0.38191076  0.55432284  1
  O  O295  1  0.62643378  0.38274286  0.78320821  1
  O  O296  1  0.63078279  0.62251481  0.04731856  1
  O  O297  1  0.62785989  0.62101064  0.27972287  1
  O  O298  1  0.62293474  0.62448368  0.54867310  1
  O  O299  1  0.62574358  0.62784562  0.80456223  1
  O  O300  1  0.63412200  0.87399759  0.03133876  1
  O  O301  1  0.62301785  0.87814141  0.29430847  1
  O  O302  1  0.62437160  0.87161384  0.53473859  1
  O  O303  1  0.62650849  0.86807550  0.80475148  1
  O  O304  1  0.87957005  0.12571029  0.04393322  1
  O  O305  1  0.87529875  0.12819939  0.30111275  1
  O  O306  1  0.88063499  0.12725407  0.53423935  1
  O  O307  1  0.88414300  0.11840016  0.79847916  1
  O  O308  1  0.87975393  0.37609538  0.03346786  1
  O  O309  1  0.87630624  0.36977240  0.29679722  1
  O  O310  1  0.87201826  0.37881970  0.55253092  1
  O  O311  1  0.88037205  0.38353771  0.78788166  1
  O  O312  1  0.87532202  0.62188835  0.05286135  1
  O  O313  1  0.86502433  0.62229042  0.27941193  1
  O  O314  1  0.87617958  0.62251228  0.54691785  1
  O  O315  1  0.87960413  0.63146798  0.80437240  1
  O  O316  1  0.87064536  0.87760508  0.04046784  1
  O  O317  1  0.87875100  0.87827312  0.28137902  1
  O  O318  1  0.87527445  0.86673422  0.53228129  1
  O  O319  1  0.87729755  0.87235708  0.80260308  1
