# generated using pymatgen
data_VFe(PbO3)2
_symmetry_space_group_name_H-M   'P 1'
_cell_length_a   15.39393960
_cell_length_b   15.39802359
_cell_length_c   18.45615654
_cell_angle_alpha   89.96798346
_cell_angle_beta   89.98266469
_cell_angle_gamma   90.01024507
_symmetry_Int_Tables_number   1
_chemical_formula_structural   VFe(PbO3)2
_chemical_formula_sum   'V32 Fe32 Pb64 O192'
_cell_volume   4374.77708836
_cell_formula_units_Z   32
loop_
 _symmetry_equiv_pos_site_id
 _symmetry_equiv_pos_as_xyz
  1  'x, y, z'
loop_
 _atom_site_type_symbol
 _atom_site_label
 _atom_site_symmetry_multiplicity
 _atom_site_fract_x
 _atom_site_fract_y
 _atom_site_fract_z
 _atom_site_occupancy
  V  V0  1  0.87465013  0.62379192  0.39532080  1
  V  V1  1  0.37077938  0.87847529  0.64621487  1
  V  V2  1  0.62672621  0.62741776  0.88615803  1
  V  V3  1  0.62603222  0.87570024  0.13788697  1
  V  V4  1  0.37523429  0.87097707  0.39206887  1
  V  V5  1  0.62271687  0.37751736  0.39424257  1
  V  V6  1  0.87653260  0.37693183  0.14230760  1
  V  V7  1  0.12195429  0.37381191  0.14077160  1
  V  V8  1  0.87810799  0.62513717  0.13932858  1
  V  V9  1  0.87317709  0.62690968  0.63917723  1
  V  V10  1  0.37384664  0.12363114  0.39743485  1
  V  V11  1  0.37506055  0.37352128  0.39185962  1
  V  V12  1  0.87479574  0.37533297  0.40106654  1
  V  V13  1  0.87588240  0.12591266  0.40541599  1
  V  V14  1  0.12198297  0.12501368  0.13967002  1
  V  V15  1  0.62281066  0.37703227  0.63421640  1
  V  V16  1  0.12279092  0.12294205  0.39783431  1
  V  V17  1  0.12797031  0.12533560  0.63947102  1
  V  V18  1  0.37527296  0.37278039  0.64057119  1
  V  V19  1  0.87746356  0.12687887  0.13997054  1
  V  V20  1  0.37439755  0.62042667  0.39093433  1
  V  V21  1  0.62170736  0.12454123  0.63991544  1
  V  V22  1  0.62651782  0.12591000  0.39655315  1
  V  V23  1  0.37581734  0.12527447  0.88334335  1
  V  V24  1  0.62295748  0.87315024  0.63808377  1
  V  V25  1  0.87243911  0.12719153  0.88008137  1
  V  V26  1  0.37356658  0.87417119  0.13928285  1
  V  V27  1  0.12170725  0.87452947  0.64553325  1
  V  V28  1  0.62381389  0.37444688  0.88736271  1
  V  V29  1  0.62507301  0.12536824  0.14026728  1
  V  V30  1  0.87669643  0.87331507  0.39528267  1
  V  V31  1  0.62390895  0.87691550  0.39557621  1
  Fe  Fe32  1  0.37827152  0.62267743  0.87614031  1
  Fe  Fe33  1  0.12644946  0.37586154  0.39983359  1
  Fe  Fe34  1  0.12774563  0.87727240  0.39036104  1
  Fe  Fe35  1  0.37541373  0.12360224  0.63520349  1
  Fe  Fe36  1  0.37657707  0.37391324  0.87966611  1
  Fe  Fe37  1  0.87255008  0.37624467  0.87292210  1
  Fe  Fe38  1  0.87558789  0.12261222  0.63086853  1
  Fe  Fe39  1  0.12644639  0.37514398  0.64002558  1
  Fe  Fe40  1  0.62457195  0.62537264  0.62877868  1
  Fe  Fe41  1  0.62265664  0.87796135  0.88151136  1
  Fe  Fe42  1  0.37877274  0.87359033  0.87815918  1
  Fe  Fe43  1  0.38004139  0.62726663  0.64652808  1
  Fe  Fe44  1  0.12352887  0.62405461  0.13015209  1
  Fe  Fe45  1  0.87240639  0.87414585  0.87549205  1
  Fe  Fe46  1  0.12409950  0.62803093  0.39319124  1
  Fe  Fe47  1  0.87285584  0.87815512  0.64638256  1
  Fe  Fe48  1  0.87139817  0.37401483  0.64014399  1
  Fe  Fe49  1  0.62872842  0.37340057  0.13566338  1
  Fe  Fe50  1  0.62614748  0.62344015  0.13355793  1
  Fe  Fe51  1  0.87191528  0.62260094  0.87815603  1
  Fe  Fe52  1  0.62698387  0.62818991  0.39958042  1
  Fe  Fe53  1  0.37539803  0.37078885  0.13399076  1
  Fe  Fe54  1  0.12234678  0.87577181  0.13257219  1
  Fe  Fe55  1  0.12615147  0.62757341  0.64646345  1
  Fe  Fe56  1  0.12402964  0.62358900  0.87214724  1
  Fe  Fe57  1  0.37058808  0.12351957  0.13618391  1
  Fe  Fe58  1  0.37465959  0.62186852  0.13242684  1
  Fe  Fe59  1  0.12607595  0.87766761  0.87715323  1
  Fe  Fe60  1  0.62590090  0.12757961  0.88070981  1
  Fe  Fe61  1  0.12408520  0.12556193  0.87762103  1
  Fe  Fe62  1  0.87331459  0.87450048  0.13453834  1
  Fe  Fe63  1  0.12587039  0.37158905  0.87109887  1
  Pb  Pb64  1  0.00067157  -0.01418176  -0.00813790  1
  Pb  Pb65  1  0.00222244  -0.00769672  0.25104404  1
  Pb  Pb66  1  -0.00892437  -0.00367959  0.51009974  1
  Pb  Pb67  1  0.00566969  0.00222911  0.75139093  1
  Pb  Pb68  1  0.00059421  0.25365587  -0.01584808  1
  Pb  Pb69  1  0.00566123  0.25516158  0.25980947  1
  Pb  Pb70  1  0.00063885  0.26109684  0.51383977  1
  Pb  Pb71  1  -0.00036491  0.25634425  0.74232867  1
  Pb  Pb72  1  0.00444439  0.50264174  -0.01927336  1
  Pb  Pb73  1  0.01213574  0.50054853  0.25851309  1
  Pb  Pb74  1  0.01023041  0.49977655  0.51193304  1
  Pb  Pb75  1  0.00413989  0.49649852  0.74398261  1
  Pb  Pb76  1  0.00715230  0.74870551  -0.01485129  1
  Pb  Pb77  1  0.00756642  0.75139352  0.24772578  1
  Pb  Pb78  1  0.00753821  0.74891474  0.50752053  1
  Pb  Pb79  1  -0.00723738  0.74658771  0.75503757  1
  Pb  Pb80  1  0.24462108  -0.00579250  -0.00876258  1
  Pb  Pb81  1  0.24390793  -0.00683940  0.25157412  1
  Pb  Pb82  1  0.25360893  0.00247514  0.50664896  1
  Pb  Pb83  1  0.24267173  0.00083364  0.75544327  1
  Pb  Pb84  1  0.25588183  0.25326437  -0.00697457  1
  Pb  Pb85  1  0.24763263  0.25212335  0.25199718  1
  Pb  Pb86  1  0.24694636  0.25296616  0.50696083  1
  Pb  Pb87  1  0.25139053  0.25675750  0.75089080  1
  Pb  Pb88  1  0.25193956  0.50281989  -0.01715077  1
  Pb  Pb89  1  0.24875755  0.50231078  0.24594883  1
  Pb  Pb90  1  0.23993122  0.50596233  0.51147984  1
  Pb  Pb91  1  0.24827145  0.50736455  0.74840430  1
  Pb  Pb92  1  0.24708499  0.74181838  -0.01613235  1
  Pb  Pb93  1  0.23861394  0.74217864  0.24626079  1
  Pb  Pb94  1  0.24584421  0.74169317  0.51040506  1
  Pb  Pb95  1  0.25149561  0.74368207  0.75412150  1
  Pb  Pb96  1  0.49917838  0.00267212  -0.00838361  1
  Pb  Pb97  1  0.49797969  -0.00318934  0.25024925  1
  Pb  Pb98  1  0.49563092  0.00147805  0.50630286  1
  Pb  Pb99  1  0.50335405  -0.00550213  0.75433354  1
  Pb  Pb100  1  0.49151949  0.25151370  0.00119522  1
  Pb  Pb101  1  0.49689916  0.25204313  0.24797246  1
  Pb  Pb102  1  0.49527262  0.24794297  0.50435890  1
  Pb  Pb103  1  0.49923733  0.25021568  0.75153061  1
  Pb  Pb104  1  0.49670141  0.50314611  -0.00073265  1
  Pb  Pb105  1  0.50157464  0.49897770  0.24279885  1
  Pb  Pb106  1  0.49540095  0.51236368  0.50715890  1
  Pb  Pb107  1  0.49561225  0.50395282  0.74956515  1
  Pb  Pb108  1  0.49467450  0.74089751  -0.00554653  1
  Pb  Pb109  1  0.50713884  0.73958942  0.25058605  1
  Pb  Pb110  1  0.49504366  0.74233665  0.50880712  1
  Pb  Pb111  1  0.50062696  0.75547698  0.75124628  1
  Pb  Pb112  1  0.75386119  -0.00294600  -0.00907804  1
  Pb  Pb113  1  0.75321413  -0.00011149  0.24987668  1
  Pb  Pb114  1  0.75759761  -0.00347926  0.51066172  1
  Pb  Pb115  1  0.74544631  0.00026611  0.74939589  1
  Pb  Pb116  1  0.74648487  0.25683853  -0.00436551  1
  Pb  Pb117  1  0.75488062  0.24954564  0.25236761  1
  Pb  Pb118  1  0.75622779  0.25348297  0.51026870  1
  Pb  Pb119  1  0.74846815  0.24556203  0.74548411  1
  Pb  Pb120  1  0.74297486  0.49846169  -0.00212537  1
  Pb  Pb121  1  0.74601526  0.50354929  0.25142701  1
  Pb  Pb122  1  0.75367867  0.49653910  0.50671593  1
  Pb  Pb123  1  0.75812600  0.50282819  0.74925258  1
  Pb  Pb124  1  0.75953082  0.75702894  -0.00646031  1
  Pb  Pb125  1  0.74490919  0.74338558  0.25233210  1
  Pb  Pb126  1  0.75511940  0.75786964  0.50810092  1
  Pb  Pb127  1  0.75550975  0.75026379  0.75124436  1
  O  O128  1  0.12242267  0.00718118  0.16387049  1
  O  O129  1  0.12578507  0.00407532  0.42223711  1
  O  O130  1  0.12898700  -0.00113410  0.66209725  1
  O  O131  1  0.12469347  0.00410068  0.91174353  1
  O  O132  1  0.11974450  0.24876563  0.16987734  1
  O  O133  1  0.12496371  0.24181559  0.42281699  1
  O  O134  1  0.12803343  0.24259988  0.65674986  1
  O  O135  1  0.12301031  0.24777342  0.90790589  1
  O  O136  1  0.12111986  0.49163198  0.16235741  1
  O  O137  1  0.12574467  0.50375099  0.42391530  1
  O  O138  1  0.12644582  0.49998905  0.65756489  1
  O  O139  1  0.12549256  0.49693539  0.89898275  1
  O  O140  1  0.12265893  0.74993931  0.16192183  1
  O  O141  1  0.12636650  0.75358731  0.42216693  1
  O  O142  1  0.12804303  0.75948938  0.66600023  1
  O  O143  1  0.12480678  0.75067025  0.89928329  1
  O  O144  1  0.37659268  -0.00362327  0.16929474  1
  O  O145  1  0.37596790  -0.00074251  0.41999663  1
  O  O146  1  0.37844854  -0.00313902  0.66472371  1
  O  O147  1  0.37794700  0.00801445  0.90586949  1
  O  O148  1  0.37201909  0.24597883  0.17276798  1
  O  O149  1  0.37578898  0.24822148  0.41856801  1
  O  O150  1  0.37971635  0.25203875  0.66183784  1
  O  O151  1  0.37818592  0.24466837  0.91083206  1
  O  O152  1  0.37338659  0.49542374  0.16468413  1
  O  O153  1  0.37753711  0.50337521  0.41246748  1
  O  O154  1  0.38080336  0.49012545  0.66066549  1
  O  O155  1  0.37965289  0.49854520  0.90553438  1
  O  O156  1  0.37702471  0.76027566  0.16376001  1
  O  O157  1  0.37727117  0.75465712  0.41231571  1
  O  O158  1  0.38074172  0.76051514  0.66498021  1
  O  O159  1  0.38132348  0.74724557  0.90465096  1
  O  O160  1  0.62865082  0.00451512  0.16813145  1
  O  O161  1  0.62430729  0.00217478  0.42161820  1
  O  O162  1  0.62259655  0.00350677  0.66038546  1
  O  O163  1  0.62637979  0.00435897  0.91254499  1
  O  O164  1  0.62989484  0.24120332  0.16712244  1
  O  O165  1  0.62398550  0.24467434  0.41991330  1
  O  O166  1  0.62259095  0.24915817  0.65963069  1
  O  O167  1  0.62698565  0.25480570  0.91178544  1
  O  O168  1  0.62858135  0.49859198  0.16781335  1
  O  O169  1  0.62471896  0.49609510  0.41491440  1
  O  O170  1  0.62226427  0.49267893  0.65289778  1
  O  O171  1  0.62605094  0.49553850  0.91083755  1
  O  O172  1  0.62686089  0.75351411  0.16505968  1
  O  O173  1  0.62388536  0.76029981  0.42058138  1
  O  O174  1  0.62253328  0.75678723  0.65409056  1
  O  O175  1  0.62284600  0.74316514  0.90395025  1
  O  O176  1  0.87453652  0.00625496  0.16751621  1
  O  O177  1  0.87374170  -0.00573138  0.41999786  1
  O  O178  1  0.87322850  0.00358089  0.66515840  1
  O  O179  1  0.86984683  0.00719353  0.90166364  1
  O  O180  1  0.87773930  0.24967590  0.17318207  1
  O  O181  1  0.87380372  0.25055085  0.42418207  1
  O  O182  1  0.87209923  0.24549854  0.65574928  1
  O  O183  1  0.87174276  0.24714793  0.90530193  1
  O  O184  1  0.87578221  0.49902610  0.17023563  1
  O  O185  1  0.87246880  0.50543954  0.41896100  1
  O  O186  1  0.87106872  0.50659181  0.65913569  1
  O  O187  1  0.87018305  0.49850949  0.90650247  1
  O  O188  1  0.87554452  0.74184185  0.16213635  1
  O  O189  1  0.87340170  0.75357500  0.41828058  1
  O  O190  1  0.87067623  0.74658247  0.66238546  1
  O  O191  1  0.87094075  0.74789035  0.90710871  1
  O  O192  1  0.00313006  0.12656983  0.16922149  1
  O  O193  1  0.00461669  0.12274112  0.42213086  1
  O  O194  1  0.00777750  0.12143058  0.65649779  1
  O  O195  1  -0.01061133  0.12601814  0.90392520  1
  O  O196  1  0.00201037  0.37215500  0.17313096  1
  O  O197  1  -0.00435115  0.37559846  0.42526426  1
  O  O198  1  -0.00138935  0.37307593  0.65555561  1
  O  O199  1  -0.00178843  0.37225061  0.90076953  1
  O  O200  1  -0.00586655  0.62044539  0.16517586  1
  O  O201  1  -0.00882027  0.62826378  0.42121404  1
  O  O202  1  -0.00850575  0.62866975  0.66062408  1
  O  O203  1  -0.00150107  0.62410089  0.90063566  1
  O  O204  1  -0.00290998  0.87737234  0.16677665  1
  O  O205  1  -0.00617227  0.87612870  0.41648220  1
  O  O206  1  0.00549585  0.87728344  0.65993104  1
  O  O207  1  -0.00287444  0.87809333  0.90224912  1
  O  O208  1  0.23932448  0.12643071  0.16566870  1
  O  O209  1  0.24669995  0.12364999  0.42006983  1
  O  O210  1  0.24790709  0.12237571  0.66223553  1
  O  O211  1  0.25733513  0.12663247  0.90403127  1
  O  O212  1  0.23886258  0.36907621  0.16330138  1
  O  O213  1  0.25799718  0.37502110  0.42024772  1
  O  O214  1  0.25862501  0.37047554  0.65689838  1
  O  O215  1  0.25051041  0.37039459  0.90474108  1
  O  O216  1  0.24913543  0.62343598  0.16400484  1
  O  O217  1  0.25932528  0.62839612  0.41805755  1
  O  O218  1  0.25453754  0.62829760  0.66334144  1
  O  O219  1  0.25113165  0.62416243  0.89878728  1
  O  O220  1  0.25515791  0.87943442  0.16126874  1
  O  O221  1  0.25923832  0.87877418  0.41653362  1
  O  O222  1  0.25338304  0.87764913  0.66467212  1
  O  O223  1  0.25375500  0.87798381  0.90591412  1
  O  O224  1  0.50826146  0.12356392  0.16327818  1
  O  O225  1  0.50379004  0.12337002  0.41891310  1
  O  O226  1  0.50400335  0.12563749  0.66292284  1
  O  O227  1  0.49641827  0.12777001  0.90918664  1
  O  O228  1  0.50267351  0.36851550  0.16532926  1
  O  O229  1  0.49766874  0.37168054  0.41898252  1
  O  O230  1  0.50484720  0.37058929  0.66256145  1
  O  O231  1  0.50712074  0.37258618  0.91012343  1
  O  O232  1  0.49963490  0.62588258  0.16655048  1
  O  O233  1  0.49210101  0.62939846  0.41588601  1
  O  O234  1  0.50668756  0.62450496  0.66616381  1
  O  O235  1  0.50855411  0.61855807  0.90979451  1
  O  O236  1  0.50176002  0.87932420  0.16740784  1
  O  O237  1  0.49488574  0.88001434  0.41896645  1
  O  O238  1  0.50398765  0.88006290  0.66140734  1
  O  O239  1  0.50034343  0.87783543  0.91576415  1
  O  O240  1  0.75080785  0.12559757  0.16907124  1
  O  O241  1  0.74446451  0.12400061  0.41983075  1
  O  O242  1  0.74177043  0.12504207  0.65839569  1
  O  O243  1  0.75594607  0.12865215  0.91106971  1
  O  O244  1  0.75597627  0.37115568  0.17143342  1
  O  O245  1  0.74728849  0.37326991  0.42272267  1
  O  O246  1  0.73820382  0.37225847  0.65912549  1
  O  O247  1  0.74510001  0.37396371  0.91007744  1
  O  O248  1  0.75781824  0.62271396  0.16723974  1
  O  O249  1  0.75833266  0.62967104  0.42106473  1
  O  O250  1  0.74982012  0.62599280  0.65844350  1
  O  O251  1  0.74184988  0.62132857  0.91114598  1
  O  O252  1  0.74713769  0.87751905  0.16838550  1
  O  O253  1  0.75216401  0.87693926  0.41961387  1
  O  O254  1  0.73924247  0.87922941  0.66092010  1
  O  O255  1  0.74806505  0.87499227  0.91026864  1
  O  O256  1  0.12044173  0.12857311  0.04932192  1
  O  O257  1  0.12319250  0.12369741  0.30639095  1
  O  O258  1  0.13095631  0.12112922  0.54753309  1
  O  O259  1  0.12396834  0.11639645  0.77726974  1
  O  O260  1  0.11659846  0.36891358  0.05051910  1
  O  O261  1  0.11778629  0.37359552  0.29907986  1
  O  O262  1  0.12821270  0.37264335  0.53495926  1
  O  O263  1  0.12675998  0.36691557  0.76813743  1
  O  O264  1  0.12189872  0.62420028  0.03099183  1
  O  O265  1  0.12347346  0.62490916  0.29215917  1
  O  O266  1  0.12808103  0.63315826  0.54194162  1
  O  O267  1  0.12593556  0.62509452  0.76895355  1
  O  O268  1  0.12069322  0.88345514  0.03303485  1
  O  O269  1  0.12588508  0.88172625  0.28996548  1
  O  O270  1  0.12900605  0.87426661  0.55302018  1
  O  O271  1  0.12540304  0.88792961  0.77554663  1
  O  O272  1  0.37359203  0.12862616  0.03784843  1
  O  O273  1  0.37302494  0.12188890  0.30600241  1
  O  O274  1  0.37716198  0.12071396  0.53449104  1
  O  O275  1  0.37904879  0.12918238  0.79147687  1
  O  O276  1  0.37463954  0.36119080  0.03417533  1
  O  O277  1  0.37432580  0.37109666  0.30052505  1
  O  O278  1  0.38058244  0.37183663  0.54857315  1
  O  O279  1  0.37994032  0.36650024  0.77881350  1
  O  O280  1  0.38110636  0.62457029  0.03239766  1
  O  O281  1  0.37284747  0.62349235  0.29966411  1
  O  O282  1  0.38441296  0.62741282  0.54291145  1
  O  O283  1  0.38092246  0.62132905  0.77313249  1
  O  O284  1  0.37792769  0.87712813  0.04870743  1
  O  O285  1  0.37744140  0.87694135  0.30098360  1
  O  O286  1  0.37261653  0.87793000  0.55383061  1
  O  O287  1  0.38823286  0.87708376  0.77733501  1
  O  O288  1  0.62858009  0.12565333  0.04956265  1
  O  O289  1  0.62575222  0.12449840  0.30562689  1
  O  O290  1  0.62023854  0.12470418  0.54810374  1
  O  O291  1  0.63001671  0.12834426  0.78077945  1
  O  O292  1  0.63505184  0.37368450  0.03645708  1
  O  O293  1  0.62540023  0.37003579  0.30315474  1
  O  O294  1  0.62129788  0.37181833  0.54233429  1
  O  O295  1  0.62519849  0.37497955  0.79573314  1
  O  O296  1  0.62409603  0.61799690  0.03446294  1
  O  O297  1  0.63010152  0.63547997  0.29859748  1
  O  O298  1  0.61441396  0.62675461  0.52677101  1
  O  O299  1  0.62732098  0.62035108  0.79456318  1
  O  O300  1  0.62643345  0.87764715  0.04709961  1
  O  O301  1  0.62450446  0.87906410  0.30410172  1
  O  O302  1  0.62247419  0.87976283  0.54591413  1
  O  O303  1  0.61851630  0.88051256  0.78060202  1
  O  O304  1  0.87635780  0.12942099  0.04944083  1
  O  O305  1  0.87684482  0.12478973  0.31375634  1
  O  O306  1  0.87352872  0.11521289  0.52752942  1
  O  O307  1  0.86829412  0.12938793  0.78842102  1
  O  O308  1  0.87724468  0.37519591  0.05150876  1
  O  O309  1  0.87487428  0.37519010  0.30962414  1
  O  O310  1  0.86423533  0.37774388  0.53708915  1
  O  O311  1  0.86875744  0.37731761  0.77095347  1
  O  O312  1  0.87658044  0.62117188  0.04864992  1
  O  O313  1  0.87575719  0.62524570  0.30428125  1
  O  O314  1  0.87319994  0.62871030  0.54719505  1
  O  O315  1  0.86433508  0.62814325  0.77688607  1
  O  O316  1  0.87031325  0.87499096  0.03501064  1
  O  O317  1  0.87370787  0.87329841  0.30404356  1
  O  O318  1  0.86986703  0.87803418  0.54328558  1
  O  O319  1  0.86944811  0.86740915  0.77295137  1
