# generated using pymatgen
data_VFe(PbO3)2
_symmetry_space_group_name_H-M   'P 1'
_cell_length_a   15.38519165
_cell_length_b   15.37559501
_cell_length_c   18.51593090
_cell_angle_alpha   90.01008310
_cell_angle_beta   90.00524867
_cell_angle_gamma   89.99120841
_symmetry_Int_Tables_number   1
_chemical_formula_structural   VFe(PbO3)2
_chemical_formula_sum   'V32 Fe32 Pb64 O192'
_cell_volume   4380.06322416
_cell_formula_units_Z   32
loop_
 _symmetry_equiv_pos_site_id
 _symmetry_equiv_pos_as_xyz
  1  'x, y, z'
loop_
 _atom_site_type_symbol
 _atom_site_label
 _atom_site_symmetry_multiplicity
 _atom_site_fract_x
 _atom_site_fract_y
 _atom_site_fract_z
 _atom_site_occupancy
  V  V0  1  0.37299972  0.37658126  0.64105153  1
  V  V1  1  0.86998280  0.37287121  0.38622848  1
  V  V2  1  0.12203803  0.62787663  0.89105616  1
  V  V3  1  0.37447113  0.87498616  0.13792674  1
  V  V4  1  0.87548790  0.62137910  0.38668977  1
  V  V5  1  0.37595530  0.12500395  0.39031028  1
  V  V6  1  0.37834637  0.37319639  0.38974622  1
  V  V7  1  0.62646132  0.37118242  0.13798311  1
  V  V8  1  0.12540132  0.12912373  0.63372483  1
  V  V9  1  0.62406399  0.12539653  0.39307970  1
  V  V10  1  0.62405780  0.12199158  0.13748905  1
  V  V11  1  0.12281268  0.37875831  0.89305943  1
  V  V12  1  0.12600909  0.62407755  0.63599367  1
  V  V13  1  0.87354113  0.87434397  0.14668641  1
  V  V14  1  0.12163030  0.12613719  0.88805936  1
  V  V15  1  0.88054975  0.87640279  0.88906910  1
  V  V16  1  0.87424672  0.37768115  0.63591766  1
  V  V17  1  0.12159668  0.87557152  0.89120444  1
  V  V18  1  0.12697369  0.62583948  0.14333779  1
  V  V19  1  0.62396471  0.62326780  0.64497582  1
  V  V20  1  0.62585956  0.62328562  0.38839477  1
  V  V21  1  0.37820014  0.12557165  0.13854744  1
  V  V22  1  0.87678327  0.12478189  0.88831781  1
  V  V23  1  0.87663888  0.62603141  0.89338417  1
  V  V24  1  0.37717475  0.87311303  0.64621093  1
  V  V25  1  0.12805540  0.87490985  0.63261755  1
  V  V26  1  0.12363155  0.87855369  0.14845672  1
  V  V27  1  0.87458848  0.12593562  0.14577805  1
  V  V28  1  0.37388681  0.37260962  0.13664111  1
  V  V29  1  0.62758660  0.37619228  0.88487798  1
  V  V30  1  0.37761467  0.62245812  0.38664580  1
  V  V31  1  0.62610815  0.87354246  0.64304751  1
  Fe  Fe32  1  0.12698911  0.12373720  0.15005996  1
  Fe  Fe33  1  0.62915235  0.12659373  0.87576192  1
  Fe  Fe34  1  0.12518916  0.37415235  0.13591541  1
  Fe  Fe35  1  0.12680469  0.62402216  0.38206993  1
  Fe  Fe36  1  0.37587021  0.62337448  0.13435920  1
  Fe  Fe37  1  0.62442185  0.62719457  0.12886519  1
  Fe  Fe38  1  0.86996219  0.87261303  0.38597653  1
  Fe  Fe39  1  0.12510274  0.37725300  0.39025219  1
  Fe  Fe40  1  0.87846690  0.37372084  0.89132107  1
  Fe  Fe41  1  0.12606598  0.12577492  0.37764384  1
  Fe  Fe42  1  0.87465539  0.62494557  0.13661385  1
  Fe  Fe43  1  0.37971929  0.87418841  0.38382866  1
  Fe  Fe44  1  0.87463928  0.62735551  0.63274261  1
  Fe  Fe45  1  0.62152400  0.37583445  0.39566937  1
  Fe  Fe46  1  0.87719516  0.12341605  0.62523864  1
  Fe  Fe47  1  0.37187930  0.12623529  0.87860334  1
  Fe  Fe48  1  0.87386792  0.37386077  0.13347947  1
  Fe  Fe49  1  0.87568603  0.87172440  0.62932289  1
  Fe  Fe50  1  0.87146621  0.12570409  0.39184084  1
  Fe  Fe51  1  0.37271557  0.12450078  0.64220205  1
  Fe  Fe52  1  0.62290867  0.37837748  0.63281331  1
  Fe  Fe53  1  0.62487711  0.12690459  0.64463288  1
  Fe  Fe54  1  0.37278915  0.62388169  0.88384381  1
  Fe  Fe55  1  0.37330166  0.37420913  0.88422904  1
  Fe  Fe56  1  0.37472274  0.62682072  0.64418050  1
  Fe  Fe57  1  0.62831320  0.87549278  0.88426056  1
  Fe  Fe58  1  0.61922816  0.87354715  0.38673072  1
  Fe  Fe59  1  0.12569420  0.37718759  0.62969639  1
  Fe  Fe60  1  0.62820035  0.62342520  0.88941476  1
  Fe  Fe61  1  0.37061878  0.87649998  0.88222461  1
  Fe  Fe62  1  0.62497904  0.87825729  0.13221524  1
  Fe  Fe63  1  0.12830712  0.87286053  0.38210523  1
  Pb  Pb64  1  0.00639893  0.00936089  0.00745748  1
  Pb  Pb65  1  -0.01306254  0.00111332  0.26451238  1
  Pb  Pb66  1  -0.00370887  -0.00213092  0.48831042  1
  Pb  Pb67  1  -0.00089515  -0.00010592  0.73736918  1
  Pb  Pb68  1  0.01072643  0.25023314  0.01016683  1
  Pb  Pb69  1  0.00855160  0.25303334  0.25181310  1
  Pb  Pb70  1  -0.00142824  0.24420561  0.49198857  1
  Pb  Pb71  1  -0.00674401  0.25791164  0.74641587  1
  Pb  Pb72  1  -0.00405013  0.49606452  0.00796165  1
  Pb  Pb73  1  0.00453711  0.49483948  0.24688703  1
  Pb  Pb74  1  0.00330586  0.49822349  0.49713142  1
  Pb  Pb75  1  -0.00676464  0.49502943  0.74941130  1
  Pb  Pb76  1  -0.00595566  0.74493340  0.00704895  1
  Pb  Pb77  1  0.00763494  0.75123861  0.25590526  1
  Pb  Pb78  1  -0.00578002  0.75266668  0.49351510  1
  Pb  Pb79  1  -0.00077695  0.75065375  0.74187036  1
  Pb  Pb80  1  0.24867169  0.00571019  -0.00268388  1
  Pb  Pb81  1  0.25324218  -0.00734520  0.25454057  1
  Pb  Pb82  1  0.24864130  -0.00148104  0.49346119  1
  Pb  Pb83  1  0.25345753  -0.00055407  0.75122308  1
  Pb  Pb84  1  0.24160966  0.24950345  0.00130336  1
  Pb  Pb85  1  0.24389848  0.24973359  0.25163985  1
  Pb  Pb86  1  0.24522774  0.25243010  0.49792689  1
  Pb  Pb87  1  0.25501392  0.25330866  0.75147177  1
  Pb  Pb88  1  0.25549872  0.50223688  0.00145000  1
  Pb  Pb89  1  0.24034210  0.49862882  0.25414365  1
  Pb  Pb90  1  0.24886788  0.50026338  0.50077370  1
  Pb  Pb91  1  0.25448900  0.50044488  0.75316170  1
  Pb  Pb92  1  0.25964039  0.74734921  0.00033382  1
  Pb  Pb93  1  0.24915421  0.75120785  0.25358624  1
  Pb  Pb94  1  0.25019729  0.74824345  0.49412919  1
  Pb  Pb95  1  0.25481629  0.75206760  0.75285728  1
  Pb  Pb96  1  0.50252657  -0.00134515  -0.01463768  1
  Pb  Pb97  1  0.50125491  -0.00944434  0.25102971  1
  Pb  Pb98  1  0.49848160  0.00830662  0.50709248  1
  Pb  Pb99  1  0.49830193  0.00342589  0.75340294  1
  Pb  Pb100  1  0.49709216  0.24545866  -0.01304596  1
  Pb  Pb101  1  0.50843480  0.25561186  0.25353883  1
  Pb  Pb102  1  0.49740095  0.24031540  0.51273725  1
  Pb  Pb103  1  0.50047002  0.24599624  0.74754474  1
  Pb  Pb104  1  0.49766359  0.51027222  -0.00488632  1
  Pb  Pb105  1  0.50571063  0.49840754  0.24531369  1
  Pb  Pb106  1  0.49210055  0.50539128  0.50661977  1
  Pb  Pb107  1  0.49083791  0.50236628  0.75538906  1
  Pb  Pb108  1  0.50360473  0.75013785  -0.00942781  1
  Pb  Pb109  1  0.50377197  0.75485557  0.24397422  1
  Pb  Pb110  1  0.49524957  0.74793441  0.50141634  1
  Pb  Pb111  1  0.50845922  0.75063265  0.76154679  1
  Pb  Pb112  1  0.74475729  -0.00399347  -0.00320368  1
  Pb  Pb113  1  0.75524555  -0.00172182  0.25896639  1
  Pb  Pb114  1  0.75540844  -0.00418885  0.49898221  1
  Pb  Pb115  1  0.74932794  0.00252996  0.74372480  1
  Pb  Pb116  1  0.75533412  0.25552444  -0.00275183  1
  Pb  Pb117  1  0.75123065  0.24426485  0.25455592  1
  Pb  Pb118  1  0.73213553  0.24579039  0.51017815  1
  Pb  Pb119  1  0.75006145  0.24825902  0.74361417  1
  Pb  Pb120  1  0.75734795  0.50174115  0.00311691  1
  Pb  Pb121  1  0.75044753  0.49912139  0.24397811  1
  Pb  Pb122  1  0.74791361  0.49951016  0.50206988  1
  Pb  Pb123  1  0.74738999  0.50322591  0.75200302  1
  Pb  Pb124  1  0.73801515  0.75096878  0.00423945  1
  Pb  Pb125  1  0.74373519  0.75304828  0.24611212  1
  Pb  Pb126  1  0.75614007  0.74987895  0.50062393  1
  Pb  Pb127  1  0.74440875  0.74988703  0.75488422  1
  O  O128  1  0.12817197  -0.00614622  0.16745681  1
  O  O129  1  0.13054144  0.00075250  0.40794509  1
  O  O130  1  0.12491415  0.00081669  0.65853904  1
  O  O131  1  0.12100499  0.00147708  0.91777248  1
  O  O132  1  0.12649237  0.25104402  0.16841609  1
  O  O133  1  0.12816629  0.25108135  0.41108069  1
  O  O134  1  0.12358199  0.24593255  0.65663407  1
  O  O135  1  0.12064799  0.25049584  0.91615355  1
  O  O136  1  0.12794174  0.50388412  0.16146595  1
  O  O137  1  0.12587526  0.50286229  0.41728333  1
  O  O138  1  0.12394635  0.50693311  0.65814926  1
  O  O139  1  0.12192832  0.49962677  0.91405453  1
  O  O140  1  0.12720574  0.74996021  0.16747309  1
  O  O141  1  0.12977051  0.74619957  0.41363575  1
  O  O142  1  0.12684698  0.74937690  0.66221892  1
  O  O143  1  0.12053827  0.74587193  0.91539281  1
  O  O144  1  0.37399195  -0.00278414  0.16250004  1
  O  O145  1  0.37926817  0.00839765  0.41183134  1
  O  O146  1  0.37252762  -0.00705290  0.66533089  1
  O  O147  1  0.36877783  0.00224967  0.91286913  1
  O  O148  1  0.38063392  0.25435687  0.16451430  1
  O  O149  1  0.37582500  0.25302496  0.41298649  1
  O  O150  1  0.37079804  0.25695672  0.66332183  1
  O  O151  1  0.37186323  0.25007881  0.91299182  1
  O  O152  1  0.38062519  0.48867508  0.16109991  1
  O  O153  1  0.37790570  0.50007878  0.41463600  1
  O  O154  1  0.37189432  0.49668099  0.66681032  1
  O  O155  1  0.37000589  0.49777927  0.91545272  1
  O  O156  1  0.37347238  0.75643098  0.15868946  1
  O  O157  1  0.37893232  0.74059587  0.40848535  1
  O  O158  1  0.37251125  0.75487264  0.66904318  1
  O  O159  1  0.36810618  0.74989238  0.91043483  1
  O  O160  1  0.62415920  0.00378974  0.16217451  1
  O  O161  1  0.61742795  0.00837783  0.41508984  1
  O  O162  1  0.62219963  -0.00904455  0.66231628  1
  O  O163  1  0.63218302  0.00257576  0.90875627  1
  O  O164  1  0.62483581  0.24760549  0.16788145  1
  O  O165  1  0.62084229  0.24549144  0.41911637  1
  O  O166  1  0.62613501  0.25703279  0.66562671  1
  O  O167  1  0.63011313  0.25552098  0.90748081  1
  O  O168  1  0.62519951  0.49005052  0.15602129  1
  O  O169  1  0.62160143  0.50787933  0.41837688  1
  O  O170  1  0.62558306  0.50411346  0.66565728  1
  O  O171  1  0.63056368  0.49221243  0.91331731  1
  O  O172  1  0.62401434  0.75388821  0.16032386  1
  O  O173  1  0.61932570  0.73821876  0.41411686  1
  O  O174  1  0.62268505  0.74957812  0.66920667  1
  O  O175  1  0.63067338  0.75061272  0.91305048  1
  O  O176  1  0.87505201  -0.00113076  0.17085284  1
  O  O177  1  0.87022684  -0.00136168  0.41362943  1
  O  O178  1  0.87702069  -0.00279098  0.65686546  1
  O  O179  1  0.88048697  0.00448911  0.91548614  1
  O  O180  1  0.87122110  0.24352632  0.16519104  1
  O  O181  1  0.87197359  0.25837894  0.40692345  1
  O  O182  1  0.87857312  0.25690328  0.65699944  1
  O  O183  1  0.87995672  0.24172033  0.91388722  1
  O  O184  1  0.87181051  0.49871225  0.16387496  1
  O  O185  1  0.87038366  0.50325343  0.41321242  1
  O  O186  1  0.87756267  0.49866714  0.66284466  1
  O  O187  1  0.88159230  0.50595921  0.91646079  1
  O  O188  1  0.87890601  0.75654564  0.16652696  1
  O  O189  1  0.86849090  0.74023283  0.40856217  1
  O  O190  1  0.87517768  0.75005090  0.66606190  1
  O  O191  1  0.88534419  0.74738404  0.91348574  1
  O  O192  1  -0.00928463  0.12238364  0.16910687  1
  O  O193  1  0.00050802  0.12633723  0.40669221  1
  O  O194  1  0.00607498  0.12439978  0.65802044  1
  O  O195  1  -0.00087549  0.12430331  0.92024791  1
  O  O196  1  -0.00131526  0.37383740  0.16180691  1
  O  O197  1  -0.01096907  0.38101222  0.41086788  1
  O  O198  1  -0.00246121  0.37764874  0.66182143  1
  O  O199  1  0.00598823  0.37486795  0.91960605  1
  O  O200  1  0.00723477  0.62707828  0.16515928  1
  O  O201  1  -0.00758050  0.62404364  0.40508894  1
  O  O202  1  0.00709452  0.62828549  0.66095120  1
  O  O203  1  0.00453738  0.62304828  0.92185360  1
  O  O204  1  0.00325916  0.87610500  0.16986000  1
  O  O205  1  -0.00053003  0.87055468  0.40671022  1
  O  O206  1  0.00666290  0.87294237  0.65799691  1
  O  O207  1  0.00082057  0.87607329  0.92452075  1
  O  O208  1  0.26082735  0.12662902  0.16598779  1
  O  O209  1  0.25862671  0.12828045  0.40976734  1
  O  O210  1  0.24052148  0.12423053  0.66188172  1
  O  O211  1  0.24150008  0.12645049  0.91218739  1
  O  O212  1  0.25861222  0.37279349  0.15862557  1
  O  O213  1  0.26086025  0.37846407  0.41470949  1
  O  O214  1  0.25084603  0.37677638  0.66348176  1
  O  O215  1  0.23984301  0.37290515  0.91384941  1
  O  O216  1  0.24764790  0.62509290  0.16464396  1
  O  O217  1  0.26013449  0.62077037  0.40847967  1
  O  O218  1  0.24218899  0.62691986  0.66431845  1
  O  O219  1  0.23818657  0.62313551  0.91387082  1
  O  O220  1  0.25088382  0.87483333  0.16554203  1
  O  O221  1  0.25687587  0.87402798  0.41598806  1
  O  O222  1  0.24934160  0.87425798  0.66513217  1
  O  O223  1  0.23967793  0.87563706  0.91856534  1
  O  O224  1  0.49995346  0.12512899  0.16592673  1
  O  O225  1  0.49697374  0.13037025  0.41929594  1
  O  O226  1  0.49796756  0.12431017  0.66836674  1
  O  O227  1  0.50195680  0.12603412  0.90215483  1
  O  O228  1  0.50479143  0.37010718  0.16290083  1
  O  O229  1  0.49108332  0.37694262  0.41953092  1
  O  O230  1  0.49260152  0.37803541  0.66080101  1
  O  O231  1  0.50828899  0.37510669  0.90742741  1
  O  O232  1  0.50058728  0.62193161  0.16108033  1
  O  O233  1  0.49816082  0.62066582  0.41521896  1
  O  O234  1  0.50578710  0.62593679  0.66984560  1
  O  O235  1  0.49981299  0.62301724  0.90746464  1
  O  O236  1  0.49339702  0.87769267  0.15658952  1
  O  O237  1  0.49833051  0.87356952  0.42342974  1
  O  O238  1  0.49744783  0.87202106  0.66806173  1
  O  O239  1  0.49892055  0.87625076  0.90648647  1
  O  O240  1  0.75035545  0.12273110  0.16794591  1
  O  O241  1  0.73963769  0.12634325  0.41411861  1
  O  O242  1  0.75458402  0.12527056  0.66005132  1
  O  O243  1  0.75999166  0.12537554  0.90830850  1
  O  O244  1  0.74313678  0.36843561  0.16296085  1
  O  O245  1  0.75490655  0.38057619  0.41472323  1
  O  O246  1  0.75790864  0.37924409  0.65971584  1
  O  O247  1  0.74875461  0.37445424  0.91361453  1
  O  O248  1  0.74800056  0.62681750  0.16412479  1
  O  O249  1  0.74478358  0.62233021  0.40980391  1
  O  O250  1  0.74437246  0.62614445  0.66533705  1
  O  O251  1  0.76156716  0.62471352  0.91128289  1
  O  O252  1  0.75583053  0.87694904  0.16160536  1
  O  O253  1  0.74265764  0.87301217  0.41447182  1
  O  O254  1  0.74347472  0.87141818  0.65863603  1
  O  O255  1  0.76294773  0.87495602  0.91442581  1
  O  O256  1  0.11909823  0.12590020  0.04813624  1
  O  O257  1  0.12925613  0.13067779  0.27632726  1
  O  O258  1  0.12707208  0.12770638  0.54243177  1
  O  O259  1  0.11869832  0.12650561  0.79729349  1
  O  O260  1  0.12590764  0.36587790  0.03595252  1
  O  O261  1  0.12848213  0.38229248  0.28828606  1
  O  O262  1  0.12778801  0.37922685  0.52997105  1
  O  O263  1  0.11950466  0.37624756  0.80167747  1
  O  O264  1  0.12607003  0.62867492  0.05213362  1
  O  O265  1  0.13041264  0.62138628  0.28203385  1
  O  O266  1  0.12730482  0.62694747  0.54461450  1
  O  O267  1  0.11874033  0.62685423  0.80057413  1
  O  O268  1  0.12352483  0.87396612  0.05779775  1
  O  O269  1  0.13408408  0.86670819  0.28112205  1
  O  O270  1  0.13179023  0.87389782  0.54166800  1
  O  O271  1  0.11983916  0.87616156  0.80035942  1
  O  O272  1  0.37870178  0.12654886  0.04748245  1
  O  O273  1  0.38083269  0.12701331  0.29973327  1
  O  O274  1  0.38073064  0.12596009  0.54145951  1
  O  O275  1  0.36541893  0.12584088  0.77746418  1
  O  O276  1  0.37742869  0.37175443  0.04539957  1
  O  O277  1  0.37994005  0.37503816  0.29864530  1
  O  O278  1  0.37052805  0.37900927  0.54958415  1
  O  O279  1  0.36658345  0.37810262  0.78451673  1
  O  O280  1  0.36829163  0.62056661  0.03423865  1
  O  O281  1  0.38131163  0.61896058  0.29573114  1
  O  O282  1  0.38096069  0.62235321  0.54434903  1
  O  O283  1  0.36834185  0.61777653  0.78204421  1
  O  O284  1  0.36819506  0.87661808  0.04709643  1
  O  O285  1  0.38020530  0.87971887  0.28372855  1
  O  O286  1  0.37701702  0.87201150  0.55522807  1
  O  O287  1  0.36347840  0.87818038  0.78231903  1
  O  O288  1  0.62680630  0.12637574  0.04662374  1
  O  O289  1  0.62084782  0.12823692  0.30168828  1
  O  O290  1  0.61797698  0.13240663  0.54238826  1
  O  O291  1  0.63301911  0.12409154  0.77515911  1
  O  O292  1  0.62730734  0.36454556  0.04754586  1
  O  O293  1  0.61762839  0.37314973  0.29557146  1
  O  O294  1  0.63172558  0.37608385  0.53240768  1
  O  O295  1  0.63149633  0.37983666  0.79373927  1
  O  O296  1  0.62814158  0.62743448  0.02776523  1
  O  O297  1  0.62216079  0.62159375  0.29721175  1
  O  O298  1  0.62255637  0.62638721  0.55388003  1
  O  O299  1  0.63473707  0.62706937  0.78846959  1
  O  O300  1  0.63289011  0.87687885  0.03183152  1
  O  O301  1  0.61276787  0.87326512  0.28601583  1
  O  O302  1  0.61839019  0.86806300  0.55258371  1
  O  O303  1  0.63011254  0.86724342  0.78352386  1
  O  O304  1  0.87403197  0.12126116  0.05482262  1
  O  O305  1  0.86340897  0.11764957  0.29012117  1
  O  O306  1  0.87774994  0.12533437  0.52499273  1
  O  O307  1  0.88298842  0.12393709  0.79733488  1
  O  O308  1  0.86884960  0.37600588  0.03241336  1
  O  O309  1  0.86836179  0.37666936  0.29476411  1
  O  O310  1  0.87583146  0.38021871  0.54509882  1
  O  O311  1  0.88571306  0.37543044  0.79120675  1
  O  O312  1  0.88052769  0.62585065  0.03669372  1
  O  O313  1  0.87040211  0.61942030  0.29587180  1
  O  O314  1  0.87085760  0.63016353  0.53352864  1
  O  O315  1  0.88305699  0.62418618  0.80220388  1
  O  O316  1  0.88015994  0.87851458  0.05617126  1
  O  O317  1  0.87067508  0.88285530  0.28456204  1
  O  O318  1  0.87257990  0.86547115  0.52878973  1
  O  O319  1  0.88290846  0.87751460  0.79811519  1
