# generated using pymatgen
data_VFe(PbO3)2
_symmetry_space_group_name_H-M   'P 1'
_cell_length_a   15.38259795
_cell_length_b   15.37605487
_cell_length_c   18.53830147
_cell_angle_alpha   90.00791789
_cell_angle_beta   89.95142415
_cell_angle_gamma   89.99805924
_symmetry_Int_Tables_number   1
_chemical_formula_structural   VFe(PbO3)2
_chemical_formula_sum   'V32 Fe32 Pb64 O192'
_cell_volume   4384.74548195
_cell_formula_units_Z   32
loop_
 _symmetry_equiv_pos_site_id
 _symmetry_equiv_pos_as_xyz
  1  'x, y, z'
loop_
 _atom_site_type_symbol
 _atom_site_label
 _atom_site_symmetry_multiplicity
 _atom_site_fract_x
 _atom_site_fract_y
 _atom_site_fract_z
 _atom_site_occupancy
  V  V0  1  0.12511921  0.37485103  0.14397726  1
  V  V1  1  0.37745069  0.62548592  0.89028704  1
  V  V2  1  0.62740988  0.62239264  0.13786826  1
  V  V3  1  0.87299256  0.88024801  0.89009443  1
  V  V4  1  0.87450408  0.37642673  0.63636337  1
  V  V5  1  0.37355008  0.62563361  0.63668635  1
  V  V6  1  0.62574734  0.37245226  0.63733753  1
  V  V7  1  0.87440605  0.87401601  0.13991219  1
  V  V8  1  0.12200931  0.62435107  0.13864376  1
  V  V9  1  0.62287112  0.37556137  0.14132687  1
  V  V10  1  0.12491991  0.87699417  0.63857520  1
  V  V11  1  0.12672034  0.12553391  0.88868278  1
  V  V12  1  0.62774130  0.12533370  0.63457322  1
  V  V13  1  0.87360960  0.37537389  0.14742695  1
  V  V14  1  0.37434176  0.12714945  0.13841462  1
  V  V15  1  0.37421210  0.37863157  0.39138363  1
  V  V16  1  0.62329398  0.12512826  0.89174210  1
  V  V17  1  0.62536698  0.37480322  0.89088465  1
  V  V18  1  0.62387919  0.87294581  0.14028204  1
  V  V19  1  0.61882416  0.87489561  0.38963124  1
  V  V20  1  0.62397872  0.37133383  0.38623207  1
  V  V21  1  0.37403797  0.37198873  0.89136658  1
  V  V22  1  0.87633545  0.62908388  0.63600922  1
  V  V23  1  0.62300158  0.62511588  0.39149279  1
  V  V24  1  0.37647393  0.88144509  0.89527485  1
  V  V25  1  0.86914380  0.87032461  0.39093645  1
  V  V26  1  0.11869121  0.87440909  0.38682068  1
  V  V27  1  0.87429803  0.62554108  0.88739080  1
  V  V28  1  0.87520631  0.62318064  0.14568142  1
  V  V29  1  0.36628629  0.87085171  0.39051372  1
  V  V30  1  0.12695836  0.62692031  0.39136676  1
  V  V31  1  0.62512921  0.87464898  0.88911110  1
  Fe  Fe32  1  0.12349019  0.87389139  0.13001683  1
  Fe  Fe33  1  0.37514698  0.87499347  0.12989387  1
  Fe  Fe34  1  0.12450061  0.12624382  0.62761625  1
  Fe  Fe35  1  0.37366294  0.37390129  0.13589786  1
  Fe  Fe36  1  0.62451524  0.12537419  0.14495250  1
  Fe  Fe37  1  0.37783437  0.12337536  0.39188393  1
  Fe  Fe38  1  0.87526323  0.87634310  0.63197056  1
  Fe  Fe39  1  0.37539200  0.12567362  0.63139827  1
  Fe  Fe40  1  0.62764047  0.62214811  0.63789446  1
  Fe  Fe41  1  0.37811258  0.37892910  0.62943472  1
  Fe  Fe42  1  0.37631309  0.87308899  0.63324515  1
  Fe  Fe43  1  0.12435539  0.12503813  0.14167100  1
  Fe  Fe44  1  0.87492645  0.62831167  0.38488231  1
  Fe  Fe45  1  0.87439606  0.37331690  0.88409950  1
  Fe  Fe46  1  0.12650498  0.12140014  0.38482365  1
  Fe  Fe47  1  0.37593840  0.12557205  0.88526163  1
  Fe  Fe48  1  0.12757901  0.62445864  0.88413107  1
  Fe  Fe49  1  0.37409031  0.62085180  0.13902441  1
  Fe  Fe50  1  0.12403270  0.62744612  0.63837175  1
  Fe  Fe51  1  0.12447966  0.37597437  0.39120074  1
  Fe  Fe52  1  0.87403371  0.12514430  0.14535341  1
  Fe  Fe53  1  0.87271187  0.37923193  0.38398068  1
  Fe  Fe54  1  0.62366689  0.62472959  0.88504199  1
  Fe  Fe55  1  0.62224881  0.12066109  0.38039695  1
  Fe  Fe56  1  0.12576679  0.87243901  0.89687646  1
  Fe  Fe57  1  0.87562822  0.12647010  0.63426232  1
  Fe  Fe58  1  0.87439391  0.12506539  0.88549962  1
  Fe  Fe59  1  0.12384575  0.37566727  0.88322987  1
  Fe  Fe60  1  0.87330911  0.12381271  0.37926227  1
  Fe  Fe61  1  0.12619414  0.37702028  0.62496634  1
  Fe  Fe62  1  0.62617405  0.87513128  0.63323870  1
  Fe  Fe63  1  0.37595526  0.62800501  0.38497558  1
  Pb  Pb64  1  0.00915433  0.00692782  0.00563494  1
  Pb  Pb65  1  0.00372685  0.01014048  0.24945210  1
  Pb  Pb66  1  -0.01074189  0.00601177  0.49982404  1
  Pb  Pb67  1  -0.00296515  0.00724512  0.74488664  1
  Pb  Pb68  1  -0.00514385  0.24608469  -0.00209010  1
  Pb  Pb69  1  0.00265070  0.24967593  0.25662375  1
  Pb  Pb70  1  -0.00004514  0.24423638  0.48785414  1
  Pb  Pb71  1  0.00448784  0.25542815  0.74271413  1
  Pb  Pb72  1  0.00326165  0.49600546  -0.00537578  1
  Pb  Pb73  1  0.00093932  0.48990852  0.26082640  1
  Pb  Pb74  1  0.00163943  0.49737603  0.49650521  1
  Pb  Pb75  1  0.00671046  0.49508531  0.74766338  1
  Pb  Pb76  1  0.00390587  0.75113340  -0.00086389  1
  Pb  Pb77  1  -0.00368465  0.74588432  0.25123445  1
  Pb  Pb78  1  0.00375629  0.74744901  0.50449411  1
  Pb  Pb79  1  0.01408054  0.75635473  0.75866607  1
  Pb  Pb80  1  0.24150197  0.00095121  0.00591267  1
  Pb  Pb81  1  0.24579863  0.00084895  0.24575159  1
  Pb  Pb82  1  0.25013852  0.00937481  0.50115259  1
  Pb  Pb83  1  0.25505845  0.00727142  0.74433808  1
  Pb  Pb84  1  0.24390518  0.24438588  0.00115081  1
  Pb  Pb85  1  0.24683111  0.24027595  0.25790268  1
  Pb  Pb86  1  0.23900159  0.24420394  0.49861958  1
  Pb  Pb87  1  0.24833886  0.25416093  0.73559872  1
  Pb  Pb88  1  0.25672372  0.49870468  0.00089342  1
  Pb  Pb89  1  0.24491571  0.49580169  0.25297429  1
  Pb  Pb90  1  0.24970094  0.49457173  0.50302140  1
  Pb  Pb91  1  0.24204289  0.49566006  0.74376643  1
  Pb  Pb92  1  0.25766122  0.74851619  0.00300621  1
  Pb  Pb93  1  0.25535681  0.75130087  0.24246867  1
  Pb  Pb94  1  0.24527624  0.74600796  0.50518244  1
  Pb  Pb95  1  0.24178308  0.75403856  0.75498179  1
  Pb  Pb96  1  0.50742720  0.00523010  0.00421102  1
  Pb  Pb97  1  0.49326735  0.00756658  0.25387623  1
  Pb  Pb98  1  0.49282794  -0.00041258  0.50320073  1
  Pb  Pb99  1  0.49429656  0.00161306  0.74511599  1
  Pb  Pb100  1  0.50166474  0.25142901  0.00309048  1
  Pb  Pb101  1  0.49478160  0.23854321  0.25705201  1
  Pb  Pb102  1  0.49265281  0.24679238  0.49951912  1
  Pb  Pb103  1  0.49264973  0.24668664  0.74594952  1
  Pb  Pb104  1  0.49027733  0.49915114  0.00542142  1
  Pb  Pb105  1  0.49173897  0.50271218  0.25040598  1
  Pb  Pb106  1  0.49724046  0.50042344  0.50175317  1
  Pb  Pb107  1  0.50475992  0.50653606  0.74863621  1
  Pb  Pb108  1  0.49346205  0.74993824  0.00301151  1
  Pb  Pb109  1  0.49253002  0.74486629  0.24764474  1
  Pb  Pb110  1  0.50198752  0.75832877  0.50591248  1
  Pb  Pb111  1  0.50528779  0.74916497  0.74494546  1
  Pb  Pb112  1  0.75047814  0.01481602  0.00942087  1
  Pb  Pb113  1  0.74911151  0.00507722  0.25236367  1
  Pb  Pb114  1  0.75672822  -0.00127462  0.49938523  1
  Pb  Pb115  1  0.75588896  0.00258023  0.74560219  1
  Pb  Pb116  1  0.75523234  0.24092982  0.00591141  1
  Pb  Pb117  1  0.75488620  0.24602046  0.25399112  1
  Pb  Pb118  1  0.75700458  0.23942297  0.49244336  1
  Pb  Pb119  1  0.76088462  0.25008111  0.75299452  1
  Pb  Pb120  1  0.74828252  0.49943813  -0.00280622  1
  Pb  Pb121  1  0.75611782  0.49787537  0.25641160  1
  Pb  Pb122  1  0.74645520  0.50846365  0.49858323  1
  Pb  Pb123  1  0.75492124  0.49685956  0.75032989  1
  Pb  Pb124  1  0.74948648  0.75207250  -0.00227204  1
  Pb  Pb125  1  0.75071806  0.74559129  0.25331903  1
  Pb  Pb126  1  0.73942698  0.75188289  0.50620667  1
  Pb  Pb127  1  0.74672843  0.74986041  0.74473083  1
  O  O128  1  0.12386898  -0.00355064  0.16413646  1
  O  O129  1  0.12859702  -0.01203132  0.40879103  1
  O  O130  1  0.12556775  -0.00620582  0.66104209  1
  O  O131  1  0.12633306  0.00488450  0.91519575  1
  O  O132  1  0.12350843  0.25776015  0.16611954  1
  O  O133  1  0.12855746  0.24909398  0.40824040  1
  O  O134  1  0.12435729  0.25311160  0.65484608  1
  O  O135  1  0.12714424  0.24473451  0.91372533  1
  O  O136  1  0.12036088  0.49967588  0.16766758  1
  O  O137  1  0.12703506  0.51097333  0.41065246  1
  O  O138  1  0.12234147  0.50125249  0.66007044  1
  O  O139  1  0.12513177  0.50109168  0.91494520  1
  O  O140  1  0.12088216  0.74263483  0.15795706  1
  O  O141  1  0.12684450  0.75496163  0.41853964  1
  O  O142  1  0.12457823  0.75562277  0.66686761  1
  O  O143  1  0.12493101  0.74542284  0.92188243  1
  O  O144  1  0.37557207  0.00551261  0.15774071  1
  O  O145  1  0.38046775  -0.01237643  0.41175903  1
  O  O146  1  0.37801432  0.00005393  0.66323459  1
  O  O147  1  0.37833522  -0.00312368  0.91412201  1
  O  O148  1  0.37429486  0.24674650  0.16565812  1
  O  O149  1  0.38082444  0.26043786  0.41069137  1
  O  O150  1  0.37984214  0.25231436  0.65792268  1
  O  O151  1  0.37781412  0.25509316  0.91362320  1
  O  O152  1  0.37388475  0.49665744  0.16929227  1
  O  O153  1  0.38073715  0.50042008  0.41370744  1
  O  O154  1  0.37730029  0.50711762  0.66396500  1
  O  O155  1  0.37801571  0.49807133  0.91472641  1
  O  O156  1  0.37558590  0.74787741  0.16244748  1
  O  O157  1  0.37786224  0.75506701  0.41598307  1
  O  O158  1  0.37767623  0.74305185  0.66230777  1
  O  O159  1  0.37874744  0.74558518  0.91339738  1
  O  O160  1  0.62562772  -0.01115849  0.16445237  1
  O  O161  1  0.62453722  -0.00962229  0.40896877  1
  O  O162  1  0.62718794  0.00934083  0.65556178  1
  O  O163  1  0.62313905  -0.00162219  0.91854527  1
  O  O164  1  0.62867720  0.25971873  0.16384829  1
  O  O165  1  0.62242835  0.25608739  0.40473167  1
  O  O166  1  0.62688196  0.25366167  0.66391335  1
  O  O167  1  0.62194668  0.25390379  0.91691779  1
  O  O168  1  0.62966860  0.49746431  0.16730854  1
  O  O169  1  0.62345733  0.50536554  0.41141960  1
  O  O170  1  0.62931972  0.49173113  0.66292623  1
  O  O171  1  0.62383877  0.49394514  0.91512022  1
  O  O172  1  0.62797179  0.74919799  0.16421434  1
  O  O173  1  0.62676691  0.75099949  0.41541008  1
  O  O174  1  0.62784929  0.74757946  0.66478380  1
  O  O175  1  0.62528569  0.75288519  0.91577647  1
  O  O176  1  0.87184668  -0.01079663  0.16370331  1
  O  O177  1  0.87458419  -0.00951456  0.41017202  1
  O  O178  1  0.87366453  0.00103179  0.66562766  1
  O  O179  1  0.87151332  -0.00457535  0.91237337  1
  O  O180  1  0.87434428  0.25823403  0.16666219  1
  O  O181  1  0.87153642  0.25153519  0.40706110  1
  O  O182  1  0.87220623  0.25727923  0.65923871  1
  O  O183  1  0.87235056  0.24868678  0.91790061  1
  O  O184  1  0.87518792  0.49868727  0.17000348  1
  O  O185  1  0.87342860  0.50519258  0.41349603  1
  O  O186  1  0.87269890  0.49624166  0.66216627  1
  O  O187  1  0.87207005  0.50541556  0.91179436  1
  O  O188  1  0.87222764  0.75103656  0.16799992  1
  O  O189  1  0.87621043  0.75490816  0.41699834  1
  O  O190  1  0.87166935  0.74477900  0.65407203  1
  O  O191  1  0.87138318  0.74815176  0.91419614  1
  O  O192  1  -0.00070656  0.12632599  0.16592791  1
  O  O193  1  -0.00116337  0.12018111  0.40497851  1
  O  O194  1  0.00114154  0.12445662  0.65956829  1
  O  O195  1  0.00613939  0.12420626  0.91149639  1
  O  O196  1  -0.00116380  0.37746762  0.16873102  1
  O  O197  1  -0.00204044  0.37900585  0.41336362  1
  O  O198  1  -0.00712834  0.37677381  0.65468514  1
  O  O199  1  -0.00083932  0.37328616  0.91657347  1
  O  O200  1  0.00240239  0.62336214  0.16859671  1
  O  O201  1  0.00715555  0.63250432  0.41410157  1
  O  O202  1  -0.00959080  0.62283914  0.66106356  1
  O  O203  1  -0.00944529  0.62630899  0.91253388  1
  O  O204  1  -0.00865904  0.86955012  0.15978637  1
  O  O205  1  0.00262742  0.87170168  0.41020904  1
  O  O206  1  0.00519751  0.87478947  0.66298572  1
  O  O207  1  -0.01125235  0.87347766  0.91622647  1
  O  O208  1  0.25600340  0.12718813  0.16558678  1
  O  O209  1  0.25314037  0.12035567  0.41185821  1
  O  O210  1  0.24921170  0.12367589  0.65922113  1
  O  O211  1  0.24760933  0.12500666  0.91494713  1
  O  O212  1  0.24238724  0.37768546  0.16424709  1
  O  O213  1  0.25823901  0.38240408  0.40822163  1
  O  O214  1  0.25237426  0.37940833  0.65654225  1
  O  O215  1  0.25686278  0.37551344  0.91084581  1
  O  O216  1  0.23877600  0.62082232  0.16169155  1
  O  O217  1  0.24649596  0.63166987  0.41395203  1
  O  O218  1  0.25660149  0.62599790  0.66093533  1
  O  O219  1  0.25932308  0.62325848  0.91278875  1
  O  O220  1  0.24943602  0.87194043  0.15779626  1
  O  O221  1  0.25051297  0.87070491  0.40940187  1
  O  O222  1  0.24549471  0.87366380  0.66294100  1
  O  O223  1  0.25905451  0.87130355  0.91470645  1
  O  O224  1  0.49393203  0.12604460  0.16349581  1
  O  O225  1  0.50314331  0.12373369  0.41773550  1
  O  O226  1  0.51000026  0.12937099  0.66032931  1
  O  O227  1  0.50193407  0.12580167  0.92072907  1
  O  O228  1  0.50704631  0.37846032  0.16002119  1
  O  O229  1  0.50607241  0.38114120  0.41464602  1
  O  O230  1  0.50861921  0.37652524  0.66030631  1
  O  O231  1  0.50084036  0.37508875  0.91711360  1
  O  O232  1  0.50705665  0.62244849  0.16291813  1
  O  O233  1  0.50593614  0.62987571  0.41487050  1
  O  O234  1  0.49669550  0.62265436  0.66182649  1
  O  O235  1  0.49585752  0.62227371  0.91588729  1
  O  O236  1  0.50643903  0.87020836  0.15904423  1
  O  O237  1  0.50309966  0.86896010  0.41012114  1
  O  O238  1  0.50198157  0.87448276  0.66564470  1
  O  O239  1  0.49955108  0.87300247  0.91736836  1
  O  O240  1  0.74813094  0.12393896  0.16981981  1
  O  O241  1  0.74663973  0.12165762  0.40751761  1
  O  O242  1  0.74358146  0.13077471  0.66207320  1
  O  O243  1  0.74457587  0.12489501  0.91866173  1
  O  O244  1  0.75198095  0.37862902  0.16805104  1
  O  O245  1  0.73913709  0.38079482  0.41076829  1
  O  O246  1  0.74957036  0.37458110  0.66405726  1
  O  O247  1  0.74273977  0.37488380  0.91394244  1
  O  O248  1  0.74982968  0.62393384  0.16940967  1
  O  O249  1  0.74332105  0.62868233  0.41306818  1
  O  O250  1  0.75944353  0.62004275  0.66589222  1
  O  O251  1  0.75350517  0.62468809  0.91465013  1
  O  O252  1  0.74977360  0.87019354  0.16800696  1
  O  O253  1  0.74958320  0.87144489  0.40891676  1
  O  O254  1  0.75046873  0.87566883  0.66547422  1
  O  O255  1  0.75238657  0.87261034  0.91605072  1
  O  O256  1  0.13112682  0.12133472  0.04055970  1
  O  O257  1  0.13173043  0.12212430  0.28180967  1
  O  O258  1  0.13166253  0.12224063  0.52674766  1
  O  O259  1  0.12848968  0.12481374  0.79801594  1
  O  O260  1  0.12132814  0.37671933  0.05304293  1
  O  O261  1  0.12265776  0.38270969  0.28943532  1
  O  O262  1  0.13114589  0.38177453  0.52317548  1
  O  O263  1  0.11998731  0.37723490  0.78357514  1
  O  O264  1  0.11874939  0.61895096  0.04805089  1
  O  O265  1  0.12552063  0.63149871  0.30035100  1
  O  O266  1  0.12498666  0.63748216  0.53817391  1
  O  O267  1  0.12468744  0.63370665  0.78365363  1
  O  O268  1  0.11962347  0.88225540  0.02844085  1
  O  O269  1  0.12043005  0.86869527  0.29590646  1
  O  O270  1  0.12493370  0.87299292  0.54743027  1
  O  O271  1  0.12269008  0.86125396  0.79629422  1
  O  O272  1  0.37309224  0.13142447  0.04724376  1
  O  O273  1  0.38416818  0.12603749  0.29004926  1
  O  O274  1  0.38048829  0.11949685  0.52991088  1
  O  O275  1  0.38165844  0.12377821  0.78636719  1
  O  O276  1  0.37550299  0.37945435  0.03634806  1
  O  O277  1  0.37989342  0.38007594  0.29988288  1
  O  O278  1  0.38070594  0.38578619  0.52980788  1
  O  O279  1  0.37923846  0.37499065  0.80079859  1
  O  O280  1  0.37397722  0.61849008  0.03831455  1
  O  O281  1  0.37928225  0.62879865  0.28509812  1
  O  O282  1  0.37480287  0.62452195  0.54521860  1
  O  O283  1  0.37913339  0.62346660  0.79992677  1
  O  O284  1  0.37783608  0.86597713  0.03027669  1
  O  O285  1  0.37108329  0.86879732  0.29879473  1
  O  O286  1  0.38255753  0.87445515  0.53375166  1
  O  O287  1  0.37911561  0.87689274  0.80433243  1
  O  O288  1  0.62600270  0.11996473  0.04397819  1
  O  O289  1  0.61175365  0.12006340  0.27883847  1
  O  O290  1  0.62823007  0.13043798  0.54358698  1
  O  O291  1  0.62387741  0.12581796  0.80108528  1
  O  O292  1  0.62890406  0.37765255  0.05026341  1
  O  O293  1  0.62213658  0.37655155  0.29543753  1
  O  O294  1  0.62845246  0.37091241  0.54671037  1
  O  O295  1  0.62327397  0.37280755  0.80042696  1
  O  O296  1  0.63009589  0.62102495  0.04690455  1
  O  O297  1  0.62331373  0.62733715  0.30037891  1
  O  O298  1  0.63576470  0.62610331  0.53792765  1
  O  O299  1  0.62228449  0.62120880  0.78590580  1
  O  O300  1  0.62966242  0.87253905  0.04933724  1
  O  O301  1  0.62075853  0.87141453  0.29878899  1
  O  O302  1  0.62478304  0.86613854  0.53292577  1
  O  O303  1  0.62568734  0.87684796  0.79852311  1
  O  O304  1  0.86606698  0.12612128  0.04335431  1
  O  O305  1  0.87171273  0.12245662  0.27782700  1
  O  O306  1  0.86945075  0.11890369  0.53331495  1
  O  O307  1  0.86976088  0.12730240  0.78591240  1
  O  O308  1  0.87390452  0.37844871  0.05649463  1
  O  O309  1  0.87336442  0.38133526  0.28333447  1
  O  O310  1  0.86921171  0.37847199  0.54574436  1
  O  O311  1  0.87230555  0.37186060  0.78456860  1
  O  O312  1  0.87539690  0.62347729  0.05498313  1
  O  O313  1  0.87457866  0.63291403  0.28478681  1
  O  O314  1  0.87393404  0.62299755  0.54461809  1
  O  O315  1  0.87397194  0.62705024  0.79689787  1
  O  O316  1  0.86909362  0.87145747  0.04921149  1
  O  O317  1  0.87330006  0.86821682  0.29990402  1
  O  O318  1  0.87461936  0.88628155  0.53232142  1
  O  O319  1  0.87288573  0.87756233  0.79919457  1
