# generated using pymatgen
data_VFe(PbO3)2
_symmetry_space_group_name_H-M   'P 1'
_cell_length_a   15.39003481
_cell_length_b   15.38290364
_cell_length_c   18.42565355
_cell_angle_alpha   90.01057546
_cell_angle_beta   90.01871763
_cell_angle_gamma   90.01644778
_symmetry_Int_Tables_number   1
_chemical_formula_structural   VFe(PbO3)2
_chemical_formula_sum   'V32 Fe32 Pb64 O192'
_cell_volume   4362.15179543
_cell_formula_units_Z   32
loop_
 _symmetry_equiv_pos_site_id
 _symmetry_equiv_pos_as_xyz
  1  'x, y, z'
loop_
 _atom_site_type_symbol
 _atom_site_label
 _atom_site_symmetry_multiplicity
 _atom_site_fract_x
 _atom_site_fract_y
 _atom_site_fract_z
 _atom_site_occupancy
  V  V0  1  0.62360639  0.12290460  0.88905923  1
  V  V1  1  0.36723024  0.62731587  0.64660601  1
  V  V2  1  0.87469094  0.62049147  0.88749112  1
  V  V3  1  0.87583194  0.87473235  0.38870557  1
  V  V4  1  0.87543225  0.12520295  0.64096790  1
  V  V5  1  0.87080686  0.37393070  0.88890101  1
  V  V6  1  0.37782432  0.12883740  0.13737150  1
  V  V7  1  0.87270446  0.62376969  0.63949256  1
  V  V8  1  0.62533963  0.12548482  0.39545283  1
  V  V9  1  0.12552973  0.62287638  0.13579298  1
  V  V10  1  0.62386329  0.87400107  0.39041107  1
  V  V11  1  0.37446464  0.62616440  0.39245717  1
  V  V12  1  0.37266285  0.12214612  0.39727126  1
  V  V13  1  0.37583375  0.12671034  0.88495861  1
  V  V14  1  0.12400248  0.12484324  0.64310106  1
  V  V15  1  0.62368094  0.62682841  0.39310428  1
  V  V16  1  0.62501895  0.37544698  0.14317336  1
  V  V17  1  0.12668204  0.12660347  0.38927470  1
  V  V18  1  0.87342021  0.62225981  0.14091547  1
  V  V19  1  0.62557255  0.62681462  0.63720067  1
  V  V20  1  0.38063201  0.87528737  0.88683969  1
  V  V21  1  0.12586227  0.87608073  0.38976359  1
  V  V22  1  0.87577681  0.62824627  0.39051581  1
  V  V23  1  0.87580042  0.37681759  0.14292474  1
  V  V24  1  0.62597120  0.87472468  0.13668973  1
  V  V25  1  0.37525541  0.87455736  0.39632826  1
  V  V26  1  0.87694215  0.87464632  0.64723178  1
  V  V27  1  0.62666483  0.37462393  0.88757766  1
  V  V28  1  0.12154473  0.37677175  0.64083168  1
  V  V29  1  0.62676229  0.87758511  0.64498735  1
  V  V30  1  0.37289229  0.37461386  0.39522461  1
  V  V31  1  0.62514232  0.62505300  0.88967042  1
  Fe  Fe32  1  0.37410085  0.12494689  0.63284215  1
  Fe  Fe33  1  0.37749742  0.62404668  0.87810736  1
  Fe  Fe34  1  0.86949771  0.87435901  0.88994062  1
  Fe  Fe35  1  0.62746224  0.12418137  0.63044131  1
  Fe  Fe36  1  0.37480635  0.87416829  0.63540757  1
  Fe  Fe37  1  0.12547878  0.12610762  0.12682861  1
  Fe  Fe38  1  0.11897386  0.62491050  0.64753954  1
  Fe  Fe39  1  0.37674655  0.37609553  0.13157149  1
  Fe  Fe40  1  0.12314725  0.87652275  0.64785745  1
  Fe  Fe41  1  0.62270362  0.37708482  0.39862082  1
  Fe  Fe42  1  0.12572876  0.87462710  0.12693044  1
  Fe  Fe43  1  0.37866143  0.62222172  0.13197650  1
  Fe  Fe44  1  0.12484735  0.37467458  0.13433525  1
  Fe  Fe45  1  0.62809635  0.37504552  0.62719144  1
  Fe  Fe46  1  0.62361719  0.87507595  0.88169863  1
  Fe  Fe47  1  0.62769966  0.62287995  0.13543245  1
  Fe  Fe48  1  0.87837923  0.11971780  0.38455925  1
  Fe  Fe49  1  0.37343158  0.37470978  0.63994734  1
  Fe  Fe50  1  0.37642890  0.87396771  0.13176177  1
  Fe  Fe51  1  0.87680396  0.37444330  0.63093209  1
  Fe  Fe52  1  0.87190623  0.12517540  0.13041328  1
  Fe  Fe53  1  0.12591643  0.62364600  0.87655112  1
  Fe  Fe54  1  0.12697049  0.62790399  0.38747553  1
  Fe  Fe55  1  0.12504429  0.37623391  0.88713007  1
  Fe  Fe56  1  0.87587018  0.87091582  0.12823892  1
  Fe  Fe57  1  0.87201106  0.12776968  0.89101767  1
  Fe  Fe58  1  0.62417841  0.12708340  0.13608954  1
  Fe  Fe59  1  0.12604705  0.12684500  0.88886896  1
  Fe  Fe60  1  0.12731102  0.37665082  0.38355284  1
  Fe  Fe61  1  0.37922249  0.37368594  0.88218699  1
  Fe  Fe62  1  0.87749553  0.37327608  0.38921898  1
  Fe  Fe63  1  0.12459073  0.87521732  0.88279837  1
  Pb  Pb64  1  -0.00132709  0.00359340  -0.00863961  1
  Pb  Pb65  1  -0.00210865  0.00140574  0.23427017  1
  Pb  Pb66  1  0.00728681  -0.00760222  0.50243096  1
  Pb  Pb67  1  -0.00510647  0.01151625  0.76379209  1
  Pb  Pb68  1  0.01068775  0.24489122  0.00089268  1
  Pb  Pb69  1  -0.00267390  0.24616499  0.24526834  1
  Pb  Pb70  1  -0.00424659  0.25639689  0.49520039  1
  Pb  Pb71  1  0.00750877  0.24876369  0.75931202  1
  Pb  Pb72  1  0.00815838  0.49712484  -0.00212201  1
  Pb  Pb73  1  0.00684881  0.49663224  0.25623563  1
  Pb  Pb74  1  0.00843148  0.50572409  0.49937088  1
  Pb  Pb75  1  0.01070688  0.49429332  0.75635905  1
  Pb  Pb76  1  0.00394895  0.76267662  -0.00643998  1
  Pb  Pb77  1  0.00601441  0.74663714  0.24664080  1
  Pb  Pb78  1  0.01516719  0.75079891  0.50937645  1
  Pb  Pb79  1  0.00420715  0.75295629  0.75650544  1
  Pb  Pb80  1  0.24153649  -0.00242754  -0.00323154  1
  Pb  Pb81  1  0.24760144  -0.00181526  0.24036719  1
  Pb  Pb82  1  0.25240889  -0.00518579  0.50760147  1
  Pb  Pb83  1  0.24321116  -0.00313542  0.75043733  1
  Pb  Pb84  1  0.24414023  0.26279547  -0.00171114  1
  Pb  Pb85  1  0.24420841  0.25657771  0.24369834  1
  Pb  Pb86  1  0.25915426  0.25117423  0.50740931  1
  Pb  Pb87  1  0.24314647  0.25075472  0.75303646  1
  Pb  Pb88  1  0.25738273  0.50029663  -0.01112957  1
  Pb  Pb89  1  0.24641080  0.49724348  0.24596923  1
  Pb  Pb90  1  0.24719021  0.50308367  0.50402769  1
  Pb  Pb91  1  0.25978782  0.49516040  0.75757965  1
  Pb  Pb92  1  0.24906657  0.75102183  -0.00980727  1
  Pb  Pb93  1  0.24973859  0.74890933  0.24233825  1
  Pb  Pb94  1  0.24481249  0.75898544  0.51037306  1
  Pb  Pb95  1  0.23998276  0.75463652  0.75325780  1
  Pb  Pb96  1  0.49697545  -0.00317445  0.00082427  1
  Pb  Pb97  1  0.50025540  0.00054777  0.24796329  1
  Pb  Pb98  1  0.50017700  0.00577774  0.50701681  1
  Pb  Pb99  1  0.49687602  0.00405783  0.74332094  1
  Pb  Pb100  1  0.50215622  0.24945204  -0.00031346  1
  Pb  Pb101  1  0.50760168  0.25678428  0.25595388  1
  Pb  Pb102  1  0.49886747  0.24644362  0.50772882  1
  Pb  Pb103  1  0.49928700  0.25407298  0.73679534  1
  Pb  Pb104  1  0.49066742  0.50185806  0.00011373  1
  Pb  Pb105  1  0.50113375  0.49964236  0.24984535  1
  Pb  Pb106  1  0.49461283  0.49261108  0.50829090  1
  Pb  Pb107  1  0.49380592  0.49655662  0.75059823  1
  Pb  Pb108  1  0.49047686  0.74584215  0.00197379  1
  Pb  Pb109  1  0.49724163  0.74616148  0.24484582  1
  Pb  Pb110  1  0.49320078  0.75283282  0.50611310  1
  Pb  Pb111  1  0.50417951  0.74880797  0.75221445  1
  Pb  Pb112  1  0.75744451  0.00071087  0.00071514  1
  Pb  Pb113  1  0.75886703  0.00771455  0.24467827  1
  Pb  Pb114  1  0.74590916  0.00206263  0.50123886  1
  Pb  Pb115  1  0.76013638  0.00118752  0.75972382  1
  Pb  Pb116  1  0.74791912  0.24172224  0.00582255  1
  Pb  Pb117  1  0.75811892  0.25015201  0.25699676  1
  Pb  Pb118  1  0.75468568  0.25651312  0.49952381  1
  Pb  Pb119  1  0.75029262  0.24870747  0.74260212  1
  Pb  Pb120  1  0.74202747  0.50449029  0.00434190  1
  Pb  Pb121  1  0.74928569  0.48538032  0.26211471  1
  Pb  Pb122  1  0.75226967  0.49213624  0.50062544  1
  Pb  Pb123  1  0.75063845  0.49681314  0.74481314  1
  Pb  Pb124  1  0.74910777  0.75280826  -0.00107666  1
  Pb  Pb125  1  0.75038013  0.74927429  0.24716265  1
  Pb  Pb126  1  0.75207537  0.75091095  0.50178491  1
  Pb  Pb127  1  0.75078456  0.76021767  0.75819088  1
  O  O128  1  0.12868366  0.00158010  0.15673729  1
  O  O129  1  0.12868988  -0.00064263  0.41915405  1
  O  O130  1  0.12055356  0.00788397  0.66593959  1
  O  O131  1  0.12961934  -0.00024456  0.90844590  1
  O  O132  1  0.12506367  0.24907627  0.16225668  1
  O  O133  1  0.12892593  0.24266412  0.40923915  1
  O  O134  1  0.11999057  0.24883287  0.66574478  1
  O  O135  1  0.12481741  0.25260740  0.91410365  1
  O  O136  1  0.11919672  0.50535994  0.16190645  1
  O  O137  1  0.12674128  0.50303896  0.41719269  1
  O  O138  1  0.11843781  0.49339569  0.66181171  1
  O  O139  1  0.12067722  0.50156218  0.91133570  1
  O  O140  1  0.12281810  0.74160774  0.15952539  1
  O  O141  1  0.12512142  0.75426662  0.41764200  1
  O  O142  1  0.11978632  0.75015751  0.66889595  1
  O  O143  1  0.12609910  0.74791280  0.90567322  1
  O  O144  1  0.37909429  0.00605041  0.16188633  1
  O  O145  1  0.37285066  -0.00217760  0.42022156  1
  O  O146  1  0.37605717  -0.00031402  0.66101649  1
  O  O147  1  0.38321798  0.00359137  0.91215110  1
  O  O148  1  0.37961268  0.24582826  0.16378623  1
  O  O149  1  0.37293321  0.25351590  0.41653583  1
  O  O150  1  0.37169840  0.24886809  0.66298254  1
  O  O151  1  0.38306376  0.24313341  0.90569935  1
  O  O152  1  0.37793495  0.49959734  0.16520465  1
  O  O153  1  0.37459691  0.50296183  0.41699610  1
  O  O154  1  0.37713247  0.50667045  0.66390630  1
  O  O155  1  0.38185590  0.49942140  0.90889929  1
  O  O156  1  0.37538287  0.74762596  0.16448249  1
  O  O157  1  0.37606431  0.74598586  0.41845645  1
  O  O158  1  0.38001294  0.74429717  0.66710077  1
  O  O159  1  0.38228367  0.75511569  0.90429073  1
  O  O160  1  0.62351460  -0.00627048  0.16224113  1
  O  O161  1  0.62160371  -0.00283665  0.41870725  1
  O  O162  1  0.62650722  -0.00603415  0.66069929  1
  O  O163  1  0.62158864  0.00682180  0.90671715  1
  O  O164  1  0.62653949  0.25772828  0.16997443  1
  O  O165  1  0.62023933  0.24182521  0.41306024  1
  O  O166  1  0.63032119  0.24923351  0.65632944  1
  O  O167  1  0.62613953  0.25436748  0.91292036  1
  O  O168  1  0.62785482  0.49316666  0.16842916  1
  O  O169  1  0.62301041  0.50985569  0.41845678  1
  O  O170  1  0.63430559  0.50948380  0.65564126  1
  O  O171  1  0.62718584  0.49558374  0.91287890  1
  O  O172  1  0.62643073  0.75466123  0.16334636  1
  O  O173  1  0.62279954  0.75056267  0.42077766  1
  O  O174  1  0.63025070  0.74735720  0.66620774  1
  O  O175  1  0.62619420  0.74120230  0.90744023  1
  O  O176  1  0.87174509  -0.00323463  0.15642600  1
  O  O177  1  0.87507445  -0.00583124  0.41708315  1
  O  O178  1  0.87402712  -0.00100186  0.66908710  1
  O  O179  1  0.86836375  0.00110713  0.91376871  1
  O  O180  1  0.87145445  0.25824625  0.16185802  1
  O  O181  1  0.87581642  0.24314921  0.41383867  1
  O  O182  1  0.87465850  0.24218993  0.65863895  1
  O  O183  1  0.86661425  0.25971998  0.91035658  1
  O  O184  1  0.87368772  0.50110167  0.16944019  1
  O  O185  1  0.87321087  0.51175584  0.41067058  1
  O  O186  1  0.87113180  0.50657199  0.65584506  1
  O  O187  1  0.86815774  0.49967040  0.91663082  1
  O  O188  1  0.87392692  0.74201240  0.16332914  1
  O  O189  1  0.87337321  0.75192385  0.41944588  1
  O  O190  1  0.87145342  0.75472959  0.66685879  1
  O  O191  1  0.86783519  0.73681740  0.90986508  1
  O  O192  1  -0.00196455  0.12731793  0.15594261  1
  O  O193  1  0.01004600  0.11937263  0.41237465  1
  O  O194  1  -0.00310407  0.12326464  0.66814315  1
  O  O195  1  -0.00192759  0.12706181  0.91026564  1
  O  O196  1  -0.00691701  0.37780642  0.16201761  1
  O  O197  1  0.00361498  0.37495048  0.41276428  1
  O  O198  1  0.00166471  0.37166467  0.66378794  1
  O  O199  1  -0.01362410  0.37773489  0.91079070  1
  O  O200  1  -0.00386140  0.62326219  0.16439012  1
  O  O201  1  -0.00726736  0.63036010  0.41366583  1
  O  O202  1  -0.01448443  0.62943898  0.66676532  1
  O  O203  1  -0.00997875  0.62043087  0.90701140  1
  O  O204  1  0.00097813  0.87113072  0.15691048  1
  O  O205  1  0.00098297  0.87567603  0.41534073  1
  O  O206  1  -0.00861211  0.87736086  0.66868400  1
  O  O207  1  -0.00252654  0.87291599  0.90595521  1
  O  O208  1  0.25985830  0.12640140  0.15894703  1
  O  O209  1  0.24556361  0.12174967  0.42001545  1
  O  O210  1  0.24128673  0.12691943  0.66176388  1
  O  O211  1  0.26229056  0.12440184  0.90691344  1
  O  O212  1  0.25110402  0.37598718  0.16127744  1
  O  O213  1  0.25478595  0.37730525  0.41768154  1
  O  O214  1  0.23939757  0.37446138  0.66429425  1
  O  O215  1  0.25348796  0.37456629  0.90586331  1
  O  O216  1  0.24266171  0.62270516  0.15524615  1
  O  O217  1  0.25814636  0.62694789  0.41681114  1
  O  O218  1  0.25215660  0.62469900  0.66071661  1
  O  O219  1  0.25219125  0.62371911  0.90096323  1
  O  O220  1  0.25043359  0.87310366  0.16206830  1
  O  O221  1  0.24929648  0.87324990  0.42060065  1
  O  O222  1  0.25157898  0.87382975  0.66683720  1
  O  O223  1  0.26281867  0.87680560  0.90645846  1
  O  O224  1  0.49773558  0.12621969  0.16956996  1
  O  O225  1  0.49922974  0.12163171  0.41937827  1
  O  O226  1  0.50202420  0.12441651  0.65885187  1
  O  O227  1  0.50288938  0.12797380  0.91504692  1
  O  O228  1  0.50632773  0.37474973  0.16559000  1
  O  O229  1  0.49053998  0.37641172  0.41972965  1
  O  O230  1  0.50394116  0.37887801  0.65634219  1
  O  O231  1  0.51044781  0.37381072  0.90831009  1
  O  O232  1  0.50462160  0.62399679  0.16686034  1
  O  O233  1  0.49471102  0.62668885  0.41895196  1
  O  O234  1  0.51088744  0.62664892  0.66018570  1
  O  O235  1  0.50852923  0.62145211  0.90817251  1
  O  O236  1  0.50580664  0.87374872  0.16449356  1
  O  O237  1  0.50012529  0.87355630  0.41994966  1
  O  O238  1  0.50717100  0.86954611  0.66162760  1
  O  O239  1  0.49881288  0.87678841  0.91450532  1
  O  O240  1  0.74758776  0.12747915  0.16580220  1
  O  O241  1  0.74331072  0.11863739  0.41083755  1
  O  O242  1  0.75650810  0.11970661  0.66080115  1
  O  O243  1  0.73942493  0.12973360  0.91294115  1
  O  O244  1  0.74996638  0.37742423  0.16847741  1
  O  O245  1  0.75095892  0.37593957  0.41509414  1
  O  O246  1  0.75310033  0.37540093  0.66118681  1
  O  O247  1  0.74684694  0.37722985  0.91753218  1
  O  O248  1  0.75573601  0.62286522  0.16710301  1
  O  O249  1  0.75201323  0.63154528  0.41619333  1
  O  O250  1  0.75316473  0.63065851  0.66601646  1
  O  O251  1  0.74760567  0.61873653  0.91604376  1
  O  O252  1  0.74411933  0.87231197  0.16034162  1
  O  O253  1  0.74831958  0.87399198  0.41656877  1
  O  O254  1  0.74956252  0.87508637  0.66767036  1
  O  O255  1  0.74309540  0.87185332  0.91607138  1
  O  O256  1  0.12848922  0.12880473  0.02562660  1
  O  O257  1  0.12974733  0.12049835  0.29809378  1
  O  O258  1  0.12023399  0.12645632  0.55190226  1
  O  O259  1  0.12299500  0.13359162  0.78613673  1
  O  O260  1  0.12188138  0.37219096  0.03258703  1
  O  O261  1  0.12866440  0.38133471  0.28283862  1
  O  O262  1  0.12260586  0.37451468  0.54887846  1
  O  O263  1  0.11516790  0.37233457  0.78532710  1
  O  O264  1  0.11953073  0.62192876  0.04460879  1
  O  O265  1  0.12094869  0.62680516  0.28746143  1
  O  O266  1  0.11424561  0.62575272  0.54470176  1
  O  O267  1  0.11617700  0.62039258  0.77425032  1
  O  O268  1  0.13221293  0.86895634  0.02565413  1
  O  O269  1  0.12828333  0.87663004  0.29843209  1
  O  O270  1  0.12095801  0.87360756  0.54486184  1
  O  O271  1  0.13011602  0.87553967  0.77942736  1
  O  O272  1  0.38334813  0.12910121  0.04604177  1
  O  O273  1  0.37260946  0.12376935  0.30620903  1
  O  O274  1  0.37228759  0.12965623  0.53097857  1
  O  O275  1  0.38029472  0.12166744  0.79341977  1
  O  O276  1  0.38075767  0.37608670  0.03101776  1
  O  O277  1  0.37443648  0.37564716  0.30380716  1
  O  O278  1  0.36856232  0.37829434  0.53854144  1
  O  O279  1  0.37848653  0.38400059  0.77928082  1
  O  O280  1  0.38485088  0.62467977  0.03085222  1
  O  O281  1  0.37522667  0.62635407  0.30121033  1
  O  O282  1  0.37633743  0.62815876  0.55446563  1
  O  O283  1  0.38367793  0.61781507  0.77637161  1
  O  O284  1  0.38246215  0.87227025  0.03200764  1
  O  O285  1  0.37385773  0.87434209  0.30502704  1
  O  O286  1  0.37051550  0.86712147  0.53437497  1
  O  O287  1  0.38490529  0.87994935  0.79534653  1
  O  O288  1  0.62333705  0.13495348  0.03642147  1
  O  O289  1  0.61827042  0.11990543  0.30374332  1
  O  O290  1  0.62467092  0.11747132  0.52991282  1
  O  O291  1  0.62272077  0.12885552  0.79757071  1
  O  O292  1  0.62618082  0.37518655  0.05174744  1
  O  O293  1  0.62039097  0.37721244  0.29711386  1
  O  O294  1  0.62620898  0.37716514  0.52489610  1
  O  O295  1  0.63268830  0.37499400  0.79609310  1
  O  O296  1  0.62873070  0.61926735  0.03579570  1
  O  O297  1  0.62473855  0.62827336  0.30153197  1
  O  O298  1  0.62847732  0.63231408  0.54574166  1
  O  O299  1  0.63012187  0.61939336  0.79801601  1
  O  O300  1  0.62278394  0.87384880  0.04517654  1
  O  O301  1  0.62382927  0.87365797  0.29955482  1
  O  O302  1  0.63063138  0.87187192  0.55321759  1
  O  O303  1  0.62450890  0.86776649  0.78134385  1
  O  O304  1  0.86320389  0.12711949  0.02875238  1
  O  O305  1  0.87425307  0.12238158  0.28433149  1
  O  O306  1  0.87987422  0.11882204  0.54980693  1
  O  O307  1  0.87027304  0.11989624  0.78867801  1
  O  O308  1  0.87078387  0.38056905  0.05208687  1
  O  O309  1  0.87024125  0.37459723  0.28741317  1
  O  O310  1  0.87485341  0.37091289  0.53014596  1
  O  O311  1  0.86749351  0.37799566  0.79705028  1
  O  O312  1  0.87317178  0.61901546  0.04999358  1
  O  O313  1  0.87395265  0.63335234  0.29920646  1
  O  O314  1  0.87242908  0.63115700  0.54791452  1
  O  O315  1  0.86952468  0.61633570  0.79616056  1
  O  O316  1  0.87073140  0.86562856  0.02750797  1
  O  O317  1  0.87516228  0.87232039  0.29748336  1
  O  O318  1  0.87480202  0.87628488  0.55567381  1
  O  O319  1  0.86199799  0.87694691  0.78750087  1
