# generated using pymatgen
data_VFe(PbO3)2
_symmetry_space_group_name_H-M   'P 1'
_cell_length_a   15.37432386
_cell_length_b   15.38447502
_cell_length_c   18.50366920
_cell_angle_alpha   90.01131774
_cell_angle_beta   89.99949459
_cell_angle_gamma   89.98736433
_symmetry_Int_Tables_number   1
_chemical_formula_structural   VFe(PbO3)2
_chemical_formula_sum   'V32 Fe32 Pb64 O192'
_cell_volume   4376.59684503
_cell_formula_units_Z   32
loop_
 _symmetry_equiv_pos_site_id
 _symmetry_equiv_pos_as_xyz
  1  'x, y, z'
loop_
 _atom_site_type_symbol
 _atom_site_label
 _atom_site_symmetry_multiplicity
 _atom_site_fract_x
 _atom_site_fract_y
 _atom_site_fract_z
 _atom_site_occupancy
  V  V0  1  0.37430085  0.62489093  0.15156290  1
  V  V1  1  0.37354100  0.62373944  0.89019903  1
  V  V2  1  0.87172823  0.62661904  0.63223487  1
  V  V3  1  0.12603936  0.62355536  0.38860588  1
  V  V4  1  0.87515492  0.62457201  0.15057192  1
  V  V5  1  0.37517136  0.12287336  0.38590108  1
  V  V6  1  0.12440307  0.37532574  0.89057324  1
  V  V7  1  0.62449004  0.62259532  0.89103543  1
  V  V8  1  0.62639789  0.37656141  0.14770171  1
  V  V9  1  0.62532713  0.37488866  0.88975575  1
  V  V10  1  0.37501126  0.12479575  0.63894613  1
  V  V11  1  0.87429853  0.12375249  0.39025771  1
  V  V12  1  0.87633916  0.37307937  0.14610990  1
  V  V13  1  0.12277618  0.12346513  0.88710286  1
  V  V14  1  0.87509056  0.12534811  0.14091916  1
  V  V15  1  0.37518631  0.87917967  0.14245996  1
  V  V16  1  0.87521233  0.87446984  0.89090238  1
  V  V17  1  0.62597391  0.62608078  0.14598955  1
  V  V18  1  0.12516376  0.37028451  0.38736350  1
  V  V19  1  0.12458574  0.87679071  0.39379235  1
  V  V20  1  0.62617054  0.12360900  0.14247480  1
  V  V21  1  0.12384320  0.12565035  0.14374618  1
  V  V22  1  0.62426832  0.87627255  0.63992249  1
  V  V23  1  0.37825882  0.62593205  0.63361371  1
  V  V24  1  0.62408266  0.12895900  0.63839904  1
  V  V25  1  0.12667699  0.37233036  0.63293971  1
  V  V26  1  0.62467936  0.87910085  0.38565588  1
  V  V27  1  0.12513033  0.87294038  0.88482776  1
  V  V28  1  0.12465079  0.62137421  0.14249630  1
  V  V29  1  0.12488923  0.87298264  0.14246406  1
  V  V30  1  0.87524592  0.62288297  0.89024865  1
  V  V31  1  0.62420361  0.62711611  0.38536845  1
  Fe  Fe32  1  0.12159906  0.37446552  0.13827325  1
  Fe  Fe33  1  0.12294372  0.62347366  0.88234932  1
  Fe  Fe34  1  0.87564929  0.62761521  0.38235291  1
  Fe  Fe35  1  0.37407032  0.12464259  0.13471061  1
  Fe  Fe36  1  0.12785246  0.12691119  0.62565254  1
  Fe  Fe37  1  0.37288055  0.87334791  0.88071667  1
  Fe  Fe38  1  0.37557026  0.37550706  0.62948797  1
  Fe  Fe39  1  0.37779649  0.87504860  0.64062508  1
  Fe  Fe40  1  0.87817186  0.37630470  0.39728520  1
  Fe  Fe41  1  0.62693591  0.12518270  0.88240217  1
  Fe  Fe42  1  0.12612990  0.12192217  0.39650418  1
  Fe  Fe43  1  0.37314549  0.37324671  0.14223154  1
  Fe  Fe44  1  0.37451629  0.62840899  0.37815848  1
  Fe  Fe45  1  0.12780567  0.62281194  0.63492487  1
  Fe  Fe46  1  0.87447777  0.37673679  0.62502513  1
  Fe  Fe47  1  0.62639647  0.87297239  0.13274208  1
  Fe  Fe48  1  0.12588064  0.87465729  0.63046416  1
  Fe  Fe49  1  0.87305030  0.87450132  0.62975762  1
  Fe  Fe50  1  0.62446547  0.37215760  0.38605051  1
  Fe  Fe51  1  0.87367472  0.12394258  0.63534030  1
  Fe  Fe52  1  0.37529753  0.12746117  0.88649982  1
  Fe  Fe53  1  0.87714135  0.87793444  0.13928185  1
  Fe  Fe54  1  0.62408295  0.87118601  0.89253912  1
  Fe  Fe55  1  0.37516536  0.37701885  0.88788154  1
  Fe  Fe56  1  0.62310859  0.37693837  0.62610699  1
  Fe  Fe57  1  0.37565530  0.87373174  0.38625901  1
  Fe  Fe58  1  0.87589371  0.12832460  0.88181028  1
  Fe  Fe59  1  0.87360378  0.37654386  0.88354439  1
  Fe  Fe60  1  0.37214519  0.37622960  0.38608278  1
  Fe  Fe61  1  0.87472328  0.87258492  0.39251547  1
  Fe  Fe62  1  0.62289168  0.12188519  0.38317130  1
  Fe  Fe63  1  0.62328284  0.62663210  0.62934493  1
  Pb  Pb64  1  -0.00493682  -0.00503020  -0.00078835  1
  Pb  Pb65  1  0.00506646  0.00512708  0.25839636  1
  Pb  Pb66  1  -0.00732761  -0.00193498  0.50628788  1
  Pb  Pb67  1  -0.00140940  0.00316899  0.73497392  1
  Pb  Pb68  1  0.00290615  0.25472560  -0.00176496  1
  Pb  Pb69  1  -0.00384069  0.25126386  0.25833624  1
  Pb  Pb70  1  -0.00620432  0.23749002  0.50545297  1
  Pb  Pb71  1  -0.00746260  0.24892465  0.74138369  1
  Pb  Pb72  1  0.00554515  0.49542991  0.00209735  1
  Pb  Pb73  1  -0.01256248  0.49511407  0.26214911  1
  Pb  Pb74  1  0.00004837  0.50336057  0.49874695  1
  Pb  Pb75  1  0.00301077  0.50161817  0.74375180  1
  Pb  Pb76  1  -0.00574353  0.75252816  0.00298660  1
  Pb  Pb77  1  -0.00902276  0.75378642  0.25795636  1
  Pb  Pb78  1  0.00741651  0.74966253  0.50214766  1
  Pb  Pb79  1  0.00512114  0.74730332  0.74056804  1
  Pb  Pb80  1  0.25607839  0.00372655  -0.00350843  1
  Pb  Pb81  1  0.24290983  0.00565008  0.25747484  1
  Pb  Pb82  1  0.25227317  -0.01209854  0.50504974  1
  Pb  Pb83  1  0.25204677  -0.00317867  0.74341915  1
  Pb  Pb84  1  0.25769269  0.25171075  0.00457994  1
  Pb  Pb85  1  0.25541957  0.25311528  0.24994559  1
  Pb  Pb86  1  0.25250587  0.24748624  0.49784678  1
  Pb  Pb87  1  0.26143424  0.25169421  0.75116646  1
  Pb  Pb88  1  0.25000341  0.48973315  0.00607407  1
  Pb  Pb89  1  0.25538175  0.49335088  0.25413303  1
  Pb  Pb90  1  0.25535955  0.50280497  0.49624088  1
  Pb  Pb91  1  0.25310624  0.49682508  0.74580480  1
  Pb  Pb92  1  0.24655706  0.74709066  -0.00389567  1
  Pb  Pb93  1  0.25585284  0.75542942  0.25620804  1
  Pb  Pb94  1  0.24633474  0.75076756  0.50164533  1
  Pb  Pb95  1  0.25079536  0.75072232  0.74346029  1
  Pb  Pb96  1  0.49800417  0.00111987  -0.00837943  1
  Pb  Pb97  1  0.50075371  0.00078293  0.24964618  1
  Pb  Pb98  1  0.49190645  -0.00518443  0.50118351  1
  Pb  Pb99  1  0.50433122  0.00846974  0.75653092  1
  Pb  Pb100  1  0.49092704  0.24526095  0.00052843  1
  Pb  Pb101  1  0.50495395  0.24960592  0.25209491  1
  Pb  Pb102  1  0.50111877  0.25938309  0.49425252  1
  Pb  Pb103  1  0.49692599  0.24972044  0.74952223  1
  Pb  Pb104  1  0.49226190  0.49513664  0.00594379  1
  Pb  Pb105  1  0.49786951  0.49106870  0.25669126  1
  Pb  Pb106  1  0.50203064  0.49658341  0.49219841  1
  Pb  Pb107  1  0.50080370  0.49442526  0.74030273  1
  Pb  Pb108  1  0.50217832  0.75373172  0.00067797  1
  Pb  Pb109  1  0.49220452  0.75289394  0.25391240  1
  Pb  Pb110  1  0.49776588  0.74754178  0.49701052  1
  Pb  Pb111  1  0.50231638  0.76064987  0.75436357  1
  Pb  Pb112  1  0.74518652  -0.00087763  -0.00258475  1
  Pb  Pb113  1  0.75147225  -0.00256505  0.24945041  1
  Pb  Pb114  1  0.75874108  0.00217470  0.50282193  1
  Pb  Pb115  1  0.74795700  0.00604770  0.75034523  1
  Pb  Pb116  1  0.75389479  0.24717694  -0.00416677  1
  Pb  Pb117  1  0.74243321  0.25085627  0.25979711  1
  Pb  Pb118  1  0.74730150  0.25541747  0.49578190  1
  Pb  Pb119  1  0.75994633  0.25533295  0.74522107  1
  Pb  Pb120  1  0.74893783  0.50189671  0.00241496  1
  Pb  Pb121  1  0.75041450  0.49144369  0.26090413  1
  Pb  Pb122  1  0.74774879  0.49644880  0.49376734  1
  Pb  Pb123  1  0.75096492  0.49405151  0.73867562  1
  Pb  Pb124  1  0.75105266  0.75601352  0.00738523  1
  Pb  Pb125  1  0.75894763  0.75736693  0.25361642  1
  Pb  Pb126  1  0.74952292  0.74803430  0.49632030  1
  Pb  Pb127  1  0.74320513  0.75555637  0.74880327  1
  O  O128  1  0.12376406  -0.00059184  0.17011862  1
  O  O129  1  0.12578080  -0.00800272  0.41657829  1
  O  O130  1  0.12947728  0.00251968  0.65617041  1
  O  O131  1  0.12227209  0.00198571  0.91109797  1
  O  O132  1  0.12170174  0.24213639  0.16437395  1
  O  O133  1  0.12778078  0.25487177  0.40760302  1
  O  O134  1  0.12842888  0.25665759  0.65802475  1
  O  O135  1  0.12127634  0.25153174  0.91206865  1
  O  O136  1  0.12459382  0.50730536  0.16164999  1
  O  O137  1  0.12665476  0.50296189  0.40989679  1
  O  O138  1  0.12605840  0.49317511  0.66190726  1
  O  O139  1  0.12249436  0.49621649  0.91511390  1
  O  O140  1  0.12761197  0.75745745  0.16489199  1
  O  O141  1  0.12601853  0.74898504  0.41256144  1
  O  O142  1  0.12595156  0.74782297  0.66257508  1
  O  O143  1  0.12314490  0.75102581  0.91348297  1
  O  O144  1  0.37414925  -0.00333152  0.16416111  1
  O  O145  1  0.37540011  0.00177858  0.41416888  1
  O  O146  1  0.37864149  0.00774061  0.66481367  1
  O  O147  1  0.37084048  -0.00004929  0.91039944  1
  O  O148  1  0.37374267  0.24667242  0.16570238  1
  O  O149  1  0.37219862  0.24265213  0.40676781  1
  O  O150  1  0.37852663  0.24470489  0.66141269  1
  O  O151  1  0.37251111  0.25351504  0.91847741  1
  O  O152  1  0.37288119  0.50255753  0.16884445  1
  O  O153  1  0.37246119  0.50493795  0.40701962  1
  O  O154  1  0.37573450  0.50516679  0.65900438  1
  O  O155  1  0.37550747  0.50503066  0.91909477  1
  O  O156  1  0.37183358  0.75879762  0.16730561  1
  O  O157  1  0.37592255  0.74926128  0.41369700  1
  O  O158  1  0.37616349  0.74294502  0.65934782  1
  O  O159  1  0.37303676  0.74123465  0.91561544  1
  O  O160  1  0.62648514  0.00430086  0.16085534  1
  O  O161  1  0.62333213  -0.00543001  0.41075763  1
  O  O162  1  0.62277739  -0.00238814  0.66406287  1
  O  O163  1  0.62786199  -0.00152851  0.91438261  1
  O  O164  1  0.62756453  0.24768192  0.16799416  1
  O  O165  1  0.62419455  0.24495488  0.41170336  1
  O  O166  1  0.62134446  0.24422095  0.65475788  1
  O  O167  1  0.62679812  0.25953604  0.91116583  1
  O  O168  1  0.62690273  0.50286524  0.17342744  1
  O  O169  1  0.62411446  0.50763888  0.40369774  1
  O  O170  1  0.62382048  0.50230796  0.66009432  1
  O  O171  1  0.62602723  0.50101186  0.92260519  1
  O  O172  1  0.62436350  0.74382561  0.16324567  1
  O  O173  1  0.62394837  0.75273713  0.40933917  1
  O  O174  1  0.62508554  0.75465267  0.66262416  1
  O  O175  1  0.62656413  0.74081091  0.92152090  1
  O  O176  1  0.87536548  0.00624549  0.16606118  1
  O  O177  1  0.87542925  0.00279177  0.41394008  1
  O  O178  1  0.87069184  -0.00163775  0.66321839  1
  O  O179  1  0.87786593  -0.00701765  0.91022267  1
  O  O180  1  0.87647822  0.24730890  0.17114213  1
  O  O181  1  0.87731250  0.24252931  0.41218811  1
  O  O182  1  0.87345773  0.25172975  0.65744922  1
  O  O183  1  0.87583142  0.25327150  0.91645806  1
  O  O184  1  0.87666247  0.49858837  0.17301585  1
  O  O185  1  0.87811129  0.50566402  0.41338966  1
  O  O186  1  0.87475485  0.50572507  0.65603830  1
  O  O187  1  0.87410388  0.50527389  0.91449351  1
  O  O188  1  0.87673259  0.74904034  0.16818313  1
  O  O189  1  0.87474478  0.74796483  0.41679307  1
  O  O190  1  0.87298019  0.74455266  0.65753738  1
  O  O191  1  0.87673668  0.74758319  0.91774215  1
  O  O192  1  0.00153021  0.12237472  0.16916145  1
  O  O193  1  -0.00513977  0.12254333  0.41556629  1
  O  O194  1  0.00308049  0.12749027  0.65620776  1
  O  O195  1  0.00544173  0.12520707  0.91414066  1
  O  O196  1  -0.00262040  0.37352397  0.17145838  1
  O  O197  1  0.01211030  0.37724594  0.41600030  1
  O  O198  1  0.00655921  0.37552299  0.65397648  1
  O  O199  1  0.00320515  0.37727213  0.91505065  1
  O  O200  1  0.00803533  0.63132514  0.16658658  1
  O  O201  1  0.00795693  0.62686651  0.41260683  1
  O  O202  1  -0.00762941  0.62371213  0.65885587  1
  O  O203  1  -0.00725302  0.62486422  0.91447135  1
  O  O204  1  0.00789841  0.87733170  0.16632687  1
  O  O205  1  0.00630910  0.87250201  0.41425193  1
  O  O206  1  -0.00128339  0.87411937  0.65713322  1
  O  O207  1  -0.00109671  0.87237971  0.91678364  1
  O  O208  1  0.24241294  0.12105455  0.16441956  1
  O  O209  1  0.25868521  0.12092901  0.41412921  1
  O  O210  1  0.25740863  0.12759692  0.65789664  1
  O  O211  1  0.23793625  0.12756229  0.91478925  1
  O  O212  1  0.24476278  0.37454461  0.16775401  1
  O  O213  1  0.24223149  0.37750402  0.41301230  1
  O  O214  1  0.24728832  0.37563792  0.66087873  1
  O  O215  1  0.24261701  0.37716590  0.91494579  1
  O  O216  1  0.24287202  0.63088541  0.16822627  1
  O  O217  1  0.24441324  0.62766445  0.40963991  1
  O  O218  1  0.25853342  0.62280657  0.66016411  1
  O  O219  1  0.25416807  0.62245887  0.91235464  1
  O  O220  1  0.24692726  0.87937851  0.16758666  1
  O  O221  1  0.24589973  0.87300646  0.41358574  1
  O  O222  1  0.25194144  0.87485610  0.66423368  1
  O  O223  1  0.24513902  0.87238114  0.91328043  1
  O  O224  1  0.50641275  0.12515726  0.16069732  1
  O  O225  1  0.49180972  0.12215179  0.41147662  1
  O  O226  1  0.50137689  0.12309117  0.66546055  1
  O  O227  1  0.50250245  0.12783327  0.91517693  1
  O  O228  1  0.50401933  0.37632634  0.16681419  1
  O  O229  1  0.49806050  0.37508686  0.40694975  1
  O  O230  1  0.49968178  0.37423731  0.66040898  1
  O  O231  1  0.50742329  0.38019137  0.91606703  1
  O  O232  1  0.50420972  0.62400077  0.16813114  1
  O  O233  1  0.50499380  0.62877911  0.40711568  1
  O  O234  1  0.49441988  0.62530375  0.66042576  1
  O  O235  1  0.49707167  0.62330230  0.91793292  1
  O  O236  1  0.49522106  0.87610234  0.15913608  1
  O  O237  1  0.50741368  0.87425694  0.41294630  1
  O  O238  1  0.50670552  0.87479859  0.66642687  1
  O  O239  1  0.49590924  0.86951711  0.91541895  1
  O  O240  1  0.74914794  0.12641170  0.16669221  1
  O  O241  1  0.75523165  0.12271934  0.41030977  1
  O  O242  1  0.74070898  0.12133688  0.65858992  1
  O  O243  1  0.75206947  0.12591202  0.91586812  1
  O  O244  1  0.75285160  0.37500983  0.17387140  1
  O  O245  1  0.74979200  0.37500988  0.41015160  1
  O  O246  1  0.74847851  0.37623044  0.65519394  1
  O  O247  1  0.74386957  0.38084690  0.91678380  1
  O  O248  1  0.74677254  0.62331818  0.16961027  1
  O  O249  1  0.74353583  0.62862322  0.40719721  1
  O  O250  1  0.75487268  0.62582496  0.65840573  1
  O  O251  1  0.75405724  0.62471644  0.91891162  1
  O  O252  1  0.74973675  0.87508307  0.16470306  1
  O  O253  1  0.74063080  0.87449320  0.41138524  1
  O  O254  1  0.74334067  0.87462187  0.66443605  1
  O  O255  1  0.75918180  0.86947133  0.91498398  1
  O  O256  1  0.12097195  0.12165271  0.05297182  1
  O  O257  1  0.12407290  0.11339028  0.29499432  1
  O  O258  1  0.12761064  0.13314799  0.52434469  1
  O  O259  1  0.12496785  0.12636470  0.79677953  1
  O  O260  1  0.11850718  0.37889140  0.03819092  1
  O  O261  1  0.12355185  0.37432930  0.29548932  1
  O  O262  1  0.13058748  0.37439740  0.54201152  1
  O  O263  1  0.12450076  0.37535798  0.79993161  1
  O  O264  1  0.12573162  0.62608443  0.05095592  1
  O  O265  1  0.12429071  0.62499353  0.29765080  1
  O  O266  1  0.12627796  0.62615240  0.53485334  1
  O  O267  1  0.11832875  0.61873039  0.78331850  1
  O  O268  1  0.12593685  0.87656393  0.05135649  1
  O  O269  1  0.12551904  0.87804479  0.30165606  1
  O  O270  1  0.13212458  0.86662780  0.52991282  1
  O  O271  1  0.12339877  0.87397856  0.79403578  1
  O  O272  1  0.36938865  0.12712370  0.03435765  1
  O  O273  1  0.37484544  0.11812502  0.29400061  1
  O  O274  1  0.38004809  0.12350281  0.54784973  1
  O  O275  1  0.37680574  0.13547230  0.78617020  1
  O  O276  1  0.37110939  0.38054391  0.04023839  1
  O  O277  1  0.36647762  0.37677911  0.28410032  1
  O  O278  1  0.37284356  0.37429996  0.52908146  1
  O  O279  1  0.37107385  0.37339014  0.78810556  1
  O  O280  1  0.37335081  0.62860248  0.06004820  1
  O  O281  1  0.37357120  0.63722386  0.27607578  1
  O  O282  1  0.37802784  0.62507857  0.54203419  1
  O  O283  1  0.37747571  0.62251319  0.79984560  1
  O  O284  1  0.36756939  0.87622947  0.05164308  1
  O  O285  1  0.37815663  0.87239544  0.28583008  1
  O  O286  1  0.37889131  0.88305259  0.53929753  1
  O  O287  1  0.37625393  0.86805034  0.78064608  1
  O  O288  1  0.63104945  0.12801709  0.05147408  1
  O  O289  1  0.62275766  0.12322275  0.28314730  1
  O  O290  1  0.61971088  0.12186083  0.54758021  1
  O  O291  1  0.62396451  0.12209673  0.78238286  1
  O  O292  1  0.63186569  0.37837584  0.05676390  1
  O  O293  1  0.62743076  0.37053792  0.28320105  1
  O  O294  1  0.62019903  0.37718797  0.52481512  1
  O  O295  1  0.62599093  0.38012771  0.79889319  1
  O  O296  1  0.62747092  0.61908239  0.05506938  1
  O  O297  1  0.62364531  0.63057275  0.29431275  1
  O  O298  1  0.62256369  0.62966742  0.53015383  1
  O  O299  1  0.62561652  0.62244289  0.80024591  1
  O  O300  1  0.63089920  0.86772388  0.03248030  1
  O  O301  1  0.62282118  0.87958929  0.29370918  1
  O  O302  1  0.62349945  0.87740940  0.54899924  1
  O  O303  1  0.62625380  0.86286961  0.79230473  1
  O  O304  1  0.87630213  0.12670954  0.04981999  1
  O  O305  1  0.87790414  0.12257520  0.29845536  1
  O  O306  1  0.87573453  0.11875165  0.53404193  1
  O  O307  1  0.87349739  0.13132769  0.78185666  1
  O  O308  1  0.87531774  0.37520551  0.05492289  1
  O  O309  1  0.88633144  0.37657655  0.29461951  1
  O  O310  1  0.87563088  0.37609821  0.52374845  1
  O  O311  1  0.86970473  0.37256944  0.78434100  1
  O  O312  1  0.87644387  0.62179133  0.05905056  1
  O  O313  1  0.88228383  0.62977942  0.28083713  1
  O  O314  1  0.87261906  0.62626793  0.54101742  1
  O  O315  1  0.87243147  0.62564976  0.79999335  1
  O  O316  1  0.88305113  0.87272886  0.03879347  1
  O  O317  1  0.87418480  0.86901797  0.29067821  1
  O  O318  1  0.86919325  0.88248946  0.52910436  1
  O  O319  1  0.87577644  0.86934313  0.80060561  1
