# generated using pymatgen
data_VFe(PbO3)2
_symmetry_space_group_name_H-M   'P 1'
_cell_length_a   15.40062683
_cell_length_b   15.39303737
_cell_length_c   18.51308961
_cell_angle_alpha   89.94184497
_cell_angle_beta   90.00038832
_cell_angle_gamma   89.99560288
_symmetry_Int_Tables_number   1
_chemical_formula_structural   VFe(PbO3)2
_chemical_formula_sum   'V32 Fe32 Pb64 O192'
_cell_volume   4388.75562995
_cell_formula_units_Z   32
loop_
 _symmetry_equiv_pos_site_id
 _symmetry_equiv_pos_as_xyz
  1  'x, y, z'
loop_
 _atom_site_type_symbol
 _atom_site_label
 _atom_site_symmetry_multiplicity
 _atom_site_fract_x
 _atom_site_fract_y
 _atom_site_fract_z
 _atom_site_occupancy
  V  V0  1  0.62128803  0.87683944  0.88472125  1
  V  V1  1  0.37807290  0.62454722  0.14318290  1
  V  V2  1  0.12221076  0.12610893  0.63858979  1
  V  V3  1  0.37640231  0.87386514  0.39551411  1
  V  V4  1  0.87087347  0.12572937  0.14257679  1
  V  V5  1  0.37682791  0.37389397  0.88808997  1
  V  V6  1  0.12589768  0.12662283  0.14087897  1
  V  V7  1  0.12524652  0.86706678  0.64840379  1
  V  V8  1  0.62548970  0.87319604  0.14320210  1
  V  V9  1  0.62277575  0.12729178  0.63080335  1
  V  V10  1  0.37100534  0.37279706  0.63098806  1
  V  V11  1  0.62418466  0.12438260  0.89097630  1
  V  V12  1  0.12322211  0.37623625  0.39245470  1
  V  V13  1  0.87670295  0.37580519  0.63823174  1
  V  V14  1  0.37830168  0.87373720  0.14349851  1
  V  V15  1  0.87514216  0.62455506  0.39249991  1
  V  V16  1  0.37646810  0.12444779  0.89159418  1
  V  V17  1  0.12545774  0.87263818  0.38733260  1
  V  V18  1  0.87405052  0.12646891  0.63968031  1
  V  V19  1  0.62177104  0.37498924  0.14934128  1
  V  V20  1  0.37494104  0.37737841  0.14698228  1
  V  V21  1  0.37482973  0.37667654  0.38897113  1
  V  V22  1  0.87371762  0.37717277  0.14347152  1
  V  V23  1  0.12359960  0.61507364  0.64424130  1
  V  V24  1  0.63551635  0.87296802  0.39607551  1
  V  V25  1  0.12203958  0.11888777  0.38852831  1
  V  V26  1  0.12151915  0.62851391  0.39175941  1
  V  V27  1  0.12509414  0.37220085  0.88743227  1
  V  V28  1  0.62447020  0.62533506  0.14231632  1
  V  V29  1  0.88149520  0.87272190  0.39067825  1
  V  V30  1  0.12700081  0.37473566  0.14058995  1
  V  V31  1  0.37900401  0.87782661  0.88501844  1
  Fe  Fe32  1  0.61888342  0.37212733  0.88021274  1
  Fe  Fe33  1  0.62113799  0.62389930  0.87680206  1
  Fe  Fe34  1  0.13086122  0.62401075  0.88324304  1
  Fe  Fe35  1  0.87401066  0.62501730  0.13197089  1
  Fe  Fe36  1  0.37493285  0.12627495  0.14311498  1
  Fe  Fe37  1  0.87309306  0.62266149  0.87546389  1
  Fe  Fe38  1  0.62571735  0.62804874  0.39935568  1
  Fe  Fe39  1  0.37230836  0.12805465  0.62326062  1
  Fe  Fe40  1  0.87571433  0.12752905  0.88526271  1
  Fe  Fe41  1  0.87677268  0.87750769  0.64943718  1
  Fe  Fe42  1  0.62520457  0.62362532  0.62935706  1
  Fe  Fe43  1  0.37171632  0.87869949  0.63008104  1
  Fe  Fe44  1  0.12978947  0.87832288  0.87891531  1
  Fe  Fe45  1  0.62272351  0.12493486  0.14938700  1
  Fe  Fe46  1  0.62783136  0.37594132  0.38869491  1
  Fe  Fe47  1  0.37099332  0.62441326  0.40030573  1
  Fe  Fe48  1  0.37646249  0.62601734  0.87982778  1
  Fe  Fe49  1  0.37132090  0.62411738  0.62820321  1
  Fe  Fe50  1  0.62579521  0.87879865  0.62814251  1
  Fe  Fe51  1  0.12875793  0.12725243  0.88568917  1
  Fe  Fe52  1  0.87723414  0.37460766  0.38125651  1
  Fe  Fe53  1  0.12283114  0.37179202  0.63275214  1
  Fe  Fe54  1  0.12728448  0.62292187  0.13236708  1
  Fe  Fe55  1  0.12915100  0.87327016  0.13394664  1
  Fe  Fe56  1  0.87728309  0.12068417  0.38279982  1
  Fe  Fe57  1  0.87007291  0.37212145  0.88343263  1
  Fe  Fe58  1  0.62628298  0.37100162  0.63133765  1
  Fe  Fe59  1  0.87341184  0.87906100  0.87724504  1
  Fe  Fe60  1  0.62691494  0.12104640  0.37970466  1
  Fe  Fe61  1  0.37155484  0.12434869  0.39597995  1
  Fe  Fe62  1  0.87502851  0.87303784  0.13114870  1
  Fe  Fe63  1  0.87711082  0.62500298  0.64746074  1
  Pb  Pb64  1  0.00158274  -0.00882452  -0.00980939  1
  Pb  Pb65  1  -0.00244344  0.00054301  0.24456858  1
  Pb  Pb66  1  -0.00617012  -0.01363404  0.50811403  1
  Pb  Pb67  1  0.00458424  0.00040194  0.75750707  1
  Pb  Pb68  1  -0.00190319  0.24792335  -0.00373978  1
  Pb  Pb69  1  -0.00688332  0.25069992  0.25308011  1
  Pb  Pb70  1  0.00042100  0.25202169  0.49592677  1
  Pb  Pb71  1  -0.00650583  0.24667326  0.75397468  1
  Pb  Pb72  1  -0.00785228  0.51554255  -0.00569479  1
  Pb  Pb73  1  -0.00156043  0.49923211  0.24452302  1
  Pb  Pb74  1  -0.00055681  0.49950169  0.50310920  1
  Pb  Pb75  1  -0.00889617  0.49488492  0.75544530  1
  Pb  Pb76  1  -0.00031838  0.75316519  -0.01501534  1
  Pb  Pb77  1  0.00243223  0.74979218  0.23538465  1
  Pb  Pb78  1  -0.01272023  0.74846729  0.51367811  1
  Pb  Pb79  1  -0.00772386  0.74923744  0.75802182  1
  Pb  Pb80  1  0.24670953  -0.00597054  -0.00064194  1
  Pb  Pb81  1  0.25665916  0.00475679  0.25394498  1
  Pb  Pb82  1  0.25284200  -0.00227813  0.50438180  1
  Pb  Pb83  1  0.24418993  0.00450242  0.74840301  1
  Pb  Pb84  1  0.25991282  0.24536825  0.00259761  1
  Pb  Pb85  1  0.25419725  0.24514789  0.25804440  1
  Pb  Pb86  1  0.24573090  0.24988949  0.50022628  1
  Pb  Pb87  1  0.24488520  0.24571348  0.74560028  1
  Pb  Pb88  1  0.24880547  0.50550920  -0.00185851  1
  Pb  Pb89  1  0.25783047  0.50684327  0.25624466  1
  Pb  Pb90  1  0.24644001  0.49955633  0.50387814  1
  Pb  Pb91  1  0.25451299  0.50643622  0.75171478  1
  Pb  Pb92  1  0.23620845  0.74721743  -0.00098897  1
  Pb  Pb93  1  0.25552536  0.74429280  0.25178095  1
  Pb  Pb94  1  0.25232589  0.75084128  0.50665749  1
  Pb  Pb95  1  0.25342797  0.74034425  0.75181937  1
  Pb  Pb96  1  0.50245090  0.01049484  0.00956120  1
  Pb  Pb97  1  0.49975018  0.00460468  0.25712865  1
  Pb  Pb98  1  0.50097946  -0.00602815  0.49948487  1
  Pb  Pb99  1  0.49419011  -0.00048048  0.73717635  1
  Pb  Pb100  1  0.50135866  0.24016416  0.01002410  1
  Pb  Pb101  1  0.50117342  0.24324143  0.25959315  1
  Pb  Pb102  1  0.50412557  0.24462977  0.49073538  1
  Pb  Pb103  1  0.50197700  0.25701795  0.74351807  1
  Pb  Pb104  1  0.50336291  0.50121142  -0.00666300  1
  Pb  Pb105  1  0.51168301  0.50478632  0.26477160  1
  Pb  Pb106  1  0.50770722  0.50120651  0.50177379  1
  Pb  Pb107  1  0.50775921  0.50193060  0.73973825  1
  Pb  Pb108  1  0.50022432  0.75032912  -0.00712866  1
  Pb  Pb109  1  0.50174686  0.73837303  0.26295962  1
  Pb  Pb110  1  0.49924277  0.74363905  0.50633498  1
  Pb  Pb111  1  0.49729306  0.74458760  0.73158145  1
  Pb  Pb112  1  0.75553316  -0.00608789  -0.00163760  1
  Pb  Pb113  1  0.75242820  0.00697276  0.25387714  1
  Pb  Pb114  1  0.74941717  -0.00411150  0.50032103  1
  Pb  Pb115  1  0.75592662  0.00065243  0.74835115  1
  Pb  Pb116  1  0.74510747  0.25186195  -0.00212659  1
  Pb  Pb117  1  0.75076452  0.26048391  0.25929699  1
  Pb  Pb118  1  0.75038297  0.24964613  0.48710759  1
  Pb  Pb119  1  0.75769704  0.25290560  0.75139360  1
  Pb  Pb120  1  0.74828268  0.50300445  -0.01279061  1
  Pb  Pb121  1  0.74508178  0.49843262  0.25689018  1
  Pb  Pb122  1  0.74098571  0.49322667  0.50382867  1
  Pb  Pb123  1  0.74102713  0.50598407  0.74657419  1
  Pb  Pb124  1  0.76600174  0.74465045  -0.00812283  1
  Pb  Pb125  1  0.74982577  0.74458336  0.24979896  1
  Pb  Pb126  1  0.75777796  0.73883051  0.51588553  1
  Pb  Pb127  1  0.74304976  0.74803665  0.74026610  1
  O  O128  1  0.12889154  0.00951504  0.16212274  1
  O  O129  1  0.12460627  0.00072648  0.41085672  1
  O  O130  1  0.12153659  0.01053921  0.66392492  1
  O  O131  1  0.13168968  0.00188820  0.91510903  1
  O  O132  1  0.12664681  0.24865906  0.17010878  1
  O  O133  1  0.12143505  0.24810262  0.41127689  1
  O  O134  1  0.12316724  0.24577323  0.66362373  1
  O  O135  1  0.13305324  0.25666345  0.91743365  1
  O  O136  1  0.12785350  0.49386016  0.16613155  1
  O  O137  1  0.11982292  0.50533059  0.41721826  1
  O  O138  1  0.12461898  0.49923051  0.66228195  1
  O  O139  1  0.13416220  0.48818604  0.91200170  1
  O  O140  1  0.13084601  0.74822360  0.16249053  1
  O  O141  1  0.12281777  0.74646099  0.41371903  1
  O  O142  1  0.12692539  0.75060795  0.66326056  1
  O  O143  1  0.13201970  0.75252122  0.90633447  1
  O  O144  1  0.37686584  -0.00646671  0.16599667  1
  O  O145  1  0.36492708  -0.00719642  0.41382832  1
  O  O146  1  0.37254007  0.00680285  0.65746487  1
  O  O147  1  0.37991734  0.00171114  0.91600144  1
  O  O148  1  0.37727347  0.25982702  0.17181522  1
  O  O149  1  0.36775237  0.25887771  0.41215871  1
  O  O150  1  0.37256196  0.25215439  0.65801629  1
  O  O151  1  0.37791989  0.24844988  0.91792885  1
  O  O152  1  0.37759417  0.49741821  0.17178436  1
  O  O153  1  0.36835567  0.49147446  0.41704666  1
  O  O154  1  0.37109208  0.49039934  0.65275365  1
  O  O155  1  0.37730421  0.49118105  0.90769490  1
  O  O156  1  0.37727603  0.74904673  0.16994216  1
  O  O157  1  0.36692535  0.75684514  0.41897452  1
  O  O158  1  0.36858435  0.75194317  0.65479950  1
  O  O159  1  0.38252588  0.76159113  0.90494058  1
  O  O160  1  0.61946355  -0.01106185  0.16735817  1
  O  O161  1  0.62328670  -0.00790618  0.41303446  1
  O  O162  1  0.62826260  0.01372717  0.65929708  1
  O  O163  1  0.62041114  0.00278046  0.91769812  1
  O  O164  1  0.62327800  0.25781030  0.17030963  1
  O  O165  1  0.62584084  0.24806238  0.40533051  1
  O  O166  1  0.62927210  0.24271340  0.65944791  1
  O  O167  1  0.61857946  0.24192541  0.91352540  1
  O  O168  1  0.62360290  0.50011177  0.17109601  1
  O  O169  1  0.62564232  0.50042442  0.41683543  1
  O  O170  1  0.62349175  0.49535683  0.65511027  1
  O  O171  1  0.61865072  0.49801342  0.91034122  1
  O  O172  1  0.62054740  0.75199769  0.17097798  1
  O  O173  1  0.62237586  0.75932916  0.41984661  1
  O  O174  1  0.62519931  0.75199187  0.65246888  1
  O  O175  1  0.61710917  0.76079157  0.90370957  1
  O  O176  1  0.87645486  0.00516779  0.16112711  1
  O  O177  1  0.87987499  -0.00803987  0.41664389  1
  O  O178  1  0.87950906  0.01133736  0.66422175  1
  O  O179  1  0.87023532  0.00255944  0.91310980  1
  O  O180  1  0.87521745  0.24638911  0.16788732  1
  O  O181  1  0.87947911  0.24758876  0.40779163  1
  O  O182  1  0.87604466  0.24853885  0.66353523  1
  O  O183  1  0.87284041  0.25019593  0.92169211  1
  O  O184  1  0.87253872  0.49775482  0.16433026  1
  O  O185  1  0.87993000  0.50921704  0.41005075  1
  O  O186  1  0.88134401  0.49182779  0.65868671  1
  O  O187  1  0.87482918  0.49666926  0.91032540  1
  O  O188  1  0.87213835  0.74965406  0.16377931  1
  O  O189  1  0.88038562  0.75092289  0.42158918  1
  O  O190  1  0.87968705  0.75160664  0.67030211  1
  O  O191  1  0.87288734  0.75157840  0.90081624  1
  O  O192  1  0.00358290  0.12756018  0.16292841  1
  O  O193  1  0.00723524  0.12234107  0.41394893  1
  O  O194  1  -0.00138870  0.13013283  0.66325391  1
  O  O195  1  0.00279970  0.12827888  0.91477574  1
  O  O196  1  0.00116211  0.37286631  0.16560270  1
  O  O197  1  0.00153031  0.37812261  0.41518291  1
  O  O198  1  -0.00443843  0.36974531  0.66496639  1
  O  O199  1  0.00993609  0.37177445  0.90720734  1
  O  O200  1  0.00092651  0.62147949  0.16003843  1
  O  O201  1  0.00095283  0.62806734  0.41899171  1
  O  O202  1  0.01002391  0.62571589  0.67000199  1
  O  O203  1  0.00265147  0.62216741  0.90397010  1
  O  O204  1  0.00190527  0.87710230  0.15801112  1
  O  O205  1  0.00431975  0.87394588  0.41896928  1
  O  O206  1  0.00969681  0.88016834  0.67239909  1
  O  O207  1  0.00108061  0.87810781  0.90213166  1
  O  O208  1  0.24646734  0.12907427  0.16844282  1
  O  O209  1  0.23724037  0.12624388  0.41624622  1
  O  O210  1  0.24259485  0.12830914  0.65551826  1
  O  O211  1  0.25795951  0.12719407  0.91698248  1
  O  O212  1  0.25558872  0.37572392  0.16829022  1
  O  O213  1  0.24606138  0.37653070  0.41577985  1
  O  O214  1  0.25305403  0.37031446  0.65699200  1
  O  O215  1  0.25877281  0.37052087  0.91463511  1
  O  O216  1  0.25662481  0.62138616  0.16715878  1
  O  O217  1  0.23671064  0.62421250  0.41783192  1
  O  O218  1  0.24397692  0.62326958  0.66211339  1
  O  O219  1  0.25704510  0.62295023  0.91593916  1
  O  O220  1  0.26087082  0.87349225  0.16693598  1
  O  O221  1  0.24255218  0.87337782  0.41730014  1
  O  O222  1  0.24228715  0.88399532  0.66266915  1
  O  O223  1  0.26377742  0.88106937  0.90719138  1
  O  O224  1  0.49656295  0.12612381  0.17592233  1
  O  O225  1  0.49977079  0.12221338  0.40852537  1
  O  O226  1  0.50586362  0.12910816  0.64731116  1
  O  O227  1  0.50044316  0.12410371  0.92115215  1
  O  O228  1  0.50052035  0.37817314  0.17225447  1
  O  O229  1  0.49167216  0.37552244  0.40784058  1
  O  O230  1  0.49200149  0.36905154  0.65514137  1
  O  O231  1  0.49256649  0.36986202  0.91688632  1
  O  O232  1  0.50086895  0.62422306  0.17473020  1
  O  O233  1  0.49728829  0.62823544  0.41949005  1
  O  O234  1  0.49655305  0.62384320  0.64749961  1
  O  O235  1  0.49785520  0.62657649  0.91419315  1
  O  O236  1  0.49676128  0.87092386  0.17266539  1
  O  O237  1  0.49283992  0.87541389  0.41185064  1
  O  O238  1  0.49969007  0.88148274  0.65666833  1
  O  O239  1  0.50061981  0.88263409  0.91748882  1
  O  O240  1  0.75466760  0.12340468  0.16312759  1
  O  O241  1  0.75164327  0.11719627  0.41003132  1
  O  O242  1  0.75461956  0.12776003  0.65892090  1
  O  O243  1  0.74014141  0.12537047  0.91362790  1
  O  O244  1  0.74564560  0.37553766  0.16853833  1
  O  O245  1  0.75535365  0.37739779  0.41190611  1
  O  O246  1  0.75874948  0.37147792  0.65760097  1
  O  O247  1  0.74353500  0.37013808  0.91200651  1
  O  O248  1  0.74414563  0.62581991  0.16548839  1
  O  O249  1  0.76076914  0.63263960  0.41539707  1
  O  O250  1  0.74964996  0.62227884  0.66084025  1
  O  O251  1  0.74595250  0.62458362  0.90442619  1
  O  O252  1  0.74172376  0.87343721  0.16421240  1
  O  O253  1  0.75274736  0.87409334  0.41273569  1
  O  O254  1  0.74815576  0.88203570  0.66258463  1
  O  O255  1  0.73764508  0.88113429  0.90556376  1
  O  O256  1  0.12950399  0.13174431  0.05044402  1
  O  O257  1  0.12479430  0.12094682  0.29693929  1
  O  O258  1  0.11784614  0.12582021  0.54738235  1
  O  O259  1  0.13372159  0.12841413  0.78604562  1
  O  O260  1  0.12906718  0.37223388  0.05021779  1
  O  O261  1  0.12481024  0.37861166  0.30128602  1
  O  O262  1  0.11897516  0.37483169  0.53316006  1
  O  O263  1  0.13089353  0.36986023  0.79613614  1
  O  O264  1  0.13443304  0.62292071  0.03196494  1
  O  O265  1  0.12113566  0.62519534  0.30082176  1
  O  O266  1  0.12133060  0.62022225  0.55260674  1
  O  O267  1  0.14251166  0.61968198  0.78302219  1
  O  O268  1  0.13736593  0.87541913  0.03422479  1
  O  O269  1  0.12567350  0.87365837  0.29634362  1
  O  O270  1  0.11986427  0.87614224  0.55673804  1
  O  O271  1  0.13240369  0.88796576  0.77844048  1
  O  O272  1  0.38122667  0.13206790  0.04325042  1
  O  O273  1  0.36242820  0.12507234  0.29339253  1
  O  O274  1  0.36636054  0.12802482  0.52226208  1
  O  O275  1  0.37856913  0.12710650  0.80072230  1
  O  O276  1  0.37743781  0.37804358  0.05648860  1
  O  O277  1  0.36983822  0.37907428  0.29755155  1
  O  O278  1  0.37052820  0.37028580  0.53979658  1
  O  O279  1  0.37829551  0.36800714  0.79722050  1
  O  O280  1  0.38121706  0.62433571  0.05248575  1
  O  O281  1  0.36696507  0.62567182  0.29865388  1
  O  O282  1  0.36131315  0.62564996  0.52637994  1
  O  O283  1  0.36693359  0.62375101  0.77961960  1
  O  O284  1  0.38097649  0.87088299  0.05301375  1
  O  O285  1  0.37054647  0.87204127  0.30395087  1
  O  O286  1  0.36595242  0.88023156  0.52971996  1
  O  O287  1  0.38377088  0.88424343  0.79417346  1
  O  O288  1  0.61299402  0.12598364  0.04880192  1
  O  O289  1  0.62797663  0.11533872  0.27757109  1
  O  O290  1  0.62984277  0.12573637  0.53940907  1
  O  O291  1  0.62035990  0.12223756  0.80054747  1
  O  O292  1  0.62061475  0.37775029  0.05853443  1
  O  O293  1  0.63058620  0.38423559  0.28676041  1
  O  O294  1  0.62799149  0.37438015  0.53011725  1
  O  O295  1  0.61091272  0.37100336  0.78003008  1
  O  O296  1  0.61905599  0.62601797  0.05168048  1
  O  O297  1  0.62298201  0.62869780  0.29682820  1
  O  O298  1  0.63287507  0.62523388  0.52600900  1
  O  O299  1  0.61924528  0.61779684  0.77646674  1
  O  O300  1  0.62141143  0.87067722  0.05265829  1
  O  O301  1  0.62879270  0.87160859  0.30479953  1
  O  O302  1  0.62543782  0.88728708  0.52789754  1
  O  O303  1  0.61515909  0.88509567  0.79441366  1
  O  O304  1  0.87427426  0.13017766  0.05197517  1
  O  O305  1  0.87966190  0.11621717  0.28249503  1
  O  O306  1  0.87702557  0.12621180  0.54862004  1
  O  O307  1  0.87161455  0.13657393  0.78520614  1
  O  O308  1  0.87196254  0.37190951  0.05278310  1
  O  O309  1  0.87502134  0.37214136  0.28049104  1
  O  O310  1  0.88080988  0.37181857  0.54674639  1
  O  O311  1  0.87638725  0.36679068  0.78345397  1
  O  O312  1  0.87364008  0.62697045  0.03161876  1
  O  O313  1  0.87688523  0.63074077  0.30161376  1
  O  O314  1  0.88020614  0.63463625  0.54466328  1
  O  O315  1  0.87904038  0.61455201  0.77403286  1
  O  O316  1  0.86570478  0.87255284  0.03136227  1
  O  O317  1  0.87977598  0.87203139  0.29970291  1
  O  O318  1  0.88840437  0.87579097  0.54676309  1
  O  O319  1  0.87534572  0.88778590  0.77597370  1
