# generated using pymatgen
data_VFe(PbO3)2
_symmetry_space_group_name_H-M   'P 1'
_cell_length_a   15.38612789
_cell_length_b   15.38633742
_cell_length_c   18.51197584
_cell_angle_alpha   90.02556255
_cell_angle_beta   89.93015084
_cell_angle_gamma   90.00315061
_symmetry_Int_Tables_number   1
_chemical_formula_structural   VFe(PbO3)2
_chemical_formula_sum   'V32 Fe32 Pb64 O192'
_cell_volume   4382.45028708
_cell_formula_units_Z   32
loop_
 _symmetry_equiv_pos_site_id
 _symmetry_equiv_pos_as_xyz
  1  'x, y, z'
loop_
 _atom_site_type_symbol
 _atom_site_label
 _atom_site_symmetry_multiplicity
 _atom_site_fract_x
 _atom_site_fract_y
 _atom_site_fract_z
 _atom_site_occupancy
  V  V0  1  0.12614985  0.62565976  0.14000347  1
  V  V1  1  0.87456541  0.12504271  0.15001655  1
  V  V2  1  0.62816268  0.12249833  0.89537803  1
  V  V3  1  0.37014012  0.37566345  0.13271559  1
  V  V4  1  0.87510019  0.62360809  0.89184018  1
  V  V5  1  0.37643528  0.87765820  0.39252239  1
  V  V6  1  0.61791179  0.87753006  0.14138978  1
  V  V7  1  0.37350499  0.37742807  0.38908713  1
  V  V8  1  0.12461256  0.12364674  0.14358524  1
  V  V9  1  0.12051066  0.87467350  0.88538364  1
  V  V10  1  0.87490957  0.62523230  0.63381842  1
  V  V11  1  0.12711192  0.62480557  0.39772716  1
  V  V12  1  0.62788217  0.37542135  0.89299887  1
  V  V13  1  0.12754266  0.37246003  0.64296323  1
  V  V14  1  0.12183014  0.12285298  0.88642073  1
  V  V15  1  0.87921371  0.37668884  0.14013298  1
  V  V16  1  0.87571359  0.12496750  0.89060784  1
  V  V17  1  0.37663893  0.12678769  0.63915437  1
  V  V18  1  0.12286819  0.87497823  0.14440145  1
  V  V19  1  0.37451762  0.62504265  0.39349989  1
  V  V20  1  0.87358480  0.87594557  0.14998167  1
  V  V21  1  0.86892952  0.37766966  0.38347596  1
  V  V22  1  0.87290949  0.37557280  0.63907577  1
  V  V23  1  0.62561738  0.12712231  0.63837129  1
  V  V24  1  0.61965835  0.12620751  0.38533063  1
  V  V25  1  0.87446739  0.87470044  0.89083635  1
  V  V26  1  0.12123264  0.62816850  0.88451017  1
  V  V27  1  0.12664268  0.37776439  0.38901919  1
  V  V28  1  0.87250067  0.12797409  0.63307865  1
  V  V29  1  0.62609661  0.87354558  0.63917832  1
  V  V30  1  0.36762433  0.87408715  0.13725887  1
  V  V31  1  0.62389887  0.37170043  0.64119178  1
  Fe  Fe32  1  0.12223060  0.62126794  0.63230266  1
  Fe  Fe33  1  0.12444443  0.37362457  0.13352908  1
  Fe  Fe34  1  0.61841547  0.37597311  0.37446564  1
  Fe  Fe35  1  0.62530501  0.12220221  0.13498089  1
  Fe  Fe36  1  0.12982727  0.87329099  0.39726064  1
  Fe  Fe37  1  0.62415939  0.37397763  0.14371114  1
  Fe  Fe38  1  0.37724080  0.12693086  0.38356895  1
  Fe  Fe39  1  0.62216455  0.62286376  0.38273807  1
  Fe  Fe40  1  0.62108741  0.87160267  0.38159020  1
  Fe  Fe41  1  0.12335026  0.87673754  0.62498379  1
  Fe  Fe42  1  0.12408747  0.12906195  0.62968402  1
  Fe  Fe43  1  0.37137595  0.62848878  0.13070090  1
  Fe  Fe44  1  0.37482073  0.62500381  0.88159496  1
  Fe  Fe45  1  0.37828184  0.87618068  0.64077091  1
  Fe  Fe46  1  0.87115493  0.87599068  0.62484264  1
  Fe  Fe47  1  0.62976217  0.62590064  0.88435649  1
  Fe  Fe48  1  0.37423050  0.37257209  0.88270713  1
  Fe  Fe49  1  0.87730373  0.62791019  0.14673006  1
  Fe  Fe50  1  0.62361382  0.62745661  0.13458623  1
  Fe  Fe51  1  0.11990327  0.37577630  0.88863167  1
  Fe  Fe52  1  0.37691052  0.62250368  0.64098199  1
  Fe  Fe53  1  0.13014544  0.12848289  0.39321805  1
  Fe  Fe54  1  0.62925555  0.87464788  0.88471347  1
  Fe  Fe55  1  0.87525714  0.12953989  0.38132565  1
  Fe  Fe56  1  0.87324770  0.37208562  0.88863501  1
  Fe  Fe57  1  0.37834051  0.37199540  0.64364514  1
  Fe  Fe58  1  0.37415982  0.12603113  0.89119470  1
  Fe  Fe59  1  0.37593635  0.87695093  0.87715665  1
  Fe  Fe60  1  0.87374632  0.87422055  0.38759461  1
  Fe  Fe61  1  0.87726156  0.62070162  0.37860452  1
  Fe  Fe62  1  0.62854688  0.62111635  0.64039949  1
  Fe  Fe63  1  0.37208640  0.12216123  0.13375136  1
  Pb  Pb64  1  -0.00089924  -0.00047322  0.00121963  1
  Pb  Pb65  1  -0.00356814  -0.00146716  0.26384343  1
  Pb  Pb66  1  0.00093779  -0.00216393  0.49067642  1
  Pb  Pb67  1  0.00043236  -0.00076086  0.73533628  1
  Pb  Pb68  1  0.00166397  0.25581070  0.00265697  1
  Pb  Pb69  1  0.00255977  0.24220184  0.25520035  1
  Pb  Pb70  1  0.00411810  0.24579183  0.49777746  1
  Pb  Pb71  1  0.00013360  0.25856944  0.75388856  1
  Pb  Pb72  1  -0.00249777  0.49923345  0.00189036  1
  Pb  Pb73  1  -0.00253024  0.50379883  0.25086762  1
  Pb  Pb74  1  0.00567252  0.50149962  0.50209608  1
  Pb  Pb75  1  -0.00143775  0.48942519  0.75362575  1
  Pb  Pb76  1  -0.00691609  0.74395204  0.00664872  1
  Pb  Pb77  1  -0.00250367  0.75879900  0.26119565  1
  Pb  Pb78  1  -0.00471961  0.75877931  0.49734191  1
  Pb  Pb79  1  0.00087630  0.75300253  0.73693454  1
  Pb  Pb80  1  0.25461700  0.00086677  -0.00313154  1
  Pb  Pb81  1  0.23676726  0.00284854  0.26144846  1
  Pb  Pb82  1  0.24327779  0.00394757  0.50131805  1
  Pb  Pb83  1  0.25251406  -0.00429997  0.74240729  1
  Pb  Pb84  1  0.24908201  0.25501960  -0.00458849  1
  Pb  Pb85  1  0.25109541  0.23840475  0.25202214  1
  Pb  Pb86  1  0.25465331  0.25108377  0.50227862  1
  Pb  Pb87  1  0.25734980  0.24839227  0.75652542  1
  Pb  Pb88  1  0.25366380  0.50050452  -0.00825347  1
  Pb  Pb89  1  0.25234417  0.49787723  0.24562361  1
  Pb  Pb90  1  0.25678251  0.50535747  0.51031915  1
  Pb  Pb91  1  0.25603458  0.50127059  0.74894694  1
  Pb  Pb92  1  0.25662790  0.74847602  -0.00825728  1
  Pb  Pb93  1  0.24406049  0.75780523  0.25601636  1
  Pb  Pb94  1  0.25869742  0.75152577  0.51185599  1
  Pb  Pb95  1  0.25088227  0.74900408  0.73871600  1
  Pb  Pb96  1  0.49410044  0.00215669  -0.00233735  1
  Pb  Pb97  1  0.49213572  0.00648939  0.24807238  1
  Pb  Pb98  1  0.49686965  -0.00711188  0.50234801  1
  Pb  Pb99  1  0.49645978  -0.00047657  0.75478363  1
  Pb  Pb100  1  0.50392314  0.24996212  0.00330024  1
  Pb  Pb101  1  0.49636515  0.24880781  0.24149333  1
  Pb  Pb102  1  0.49376330  0.25971207  0.50015308  1
  Pb  Pb103  1  0.49199814  0.24619546  0.75969579  1
  Pb  Pb104  1  0.49890098  0.50915760  -0.00431658  1
  Pb  Pb105  1  0.50416232  0.50511231  0.24281469  1
  Pb  Pb106  1  0.50023267  0.50609224  0.50444727  1
  Pb  Pb107  1  0.49544043  0.50939590  0.75303402  1
  Pb  Pb108  1  0.50184358  0.74679189  -0.01264015  1
  Pb  Pb109  1  0.50615563  0.74607949  0.24857387  1
  Pb  Pb110  1  0.49633556  0.74536854  0.50537623  1
  Pb  Pb111  1  0.49265141  0.74501209  0.75122221  1
  Pb  Pb112  1  0.74745036  0.00267316  0.00482757  1
  Pb  Pb113  1  0.75046053  -0.00837008  0.25811158  1
  Pb  Pb114  1  0.75404122  -0.00411084  0.49079566  1
  Pb  Pb115  1  0.74551064  -0.00331418  0.74768513  1
  Pb  Pb116  1  0.74099227  0.25128417  0.01002523  1
  Pb  Pb117  1  0.74621762  0.25015425  0.24750012  1
  Pb  Pb118  1  0.74423969  0.25167371  0.49129147  1
  Pb  Pb119  1  0.75524994  0.25410900  0.75217484  1
  Pb  Pb120  1  0.73667586  0.49844846  0.01172038  1
  Pb  Pb121  1  0.74013172  0.51153555  0.24770628  1
  Pb  Pb122  1  0.73729514  0.50915051  0.49513840  1
  Pb  Pb123  1  0.74905130  0.50342427  0.75246025  1
  Pb  Pb124  1  0.74888839  0.73972119  0.00501356  1
  Pb  Pb125  1  0.74544632  0.75094032  0.25435950  1
  Pb  Pb126  1  0.74888463  0.74680251  0.48694923  1
  Pb  Pb127  1  0.73965712  0.75214219  0.75235760  1
  O  O128  1  0.12480771  0.00032767  0.17172368  1
  O  O129  1  0.13154619  0.00101022  0.41292390  1
  O  O130  1  0.12176121  0.00473011  0.65728717  1
  O  O131  1  0.11827785  0.00113575  0.91401649  1
  O  O132  1  0.12532489  0.24223211  0.16235770  1
  O  O133  1  0.13243754  0.26245092  0.41462475  1
  O  O134  1  0.12197540  0.25313651  0.66562695  1
  O  O135  1  0.11910932  0.23958397  0.91018837  1
  O  O136  1  0.12646346  0.50657939  0.16001485  1
  O  O137  1  0.13288895  0.49532135  0.41900678  1
  O  O138  1  0.12012886  0.49055540  0.66631766  1
  O  O139  1  0.11699216  0.51105567  0.90908622  1
  O  O140  1  0.12548250  0.75115494  0.17027829  1
  O  O141  1  0.13042503  0.73940891  0.41574371  1
  O  O142  1  0.11989941  0.74936956  0.65628857  1
  O  O143  1  0.11865396  0.74799519  0.91205805  1
  O  O144  1  0.37347037  -0.01089944  0.16390990  1
  O  O145  1  0.37861046  -0.00515662  0.41026741  1
  O  O146  1  0.38190642  0.00926356  0.66256667  1
  O  O147  1  0.37252749  -0.00070730  0.91421115  1
  O  O148  1  0.37029084  0.25464114  0.15461424  1
  O  O149  1  0.37531102  0.25854639  0.41093114  1
  O  O150  1  0.37817054  0.24295746  0.66863232  1
  O  O151  1  0.37624461  0.25038509  0.91869715  1
  O  O152  1  0.36863169  0.49669598  0.15808040  1
  O  O153  1  0.37223103  0.50049271  0.41498806  1
  O  O154  1  0.37671185  0.49565318  0.66696265  1
  O  O155  1  0.37316285  0.49872526  0.90932973  1
  O  O156  1  0.37248759  0.75928553  0.16385643  1
  O  O157  1  0.37593873  0.74484326  0.41677736  1
  O  O158  1  0.37834667  0.75030146  0.66367596  1
  O  O159  1  0.37119258  0.75186236  0.90648046  1
  O  O160  1  0.62699125  -0.00664261  0.16613663  1
  O  O161  1  0.62195298  0.00851041  0.40900375  1
  O  O162  1  0.62897553  0.00394462  0.66488111  1
  O  O163  1  0.63040967  0.00463311  0.91563314  1
  O  O164  1  0.62479370  0.24722444  0.16381327  1
  O  O165  1  0.62148910  0.24986105  0.40929689  1
  O  O166  1  0.63026240  0.25141680  0.66857678  1
  O  O167  1  0.62906799  0.24877546  0.91902297  1
  O  O168  1  0.62386573  0.50054873  0.16081654  1
  O  O169  1  0.62093791  0.49633916  0.41185860  1
  O  O170  1  0.63083378  0.48816721  0.66604995  1
  O  O171  1  0.63022076  0.49418053  0.91277732  1
  O  O172  1  0.62741465  0.75921255  0.16237296  1
  O  O173  1  0.62078544  0.74689868  0.41214578  1
  O  O174  1  0.63090811  0.75617664  0.65680641  1
  O  O175  1  0.63166443  0.75020522  0.91359473  1
  O  O176  1  0.87863804  -0.00239681  0.17321625  1
  O  O177  1  0.87326194  0.00526015  0.40876170  1
  O  O178  1  0.87021293  0.00931240  0.65252845  1
  O  O179  1  0.87638209  0.00148024  0.92009919  1
  O  O180  1  0.87993252  0.25113504  0.16647121  1
  O  O181  1  0.87756899  0.26217460  0.41347589  1
  O  O182  1  0.87162058  0.24787332  0.66472359  1
  O  O183  1  0.87530561  0.24279085  0.91712441  1
  O  O184  1  0.88252580  0.49370496  0.16120208  1
  O  O185  1  0.88123256  0.49002894  0.41170567  1
  O  O186  1  0.87401510  0.49785658  0.66350432  1
  O  O187  1  0.87956850  0.50711749  0.91170661  1
  O  O188  1  0.87916898  0.75892466  0.17027050  1
  O  O189  1  0.87760617  0.74408302  0.40703498  1
  O  O190  1  0.87438960  0.74261968  0.65096470  1
  O  O191  1  0.87682209  0.74906761  0.91851537  1
  O  O192  1  0.00598520  0.12171281  0.17123463  1
  O  O193  1  0.00061264  0.13290252  0.41186951  1
  O  O194  1  -0.01022930  0.12867515  0.65292733  1
  O  O195  1  0.00101639  0.12134391  0.91767403  1
  O  O196  1  -0.00121947  0.37201119  0.16633784  1
  O  O197  1  0.01005073  0.37704210  0.40977030  1
  O  O198  1  -0.00210085  0.37123935  0.66491541  1
  O  O199  1  -0.00412215  0.37434160  0.92148808  1
  O  O200  1  0.01149516  0.62923848  0.16910841  1
  O  O201  1  0.00877613  0.61582619  0.41157781  1
  O  O202  1  -0.00898945  0.61956360  0.66063368  1
  O  O203  1  -0.00191372  0.62992617  0.91815506  1
  O  O204  1  0.00072117  0.87721682  0.17237090  1
  O  O205  1  0.00160610  0.87310188  0.41016751  1
  O  O206  1  -0.00554928  0.87757604  0.65572299  1
  O  O207  1  -0.00232682  0.87560734  0.92098223  1
  O  O208  1  0.24420954  0.12070327  0.16405547  1
  O  O209  1  0.25737352  0.12835839  0.41901876  1
  O  O210  1  0.25816288  0.12617976  0.65680417  1
  O  O211  1  0.23823503  0.12214769  0.91008041  1
  O  O212  1  0.25178822  0.37492611  0.16274916  1
  O  O213  1  0.25384018  0.37854926  0.41687380  1
  O  O214  1  0.24375714  0.37082516  0.66351743  1
  O  O215  1  0.24592473  0.37265788  0.91017242  1
  O  O216  1  0.24366877  0.62961772  0.16571429  1
  O  O217  1  0.25400655  0.62195725  0.42223177  1
  O  O218  1  0.24642340  0.62116338  0.66283876  1
  O  O219  1  0.23853938  0.62724887  0.90390464  1
  O  O220  1  0.25028285  0.87482432  0.16641018  1
  O  O221  1  0.26229333  0.86954535  0.41967827  1
  O  O222  1  0.24897917  0.87930368  0.65753855  1
  O  O223  1  0.23975067  0.87626253  0.90645151  1
  O  O224  1  0.49779102  0.12060761  0.16168706  1
  O  O225  1  0.50365192  0.12829264  0.41383525  1
  O  O226  1  0.50275467  0.12786550  0.66677756  1
  O  O227  1  0.50895158  0.12560454  0.91398576  1
  O  O228  1  0.48709815  0.37533565  0.15654575  1
  O  O229  1  0.49150727  0.37811752  0.40972413  1
  O  O230  1  0.51044161  0.36925537  0.66503432  1
  O  O231  1  0.50945736  0.37265705  0.91392179  1
  O  O232  1  0.49574320  0.62952041  0.15916347  1
  O  O233  1  0.49132709  0.62087812  0.41384716  1
  O  O234  1  0.50572055  0.62263973  0.66681651  1
  O  O235  1  0.50260632  0.62355374  0.90662016  1
  O  O236  1  0.49915518  0.87523204  0.15585586  1
  O  O237  1  0.49496298  0.87212609  0.41671986  1
  O  O238  1  0.51176978  0.87997037  0.66531600  1
  O  O239  1  0.50202783  0.87695853  0.90908582  1
  O  O240  1  0.75305320  0.12230068  0.16796489  1
  O  O241  1  0.74205254  0.13206276  0.40844099  1
  O  O242  1  0.75201569  0.12865961  0.66463752  1
  O  O243  1  0.75034243  0.12440412  0.91936241  1
  O  O244  1  0.76268842  0.37311762  0.16381426  1
  O  O245  1  0.75295540  0.37416098  0.39753466  1
  O  O246  1  0.74952050  0.37104543  0.66785486  1
  O  O247  1  0.74721511  0.37276785  0.91919915  1
  O  O248  1  0.75024528  0.62823346  0.16401541  1
  O  O249  1  0.75153376  0.61798680  0.40577792  1
  O  O250  1  0.75900792  0.62005258  0.66359606  1
  O  O251  1  0.75919726  0.62531149  0.91520801  1
  O  O252  1  0.75356853  0.87737607  0.16639818  1
  O  O253  1  0.74499018  0.87555335  0.41019234  1
  O  O254  1  0.74745130  0.87898550  0.66105998  1
  O  O255  1  0.75787271  0.87716686  0.91988778  1
  O  O256  1  0.12094258  0.11838327  0.05286535  1
  O  O257  1  0.13578582  0.12938969  0.29116956  1
  O  O258  1  0.12787912  0.13419929  0.52966862  1
  O  O259  1  0.11966341  0.12015391  0.79553206  1
  O  O260  1  0.12037259  0.37156907  0.03404596  1
  O  O261  1  0.13121013  0.37908919  0.29777885  1
  O  O262  1  0.12449351  0.37384281  0.55162803  1
  O  O263  1  0.10923017  0.37247817  0.78820401  1
  O  O264  1  0.12427024  0.63058873  0.04900904  1
  O  O265  1  0.13430273  0.61926660  0.30685136  1
  O  O266  1  0.12439419  0.61120559  0.53267613  1
  O  O267  1  0.11367415  0.63013695  0.79386674  1
  O  O268  1  0.12337286  0.87524517  0.05379591  1
  O  O269  1  0.13669099  0.87028877  0.29453639  1
  O  O270  1  0.12602081  0.87400383  0.52382427  1
  O  O271  1  0.11204152  0.87659370  0.79468929  1
  O  O272  1  0.37085322  0.11306905  0.03345938  1
  O  O273  1  0.37475970  0.12615416  0.28323490  1
  O  O274  1  0.38377699  0.13053090  0.54791339  1
  O  O275  1  0.37702320  0.13148424  0.79035961  1
  O  O276  1  0.36666261  0.37827461  0.04139250  1
  O  O277  1  0.36938818  0.38018023  0.29825307  1
  O  O278  1  0.38033829  0.36565892  0.54332093  1
  O  O279  1  0.37459538  0.36194782  0.78159751  1
  O  O280  1  0.36595778  0.62882343  0.03081497  1
  O  O281  1  0.37047945  0.62557468  0.30265789  1
  O  O282  1  0.37930014  0.62259228  0.53875333  1
  O  O283  1  0.37731448  0.62326349  0.77996445  1
  O  O284  1  0.36347388  0.87432038  0.04592402  1
  O  O285  1  0.37474049  0.87129381  0.30149597  1
  O  O286  1  0.38723833  0.87269334  0.53983055  1
  O  O287  1  0.37809547  0.88558512  0.77614107  1
  O  O288  1  0.62945781  0.12404484  0.03502006  1
  O  O289  1  0.61765787  0.12642143  0.29422330  1
  O  O290  1  0.62455821  0.12938448  0.54771459  1
  O  O291  1  0.63128244  0.12481951  0.80437559  1
  O  O292  1  0.63298800  0.37254772  0.04154554  1
  O  O293  1  0.61864739  0.37597392  0.27402421  1
  O  O294  1  0.62593477  0.37009285  0.54963352  1
  O  O295  1  0.63140963  0.37027239  0.80222387  1
  O  O296  1  0.63037941  0.62218111  0.03283292  1
  O  O297  1  0.61793041  0.62469385  0.28110027  1
  O  O298  1  0.62739299  0.61107792  0.53947786  1
  O  O299  1  0.63869964  0.62482262  0.78274985  1
  O  O300  1  0.62817477  0.87973879  0.05078971  1
  O  O301  1  0.62313414  0.87101032  0.28171523  1
  O  O302  1  0.62266951  0.88087935  0.54812994  1
  O  O303  1  0.63994148  0.87577070  0.78481299  1
  O  O304  1  0.88012409  0.12186444  0.05881698  1
  O  O305  1  0.88165254  0.13129463  0.28129786  1
  O  O306  1  0.86585342  0.13649991  0.54228276  1
  O  O307  1  0.87580757  0.12234239  0.79979175  1
  O  O308  1  0.88053164  0.37397058  0.04850133  1
  O  O309  1  0.88146901  0.37710456  0.29307984  1
  O  O310  1  0.87233556  0.37424560  0.54836532  1
  O  O311  1  0.87788809  0.36887684  0.78856667  1
  O  O312  1  0.88280411  0.63359288  0.04579304  1
  O  O313  1  0.88328875  0.61815375  0.27761850  1
  O  O314  1  0.87484921  0.61703038  0.54275882  1
  O  O315  1  0.87680524  0.62855695  0.80113088  1
  O  O316  1  0.87767345  0.87823130  0.05906195  1
  O  O317  1  0.87541840  0.87841394  0.28545916  1
  O  O318  1  0.87185703  0.87454389  0.52505946  1
  O  O319  1  0.87564102  0.87540007  0.79982218  1
