# generated using pymatgen
data_VFe(PbO3)2
_symmetry_space_group_name_H-M   'P 1'
_cell_length_a   15.39040160
_cell_length_b   15.38371905
_cell_length_c   18.44878659
_cell_angle_alpha   90.02545533
_cell_angle_beta   89.97175559
_cell_angle_gamma   90.01039352
_symmetry_Int_Tables_number   1
_chemical_formula_structural   VFe(PbO3)2
_chemical_formula_sum   'V32 Fe32 Pb64 O192'
_cell_volume   4367.96345891
_cell_formula_units_Z   32
loop_
 _symmetry_equiv_pos_site_id
 _symmetry_equiv_pos_as_xyz
  1  'x, y, z'
loop_
 _atom_site_type_symbol
 _atom_site_label
 _atom_site_symmetry_multiplicity
 _atom_site_fract_x
 _atom_site_fract_y
 _atom_site_fract_z
 _atom_site_occupancy
  V  V0  1  0.37782164  0.12664491  0.63817319  1
  V  V1  1  0.12544447  0.12584815  0.63826532  1
  V  V2  1  0.12598657  0.38172382  0.89451478  1
  V  V3  1  0.86803284  0.87328916  0.13896015  1
  V  V4  1  0.87656074  0.62481917  0.38835947  1
  V  V5  1  0.62343119  0.62307374  0.64050570  1
  V  V6  1  0.12354385  0.87577759  0.88689965  1
  V  V7  1  0.37344084  0.12528849  0.39034849  1
  V  V8  1  0.87616411  0.12520758  0.39334944  1
  V  V9  1  0.37404768  0.87638493  0.39479363  1
  V  V10  1  0.62230839  0.12474429  0.88574219  1
  V  V11  1  0.37343794  0.87976557  0.88821653  1
  V  V12  1  0.12508188  0.87461187  0.13844728  1
  V  V13  1  0.62697046  0.12114676  0.13611194  1
  V  V14  1  0.12391758  0.62719441  0.14017453  1
  V  V15  1  0.37156603  0.63104620  0.88662972  1
  V  V16  1  0.12174741  0.62209177  0.63929199  1
  V  V17  1  0.62677557  0.37570335  0.38856120  1
  V  V18  1  0.12825050  0.13135632  0.89769129  1
  V  V19  1  0.37610047  0.37355483  0.38883726  1
  V  V20  1  0.12570357  0.87498019  0.64018442  1
  V  V21  1  0.12435213  0.37466969  0.39190241  1
  V  V22  1  0.37506394  0.12871285  0.89488133  1
  V  V23  1  0.37367971  0.37876669  0.89194123  1
  V  V24  1  0.12406475  0.12486353  0.39182175  1
  V  V25  1  0.87511143  0.37431165  0.38743378  1
  V  V26  1  0.37482419  0.62486150  0.39337971  1
  V  V27  1  0.86937469  0.62406563  0.64252855  1
  V  V28  1  0.62631358  0.37385514  0.64202559  1
  V  V29  1  0.37668585  0.62831236  0.13921757  1
  V  V30  1  0.87644470  0.62656395  0.88785953  1
  V  V31  1  0.12433784  0.87498196  0.39379799  1
  Fe  Fe32  1  0.87735885  0.87314368  0.64659874  1
  Fe  Fe33  1  0.62687423  0.12661511  0.39691299  1
  Fe  Fe34  1  0.62184119  0.62459953  0.88895345  1
  Fe  Fe35  1  0.62498726  0.12849394  0.62843650  1
  Fe  Fe36  1  0.62452611  0.87559143  0.63463665  1
  Fe  Fe37  1  0.87428511  0.37572177  0.12714308  1
  Fe  Fe38  1  0.87691327  0.37500349  0.89100122  1
  Fe  Fe39  1  0.12477925  0.37305855  0.63367327  1
  Fe  Fe40  1  0.12297121  0.12175277  0.12664309  1
  Fe  Fe41  1  0.87573969  0.62871753  0.13165989  1
  Fe  Fe42  1  0.37280763  0.87347796  0.63221685  1
  Fe  Fe43  1  0.62682572  0.62165491  0.38734510  1
  Fe  Fe44  1  0.62689400  0.87346668  0.39284561  1
  Fe  Fe45  1  0.37490336  0.37743907  0.63609267  1
  Fe  Fe46  1  0.87415480  0.12007417  0.12781357  1
  Fe  Fe47  1  0.37531162  0.62403632  0.63394105  1
  Fe  Fe48  1  0.62383628  0.37487020  0.12655076  1
  Fe  Fe49  1  0.87475920  0.87441945  0.87565653  1
  Fe  Fe50  1  0.37548138  0.12099134  0.13131686  1
  Fe  Fe51  1  0.87833159  0.87550104  0.38608871  1
  Fe  Fe52  1  0.12589987  0.37589392  0.12906256  1
  Fe  Fe53  1  0.12851602  0.62885915  0.88512900  1
  Fe  Fe54  1  0.62254858  0.37344270  0.89422932  1
  Fe  Fe55  1  0.87585443  0.37884436  0.64348149  1
  Fe  Fe56  1  0.62232471  0.87622233  0.88275292  1
  Fe  Fe57  1  0.62599502  0.62836405  0.12977352  1
  Fe  Fe58  1  0.12370850  0.62367064  0.38853490  1
  Fe  Fe59  1  0.37462740  0.37631576  0.13607780  1
  Fe  Fe60  1  0.87497712  0.12762824  0.63911840  1
  Fe  Fe61  1  0.62229393  0.87494749  0.13317780  1
  Fe  Fe62  1  0.87527828  0.12323981  0.88781481  1
  Fe  Fe63  1  0.37358187  0.87244871  0.13699796  1
  Pb  Pb64  1  -0.00122987  0.00502843  -0.00121563  1
  Pb  Pb65  1  -0.00662369  -0.00353878  0.24807154  1
  Pb  Pb66  1  -0.01298538  0.00073188  0.50940058  1
  Pb  Pb67  1  -0.01067190  0.00551266  0.75391864  1
  Pb  Pb68  1  -0.00927333  0.25039235  0.00366405  1
  Pb  Pb69  1  -0.00039428  0.24783202  0.23410891  1
  Pb  Pb70  1  -0.00484579  0.25180753  0.50612687  1
  Pb  Pb71  1  -0.01106647  0.25538347  0.75599179  1
  Pb  Pb72  1  -0.00935364  0.50411909  0.00401148  1
  Pb  Pb73  1  -0.00282875  0.49818482  0.24259147  1
  Pb  Pb74  1  -0.00027729  0.48936888  0.50282972  1
  Pb  Pb75  1  -0.00246932  0.49394712  0.75457501  1
  Pb  Pb76  1  -0.00682227  0.74636941  -0.00205434  1
  Pb  Pb77  1  -0.00549126  0.75476089  0.25408027  1
  Pb  Pb78  1  -0.00676676  0.75537530  0.50385323  1
  Pb  Pb79  1  0.00357311  0.74615087  0.75383613  1
  Pb  Pb80  1  0.25254078  0.00433401  0.00544628  1
  Pb  Pb81  1  0.25238149  0.00362469  0.24471006  1
  Pb  Pb82  1  0.25245115  -0.00200569  0.50307751  1
  Pb  Pb83  1  0.24902779  0.00357304  0.75035579  1
  Pb  Pb84  1  0.25015520  0.25813072  0.01021538  1
  Pb  Pb85  1  0.24740708  0.24881003  0.23777150  1
  Pb  Pb86  1  0.24754689  0.25903979  0.50199377  1
  Pb  Pb87  1  0.24989909  0.25483526  0.74906547  1
  Pb  Pb88  1  0.25165780  0.49326234  0.00505464  1
  Pb  Pb89  1  0.24487750  0.50268219  0.25023674  1
  Pb  Pb90  1  0.25417188  0.49723102  0.50346831  1
  Pb  Pb91  1  0.25079154  0.50188716  0.74624921  1
  Pb  Pb92  1  0.25635021  0.75802119  0.00186100  1
  Pb  Pb93  1  0.24347152  0.74363463  0.25562626  1
  Pb  Pb94  1  0.25846739  0.74663430  0.50503683  1
  Pb  Pb95  1  0.24939820  0.74512534  0.74780317  1
  Pb  Pb96  1  0.49587496  -0.00394650  0.00234582  1
  Pb  Pb97  1  0.50422984  -0.00431821  0.25060918  1
  Pb  Pb98  1  0.51125590  -0.00279131  0.50359386  1
  Pb  Pb99  1  0.50833482  -0.00506578  0.74325336  1
  Pb  Pb100  1  0.49450914  0.25182664  0.00420796  1
  Pb  Pb101  1  0.50132232  0.24700643  0.24264434  1
  Pb  Pb102  1  0.50272671  0.24994280  0.50086586  1
  Pb  Pb103  1  0.50697136  0.25745502  0.75317744  1
  Pb  Pb104  1  0.50864809  0.50150683  0.00337363  1
  Pb  Pb105  1  0.50798155  0.50271597  0.24415036  1
  Pb  Pb106  1  0.49064348  0.49910467  0.50309177  1
  Pb  Pb107  1  0.50694608  0.50063250  0.75630151  1
  Pb  Pb108  1  0.51020012  0.75455811  0.00231935  1
  Pb  Pb109  1  0.50950830  0.75463239  0.25179590  1
  Pb  Pb110  1  0.50384955  0.75431355  0.50163956  1
  Pb  Pb111  1  0.50445435  0.75386453  0.74713421  1
  Pb  Pb112  1  0.75280519  -0.00466316  -0.01067247  1
  Pb  Pb113  1  0.73324579  0.00171505  0.26183110  1
  Pb  Pb114  1  0.74961986  -0.00758291  0.50456258  1
  Pb  Pb115  1  0.75174582  0.00133297  0.74113690  1
  Pb  Pb116  1  0.75345134  0.25323593  -0.00505378  1
  Pb  Pb117  1  0.75031595  0.24824578  0.23983311  1
  Pb  Pb118  1  0.76017699  0.24495247  0.50784515  1
  Pb  Pb119  1  0.75931659  0.24761427  0.75265935  1
  Pb  Pb120  1  0.74882816  0.49728930  -0.00364980  1
  Pb  Pb121  1  0.74779311  0.50355574  0.23571111  1
  Pb  Pb122  1  0.75715115  0.49304250  0.50137903  1
  Pb  Pb123  1  0.73795937  0.49766184  0.76272213  1
  Pb  Pb124  1  0.74140133  0.75108646  -0.00627746  1
  Pb  Pb125  1  0.73961519  0.74738312  0.25040972  1
  Pb  Pb126  1  0.74776788  0.75765928  0.50077500  1
  Pb  Pb127  1  0.74394289  0.76010887  0.75272722  1
  O  O128  1  0.12401673  -0.00913258  0.15973053  1
  O  O129  1  0.12630315  -0.00110359  0.41900547  1
  O  O130  1  0.12969573  0.00166283  0.66423676  1
  O  O131  1  0.13070980  -0.00976673  0.91458065  1
  O  O132  1  0.12537142  0.24856595  0.15407303  1
  O  O133  1  0.12536620  0.24819806  0.41835615  1
  O  O134  1  0.12895591  0.24208527  0.66105814  1
  O  O135  1  0.13011945  0.24709583  0.91362196  1
  O  O136  1  0.12645528  0.50843286  0.16047534  1
  O  O137  1  0.12526255  0.49552068  0.41459944  1
  O  O138  1  0.12456301  0.50643105  0.65878502  1
  O  O139  1  0.13151948  0.49758459  0.90960076  1
  O  O140  1  0.12664822  0.74925676  0.16680626  1
  O  O141  1  0.12427105  0.75687816  0.41598416  1
  O  O142  1  0.12540098  0.75330020  0.66140524  1
  O  O143  1  0.13226706  0.75796526  0.91327006  1
  O  O144  1  0.37319302  -0.00225065  0.16720447  1
  O  O145  1  0.37013006  0.00517548  0.41516310  1
  O  O146  1  0.37212436  0.00817780  0.66231449  1
  O  O147  1  0.37325284  -0.00309816  0.91151530  1
  O  O148  1  0.37571015  0.24686077  0.16195535  1
  O  O149  1  0.37372091  0.24756281  0.41368990  1
  O  O150  1  0.37233861  0.24513104  0.66509807  1
  O  O151  1  0.37084549  0.25180633  0.91776752  1
  O  O152  1  0.37244905  0.51082145  0.16518062  1
  O  O153  1  0.37343020  0.50008399  0.41447368  1
  O  O154  1  0.37280067  0.50155398  0.66776674  1
  O  O155  1  0.36800397  0.49554839  0.90856849  1
  O  O156  1  0.36973739  0.74346289  0.16868469  1
  O  O157  1  0.37202257  0.74657705  0.41452901  1
  O  O158  1  0.37249813  0.74848898  0.66249685  1
  O  O159  1  0.37114320  0.74984204  0.90666439  1
  O  O160  1  0.62652194  0.00233233  0.16479531  1
  O  O161  1  0.62626969  0.00068086  0.42017833  1
  O  O162  1  0.62190028  0.00372414  0.65596597  1
  O  O163  1  0.61867038  0.00622104  0.90938936  1
  O  O164  1  0.62590409  0.24160617  0.15787416  1
  O  O165  1  0.62323850  0.25996247  0.41528149  1
  O  O166  1  0.62226641  0.25678966  0.66286973  1
  O  O167  1  0.61875228  0.24086088  0.91384116  1
  O  O168  1  0.62149180  0.50245286  0.15572058  1
  O  O169  1  0.62582485  0.49224827  0.41609143  1
  O  O170  1  0.62662431  0.50013986  0.66799948  1
  O  O171  1  0.62051803  0.50096692  0.91631918  1
  O  O172  1  0.62405896  0.75121073  0.16546125  1
  O  O173  1  0.62554770  0.74510450  0.41804238  1
  O  O174  1  0.62662229  0.74051059  0.66017698  1
  O  O175  1  0.61916876  0.75013471  0.91016621  1
  O  O176  1  0.88069060  -0.01046961  0.16021113  1
  O  O177  1  0.87909645  0.00681857  0.41479182  1
  O  O178  1  0.87891851  0.00204390  0.66354825  1
  O  O179  1  0.87725495  -0.00299161  0.90873754  1
  O  O180  1  0.87373988  0.24732697  0.15585680  1
  O  O181  1  0.87770595  0.25043496  0.41706393  1
  O  O182  1  0.87713710  0.25296316  0.66778172  1
  O  O183  1  0.87972525  0.24760397  0.91375293  1
  O  O184  1  0.87828083  0.50268224  0.16010868  1
  O  O185  1  0.87579762  0.49840076  0.41460369  1
  O  O186  1  0.87880832  0.50902740  0.67029091  1
  O  O187  1  0.88099994  0.50675839  0.91170791  1
  O  O188  1  0.88078027  0.75647347  0.16615548  1
  O  O189  1  0.87962831  0.74297245  0.41094576  1
  O  O190  1  0.87784620  0.73927598  0.66735925  1
  O  O191  1  0.87871291  0.74717694  0.90848868  1
  O  O192  1  -0.00104486  0.12023399  0.15901389  1
  O  O193  1  -0.00045577  0.12742153  0.41807915  1
  O  O194  1  0.01108277  0.12287563  0.66165299  1
  O  O195  1  0.01030677  0.11952308  0.91153135  1
  O  O196  1  0.00135746  0.37726956  0.15867821  1
  O  O197  1  -0.00185886  0.37396671  0.41590662  1
  O  O198  1  0.00365546  0.37760538  0.66786063  1
  O  O199  1  0.01125816  0.37309619  0.91281391  1
  O  O200  1  0.00724481  0.62894349  0.16194136  1
  O  O201  1  -0.00605434  0.62064668  0.41590799  1
  O  O202  1  0.00334377  0.62786087  0.66447623  1
  O  O203  1  0.00067967  0.62764197  0.91255186  1
  O  O204  1  0.00733903  0.87063104  0.16535744  1
  O  O205  1  0.00581808  0.87754531  0.41887705  1
  O  O206  1  0.01187762  0.87612913  0.66751014  1
  O  O207  1  0.00737461  0.87293155  0.90419520  1
  O  O208  1  0.24737332  0.12055056  0.15943056  1
  O  O209  1  0.25163379  0.12667467  0.41727181  1
  O  O210  1  0.24995465  0.12457221  0.66599499  1
  O  O211  1  0.24909532  0.12002990  0.91820469  1
  O  O212  1  0.24909991  0.37876025  0.16589187  1
  O  O213  1  0.25202122  0.37319025  0.41437229  1
  O  O214  1  0.24825519  0.37456407  0.66722051  1
  O  O215  1  0.24997135  0.37150343  0.91764116  1
  O  O216  1  0.24784834  0.62708686  0.16614392  1
  O  O217  1  0.25378594  0.62391826  0.41633222  1
  O  O218  1  0.24135648  0.62798395  0.66081367  1
  O  O219  1  0.25690592  0.62448815  0.91704827  1
  O  O220  1  0.24180067  0.87095719  0.16624515  1
  O  O221  1  0.24506829  0.87612090  0.41871073  1
  O  O222  1  0.24391699  0.87714057  0.66526122  1
  O  O223  1  0.25459296  0.87481281  0.91502047  1
  O  O224  1  0.50747928  0.12117188  0.16142503  1
  O  O225  1  0.48973110  0.12645722  0.41409077  1
  O  O226  1  0.49367406  0.12917805  0.65930971  1
  O  O227  1  0.49914548  0.12449426  0.91634117  1
  O  O228  1  0.50051828  0.37415945  0.16348789  1
  O  O229  1  0.50128607  0.37619462  0.41303228  1
  O  O230  1  0.50531567  0.37807928  0.66497713  1
  O  O231  1  0.48863800  0.37265641  0.91349939  1
  O  O232  1  0.49275974  0.62894969  0.16047853  1
  O  O233  1  0.49357950  0.62192354  0.41455267  1
  O  O234  1  0.50725921  0.62121666  0.65902308  1
  O  O235  1  0.48487391  0.62096995  0.91129813  1
  O  O236  1  0.49829549  0.87411123  0.16674769  1
  O  O237  1  0.49442545  0.87444158  0.41551959  1
  O  O238  1  0.49763975  0.87339446  0.66041343  1
  O  O239  1  0.48973704  0.87522849  0.90961462  1
  O  O240  1  0.74611866  0.12018189  0.16122299  1
  O  O241  1  0.75976820  0.12912562  0.41659101  1
  O  O242  1  0.74747532  0.12992341  0.66069224  1
  O  O243  1  0.74043779  0.12430287  0.90575804  1
  O  O244  1  0.74821530  0.37477412  0.15649636  1
  O  O245  1  0.74852663  0.37412348  0.41295352  1
  O  O246  1  0.74322703  0.37828552  0.66726596  1
  O  O247  1  0.75022547  0.37478590  0.91085165  1
  O  O248  1  0.75146686  0.62925811  0.15832090  1
  O  O249  1  0.76003579  0.62115910  0.41463618  1
  O  O250  1  0.75138657  0.62148737  0.66535439  1
  O  O251  1  0.75769678  0.62492495  0.90732998  1
  O  O252  1  0.75428705  0.87276747  0.15541636  1
  O  O253  1  0.75564327  0.87523456  0.41708311  1
  O  O254  1  0.74913672  0.87137560  0.66174419  1
  O  O255  1  0.74930827  0.87366609  0.90466214  1
  O  O256  1  0.12399989  0.11350738  0.02564585  1
  O  O257  1  0.12315281  0.12362471  0.30097701  1
  O  O258  1  0.12814525  0.12342627  0.54686111  1
  O  O259  1  0.13206032  0.12233995  0.80621442  1
  O  O260  1  0.13508985  0.37843113  0.02858426  1
  O  O261  1  0.12317669  0.37207840  0.30064280  1
  O  O262  1  0.12506530  0.37292605  0.53318522  1
  O  O263  1  0.13075193  0.37349986  0.80272681  1
  O  O264  1  0.12709881  0.63040123  0.04888259  1
  O  O265  1  0.13061334  0.62596141  0.28905106  1
  O  O266  1  0.12041238  0.62614909  0.54786689  1
  O  O267  1  0.12765324  0.63229758  0.78545278  1
  O  O268  1  0.12583034  0.87025574  0.04706026  1
  O  O269  1  0.12431951  0.87726391  0.30254424  1
  O  O270  1  0.12461098  0.87600722  0.54886251  1
  O  O271  1  0.13076683  0.87713525  0.79538215  1
  O  O272  1  0.37826875  0.11663482  0.03049455  1
  O  O273  1  0.37134601  0.12370298  0.29932563  1
  O  O274  1  0.37426139  0.12760018  0.54691920  1
  O  O275  1  0.37541026  0.12892181  0.80349908  1
  O  O276  1  0.36688316  0.37644743  0.03532842  1
  O  O277  1  0.37675274  0.37496796  0.29791594  1
  O  O278  1  0.37415881  0.38004159  0.53539265  1
  O  O279  1  0.37059177  0.37241446  0.80013338  1
  O  O280  1  0.37325921  0.62989754  0.04777069  1
  O  O281  1  0.37351735  0.62387564  0.30211015  1
  O  O282  1  0.37164551  0.61927188  0.53356906  1
  O  O283  1  0.36911636  0.62777716  0.79473718  1
  O  O284  1  0.37121374  0.87284189  0.03655487  1
  O  O285  1  0.36913595  0.87559228  0.30357208  1
  O  O286  1  0.36658544  0.87386273  0.53160811  1
  O  O287  1  0.37057827  0.87964032  0.79689067  1
  O  O288  1  0.62649557  0.11839696  0.04521448  1
  O  O289  1  0.63223372  0.11982074  0.29552486  1
  O  O290  1  0.62026664  0.13435415  0.52671395  1
  O  O291  1  0.61622187  0.12813114  0.79418368  1
  O  O292  1  0.61873177  0.37315359  0.02507755  1
  O  O293  1  0.62566228  0.37597181  0.29753567  1
  O  O294  1  0.62719446  0.37664812  0.55071732  1
  O  O295  1  0.61558910  0.37904644  0.79176747  1
  O  O296  1  0.61829424  0.63210519  0.02801261  1
  O  O297  1  0.62619537  0.62591696  0.28742901  1
  O  O298  1  0.62906170  0.61815645  0.54952336  1
  O  O299  1  0.62210186  0.61613936  0.78700639  1
  O  O300  1  0.61880107  0.87163435  0.03201800  1
  O  O301  1  0.62755924  0.87853702  0.29052404  1
  O  O302  1  0.62439704  0.87152367  0.53210829  1
  O  O303  1  0.61664513  0.87138715  0.78090502  1
  O  O304  1  0.87706065  0.11802667  0.02688157  1
  O  O305  1  0.87686405  0.12634932  0.30219041  1
  O  O306  1  0.87958077  0.13284982  0.53725579  1
  O  O307  1  0.87893398  0.12825945  0.78512886  1
  O  O308  1  0.88034746  0.37732513  0.02494338  1
  O  O309  1  0.87577708  0.37406461  0.29656750  1
  O  O310  1  0.87379026  0.38014616  0.54170915  1
  O  O311  1  0.88430581  0.37504508  0.78851182  1
  O  O312  1  0.88495392  0.62895073  0.03148665  1
  O  O313  1  0.87726162  0.62282328  0.29688176  1
  O  O314  1  0.87151066  0.62196745  0.55116700  1
  O  O315  1  0.88020819  0.62555076  0.79641690  1
  O  O316  1  0.87720977  0.86990769  0.04730568  1
  O  O317  1  0.88514069  0.87653150  0.28633012  1
  O  O318  1  0.88640344  0.87248164  0.54384370  1
  O  O319  1  0.87754404  0.87411514  0.77423998  1
