# generated using pymatgen
data_VFe(PbO3)2
_symmetry_space_group_name_H-M   'P 1'
_cell_length_a   15.37561464
_cell_length_b   15.38145819
_cell_length_c   18.50499008
_cell_angle_alpha   89.99431375
_cell_angle_beta   90.02117149
_cell_angle_gamma   90.00205520
_symmetry_Int_Tables_number   1
_chemical_formula_structural   VFe(PbO3)2
_chemical_formula_sum   'V32 Fe32 Pb64 O192'
_cell_volume   4376.41824271
_cell_formula_units_Z   32
loop_
 _symmetry_equiv_pos_site_id
 _symmetry_equiv_pos_as_xyz
  1  'x, y, z'
loop_
 _atom_site_type_symbol
 _atom_site_label
 _atom_site_symmetry_multiplicity
 _atom_site_fract_x
 _atom_site_fract_y
 _atom_site_fract_z
 _atom_site_occupancy
  V  V0  1  0.87293375  0.37643901  0.63824563  1
  V  V1  1  0.12560458  0.62199002  0.13922152  1
  V  V2  1  0.12849345  0.12361308  0.14208859  1
  V  V3  1  0.87623767  0.12700623  0.89117704  1
  V  V4  1  0.87624180  0.12168602  0.14709308  1
  V  V5  1  0.62501277  0.37317881  0.89348771  1
  V  V6  1  0.12369070  0.37638341  0.63966972  1
  V  V7  1  0.37575747  0.37306742  0.89392013  1
  V  V8  1  0.62439265  0.62673878  0.38451560  1
  V  V9  1  0.12174582  0.87444430  0.14073193  1
  V  V10  1  0.12451390  0.62621779  0.63649492  1
  V  V11  1  0.62586017  0.62905922  0.64214742  1
  V  V12  1  0.37970747  0.12385511  0.14111879  1
  V  V13  1  0.87554640  0.12704949  0.63718027  1
  V  V14  1  0.37386684  0.12631731  0.88884539  1
  V  V15  1  0.37450261  0.62575690  0.38249944  1
  V  V16  1  0.62614095  0.37315117  0.14057119  1
  V  V17  1  0.87364203  0.37474608  0.38451324  1
  V  V18  1  0.12423121  0.12446178  0.38962765  1
  V  V19  1  0.12539201  0.61945707  0.88886961  1
  V  V20  1  0.12668773  0.12221492  0.88905131  1
  V  V21  1  0.62351502  0.12488581  0.89339038  1
  V  V22  1  0.87214482  0.37305313  0.89334332  1
  V  V23  1  0.87290494  0.87661948  0.38508037  1
  V  V24  1  0.62629839  0.87681080  0.63813407  1
  V  V25  1  0.62676405  0.87636743  0.13673470  1
  V  V26  1  0.12480294  0.87040342  0.88883009  1
  V  V27  1  0.12394233  0.12288986  0.63713955  1
  V  V28  1  0.37516946  0.12495471  0.38628004  1
  V  V29  1  0.62555065  0.87297592  0.88971314  1
  V  V30  1  0.87632901  0.37512339  0.13962384  1
  V  V31  1  0.62510627  0.37928474  0.63829902  1
  Fe  Fe32  1  0.37520811  0.87790934  0.88995086  1
  Fe  Fe33  1  0.12610975  0.87431231  0.39100363  1
  Fe  Fe34  1  0.62554741  0.62213104  0.89714239  1
  Fe  Fe35  1  0.12570108  0.37624531  0.38006829  1
  Fe  Fe36  1  0.87346515  0.87942224  0.89315398  1
  Fe  Fe37  1  0.62467677  0.37934024  0.38029572  1
  Fe  Fe38  1  0.12485223  0.62524788  0.38064682  1
  Fe  Fe39  1  0.62449879  0.62636357  0.12815227  1
  Fe  Fe40  1  0.62598544  0.12468008  0.37899046  1
  Fe  Fe41  1  0.62836018  0.12647655  0.63235023  1
  Fe  Fe42  1  0.37370391  0.62640293  0.13155942  1
  Fe  Fe43  1  0.87579746  0.87686555  0.13215498  1
  Fe  Fe44  1  0.87485367  0.62206306  0.63906574  1
  Fe  Fe45  1  0.37608739  0.37710104  0.63370024  1
  Fe  Fe46  1  0.12366972  0.87234584  0.63060697  1
  Fe  Fe47  1  0.37256821  0.87804029  0.13804538  1
  Fe  Fe48  1  0.37682255  0.87457912  0.38379047  1
  Fe  Fe49  1  0.37301500  0.37285731  0.14328348  1
  Fe  Fe50  1  0.12520547  0.37110159  0.88823961  1
  Fe  Fe51  1  0.37625233  0.12781227  0.63094558  1
  Fe  Fe52  1  0.62423590  0.87194928  0.38265305  1
  Fe  Fe53  1  0.37676949  0.37595246  0.37814993  1
  Fe  Fe54  1  0.37258833  0.62473138  0.89453513  1
  Fe  Fe55  1  0.87397312  0.87347858  0.63742045  1
  Fe  Fe56  1  0.87522856  0.62678229  0.13944061  1
  Fe  Fe57  1  0.37509164  0.62142441  0.63591381  1
  Fe  Fe58  1  0.87396507  0.62568061  0.37898813  1
  Fe  Fe59  1  0.12072638  0.37187369  0.14105126  1
  Fe  Fe60  1  0.87811956  0.62435783  0.88844171  1
  Fe  Fe61  1  0.87831310  0.12459202  0.38180068  1
  Fe  Fe62  1  0.37567548  0.87263892  0.63437105  1
  Fe  Fe63  1  0.62607828  0.12477197  0.14530641  1
  Pb  Pb64  1  -0.00315113  -0.00217211  0.00166004  1
  Pb  Pb65  1  -0.00029281  -0.00148844  0.25483037  1
  Pb  Pb66  1  -0.00256134  -0.01331895  0.50276554  1
  Pb  Pb67  1  -0.00474322  -0.00799017  0.74916939  1
  Pb  Pb68  1  0.00687866  0.25255049  0.00350230  1
  Pb  Pb69  1  -0.00450967  0.24768227  0.25373230  1
  Pb  Pb70  1  0.00184086  0.25211141  0.49491916  1
  Pb  Pb71  1  0.00569961  0.25410417  0.75221310  1
  Pb  Pb72  1  0.00560717  0.49496161  0.00184683  1
  Pb  Pb73  1  0.00389711  0.51001160  0.25412388  1
  Pb  Pb74  1  0.00101845  0.50725244  0.49183555  1
  Pb  Pb75  1  0.00072912  0.49901153  0.75044715  1
  Pb  Pb76  1  -0.01076979  0.74996524  0.00252984  1
  Pb  Pb77  1  0.00148676  0.74482905  0.25241590  1
  Pb  Pb78  1  -0.00018478  0.75005525  0.49508560  1
  Pb  Pb79  1  -0.00797774  0.75006662  0.74859777  1
  Pb  Pb80  1  0.25492488  -0.00151925  0.00217527  1
  Pb  Pb81  1  0.24712988  -0.01048075  0.25812637  1
  Pb  Pb82  1  0.25652642  -0.00535707  0.50066730  1
  Pb  Pb83  1  0.25743691  -0.00892399  0.74501273  1
  Pb  Pb84  1  0.25016386  0.25890881  0.00684936  1
  Pb  Pb85  1  0.24688790  0.25871004  0.25302595  1
  Pb  Pb86  1  0.25997508  0.25369085  0.49697343  1
  Pb  Pb87  1  0.24664133  0.25377645  0.74648084  1
  Pb  Pb88  1  0.26035232  0.49306695  0.00954288  1
  Pb  Pb89  1  0.24907600  0.49421376  0.24696207  1
  Pb  Pb90  1  0.25675469  0.49625791  0.49305426  1
  Pb  Pb91  1  0.25479856  0.50194064  0.74927412  1
  Pb  Pb92  1  0.25953602  0.75230940  0.00319085  1
  Pb  Pb93  1  0.24646523  0.75516325  0.25030273  1
  Pb  Pb94  1  0.25113811  0.75530879  0.49661597  1
  Pb  Pb95  1  0.26113631  0.75133523  0.74963951  1
  Pb  Pb96  1  0.49801459  -0.00242987  0.00372296  1
  Pb  Pb97  1  0.50224764  -0.01135495  0.25485204  1
  Pb  Pb98  1  0.50009020  0.00172052  0.49456837  1
  Pb  Pb99  1  0.49608895  -0.00019274  0.74367541  1
  Pb  Pb100  1  0.49792142  0.24906264  0.00628088  1
  Pb  Pb101  1  0.50385735  0.25910349  0.25509496  1
  Pb  Pb102  1  0.49993197  0.25107030  0.49262524  1
  Pb  Pb103  1  0.49849666  0.24804826  0.74240822  1
  Pb  Pb104  1  0.49783626  0.50588128  0.00504629  1
  Pb  Pb105  1  0.49634769  0.50007324  0.24213689  1
  Pb  Pb106  1  0.49189002  0.50055718  0.49718199  1
  Pb  Pb107  1  0.50012770  0.51105207  0.75826804  1
  Pb  Pb108  1  0.49651091  0.74566936  -0.00061915  1
  Pb  Pb109  1  0.49593548  0.75366690  0.24100987  1
  Pb  Pb110  1  0.49259874  0.75142178  0.49821859  1
  Pb  Pb111  1  0.49250044  0.74545276  0.75534966  1
  Pb  Pb112  1  0.74308903  0.00539846  0.00530778  1
  Pb  Pb113  1  0.73973681  -0.00024025  0.25435153  1
  Pb  Pb114  1  0.74420232  0.00516965  0.49310642  1
  Pb  Pb115  1  0.75568577  -0.00549551  0.75123418  1
  Pb  Pb116  1  0.74382983  0.24288186  0.00853183  1
  Pb  Pb117  1  0.74746846  0.24688363  0.25517132  1
  Pb  Pb118  1  0.74132379  0.24411518  0.49178488  1
  Pb  Pb119  1  0.75035425  0.25124894  0.74650434  1
  Pb  Pb120  1  0.75344359  0.51124163  0.00554000  1
  Pb  Pb121  1  0.74875264  0.50246377  0.24615683  1
  Pb  Pb122  1  0.75537677  0.50769340  0.49632729  1
  Pb  Pb123  1  0.74700715  0.50984990  0.75896028  1
  Pb  Pb124  1  0.75861146  0.74365893  0.00127219  1
  Pb  Pb125  1  0.75388594  0.74809184  0.24209957  1
  Pb  Pb126  1  0.76293485  0.74948079  0.49996114  1
  Pb  Pb127  1  0.75708597  0.74438563  0.75680478  1
  O  O128  1  0.12174354  0.00229888  0.16687201  1
  O  O129  1  0.12560363  0.00905089  0.41587829  1
  O  O130  1  0.12197937  0.00765705  0.65802051  1
  O  O131  1  0.12574458  0.00201766  0.91637408  1
  O  O132  1  0.11996273  0.24025749  0.16463509  1
  O  O133  1  0.12569156  0.24523269  0.41372083  1
  O  O134  1  0.12110894  0.24858453  0.66624164  1
  O  O135  1  0.12460945  0.24358692  0.91692409  1
  O  O136  1  0.12236706  0.50455732  0.15781487  1
  O  O137  1  0.12374763  0.50029823  0.41138650  1
  O  O138  1  0.12262498  0.49990889  0.66577148  1
  O  O139  1  0.12271995  0.50188996  0.91064065  1
  O  O140  1  0.12385209  0.75478449  0.16039216  1
  O  O141  1  0.12627205  0.74770685  0.41413073  1
  O  O142  1  0.12300473  0.74149121  0.65756972  1
  O  O143  1  0.12358604  0.75500028  0.90999469  1
  O  O144  1  0.36926014  0.00840139  0.16635372  1
  O  O145  1  0.37365508  0.00676357  0.41004270  1
  O  O146  1  0.37598835  0.00086396  0.66202270  1
  O  O147  1  0.37545030  0.00571423  0.91672976  1
  O  O148  1  0.37053520  0.23916124  0.16705056  1
  O  O149  1  0.37322172  0.24526324  0.40747977  1
  O  O150  1  0.37566523  0.25244145  0.66521226  1
  O  O151  1  0.37578073  0.25074742  0.91979567  1
  O  O152  1  0.37203999  0.50129469  0.16163325  1
  O  O153  1  0.37934423  0.50661598  0.40664099  1
  O  O154  1  0.37555966  0.49846508  0.66997068  1
  O  O155  1  0.37273543  0.49102301  0.91599215  1
  O  O156  1  0.37058814  0.75211313  0.15974043  1
  O  O157  1  0.37754435  0.74271786  0.40838332  1
  O  O158  1  0.37788735  0.74657418  0.66689811  1
  O  O159  1  0.37272571  0.75314327  0.91677075  1
  O  O160  1  0.62626878  -0.00433430  0.16406390  1
  O  O161  1  0.62538260  -0.00031673  0.41072092  1
  O  O162  1  0.62696528  -0.00646804  0.65953462  1
  O  O163  1  0.62439654  0.00234243  0.91828087  1
  O  O164  1  0.62886834  0.25467903  0.16580020  1
  O  O165  1  0.62606490  0.25121179  0.40730579  1
  O  O166  1  0.62919921  0.25833459  0.66211457  1
  O  O167  1  0.62463874  0.25037524  0.92292008  1
  O  O168  1  0.62809635  0.49244222  0.15755621  1
  O  O169  1  0.62513987  0.50896738  0.41133134  1
  O  O170  1  0.62809622  0.49756835  0.66593510  1
  O  O171  1  0.62591411  0.48881305  0.92009514  1
  O  O172  1  0.62459457  0.75742642  0.15567979  1
  O  O173  1  0.62562580  0.74213426  0.41223120  1
  O  O174  1  0.62647044  0.74601425  0.66380225  1
  O  O175  1  0.62377548  0.75788150  0.91112853  1
  O  O176  1  0.87810927  0.00378069  0.16405827  1
  O  O177  1  0.87675105  -0.00507754  0.40863110  1
  O  O178  1  0.87452368  0.00447470  0.66542329  1
  O  O179  1  0.87391385  0.00837417  0.91919849  1
  O  O180  1  0.87594682  0.25059027  0.16700191  1
  O  O181  1  0.87620809  0.25638572  0.40967995  1
  O  O182  1  0.87447750  0.25165502  0.66770374  1
  O  O183  1  0.87489709  0.24956983  0.92025942  1
  O  O184  1  0.87374251  0.49234677  0.16029701  1
  O  O185  1  0.87437457  0.49506471  0.40928399  1
  O  O186  1  0.87489983  0.49486468  0.66697630  1
  O  O187  1  0.87679324  0.49030658  0.91487876  1
  O  O188  1  0.87639355  0.75408539  0.16265799  1
  O  O189  1  0.87363640  0.75532464  0.40808604  1
  O  O190  1  0.87260620  0.74738662  0.66855356  1
  O  O191  1  0.87767937  0.75235588  0.91326349  1
  O  O192  1  0.00048203  0.12365326  0.16834828  1
  O  O193  1  0.00537475  0.12732923  0.41387613  1
  O  O194  1  0.00107644  0.12798506  0.66567189  1
  O  O195  1  -0.00039949  0.12537344  0.91523341  1
  O  O196  1  -0.00806038  0.37221702  0.16378200  1
  O  O197  1  -0.00569073  0.37481119  0.41056951  1
  O  O198  1  -0.00171113  0.37364721  0.66760097  1
  O  O199  1  -0.00607941  0.37036397  0.91737681  1
  O  O200  1  0.00591697  0.62759555  0.16269155  1
  O  O201  1  -0.00307375  0.62526805  0.41012729  1
  O  O202  1  0.00610241  0.62081322  0.66383412  1
  O  O203  1  0.00825243  0.62532695  0.91613576  1
  O  O204  1  0.00564867  0.87900163  0.16416383  1
  O  O205  1  -0.00617250  0.87515672  0.41165291  1
  O  O206  1  0.00119824  0.87506722  0.66643440  1
  O  O207  1  0.00827635  0.88153412  0.91439556  1
  O  O208  1  0.24293290  0.12339850  0.16510797  1
  O  O209  1  0.24900195  0.12598664  0.41155498  1
  O  O210  1  0.24091301  0.12893438  0.65947058  1
  O  O211  1  0.25195684  0.12636055  0.91545988  1
  O  O212  1  0.24565832  0.37103217  0.16506390  1
  O  O213  1  0.25203964  0.37587442  0.40786147  1
  O  O214  1  0.24470372  0.37370889  0.66372487  1
  O  O215  1  0.25505295  0.37037099  0.91511809  1
  O  O216  1  0.24160081  0.62833196  0.16216800  1
  O  O217  1  0.25849343  0.62349702  0.40310510  1
  O  O218  1  0.24216260  0.62063461  0.66301104  1
  O  O219  1  0.23926002  0.62672608  0.91581192  1
  O  O220  1  0.24066073  0.87992842  0.16490445  1
  O  O221  1  0.25318955  0.87602409  0.41507079  1
  O  O222  1  0.24715824  0.87401768  0.66274377  1
  O  O223  1  0.24144542  0.87936745  0.91584992  1
  O  O224  1  0.49449313  0.12479473  0.15868533  1
  O  O225  1  0.49403178  0.12617547  0.40553086  1
  O  O226  1  0.50407905  0.12617954  0.66363988  1
  O  O227  1  0.49897900  0.12807761  0.91890542  1
  O  O228  1  0.50600556  0.37066673  0.15883381  1
  O  O229  1  0.49998504  0.37583527  0.40929242  1
  O  O230  1  0.50938589  0.37657994  0.66093470  1
  O  O231  1  0.49712227  0.37109369  0.91883819  1
  O  O232  1  0.50117175  0.62486507  0.15643582  1
  O  O233  1  0.50167305  0.62579526  0.40879509  1
  O  O234  1  0.50858051  0.62127004  0.66764615  1
  O  O235  1  0.49866414  0.62189148  0.91884607  1
  O  O236  1  0.50390965  0.87957290  0.15950651  1
  O  O237  1  0.50029152  0.87348713  0.41399818  1
  O  O238  1  0.50963081  0.87117988  0.66415885  1
  O  O239  1  0.50680139  0.88025308  0.91604526  1
  O  O240  1  0.75839219  0.12563754  0.16615034  1
  O  O241  1  0.75377042  0.12532955  0.40888247  1
  O  O242  1  0.75413166  0.12693939  0.66544181  1
  O  O243  1  0.74975077  0.12768081  0.91955583  1
  O  O244  1  0.75341633  0.37175091  0.16405803  1
  O  O245  1  0.75599945  0.37712892  0.40923510  1
  O  O246  1  0.74881454  0.37588846  0.66738498  1
  O  O247  1  0.75396844  0.36955624  0.91689893  1
  O  O248  1  0.74721384  0.62442677  0.16183511  1
  O  O249  1  0.74573657  0.62487531  0.40837607  1
  O  O250  1  0.74327773  0.62153434  0.66908535  1
  O  O251  1  0.75330038  0.62266414  0.91680858  1
  O  O252  1  0.74588273  0.87796330  0.15827536  1
  O  O253  1  0.75537350  0.87475438  0.40850092  1
  O  O254  1  0.74271172  0.87192776  0.66737232  1
  O  O255  1  0.74148878  0.88109086  0.91490633  1
  O  O256  1  0.12605098  0.12194322  0.05093002  1
  O  O257  1  0.12301454  0.12313537  0.29818997  1
  O  O258  1  0.11983853  0.12849783  0.54661376  1
  O  O259  1  0.12670485  0.12206031  0.79806989  1
  O  O260  1  0.11926777  0.36928780  0.03897732  1
  O  O261  1  0.12478950  0.37399456  0.27947507  1
  O  O262  1  0.12145046  0.37410082  0.54871404  1
  O  O263  1  0.12142074  0.36782676  0.78876385  1
  O  O264  1  0.12494172  0.62539213  0.04807057  1
  O  O265  1  0.11702550  0.62743651  0.27980196  1
  O  O266  1  0.12451031  0.62072481  0.54547697  1
  O  O267  1  0.12487378  0.62335980  0.79781230  1
  O  O268  1  0.12311682  0.87767677  0.04965548  1
  O  O269  1  0.12969900  0.87916066  0.28974537  1
  O  O270  1  0.12006757  0.87661052  0.52992370  1
  O  O271  1  0.12572723  0.87483552  0.79763204  1
  O  O272  1  0.37253285  0.12437614  0.04939111  1
  O  O273  1  0.37268872  0.12421937  0.29550616  1
  O  O274  1  0.37528706  0.13047851  0.53149662  1
  O  O275  1  0.37657247  0.12758014  0.79780156  1
  O  O276  1  0.36696041  0.37067993  0.04146897  1
  O  O277  1  0.37834856  0.37257820  0.27602520  1
  O  O278  1  0.37419615  0.38044732  0.53349786  1
  O  O279  1  0.37767973  0.37105813  0.80312406  1
  O  O280  1  0.36750457  0.62157937  0.02945982  1
  O  O281  1  0.37900426  0.62609576  0.29129268  1
  O  O282  1  0.38007117  0.61960121  0.53628768  1
  O  O283  1  0.37673564  0.62378153  0.79286735  1
  O  O284  1  0.36929073  0.88376439  0.03672226  1
  O  O285  1  0.37483390  0.87839465  0.28192372  1
  O  O286  1  0.37622423  0.87101733  0.53427555  1
  O  O287  1  0.37058894  0.87634642  0.78923955  1
  O  O288  1  0.63310654  0.12610749  0.04412907  1
  O  O289  1  0.63053774  0.12277888  0.27651663  1
  O  O290  1  0.63088028  0.12698940  0.53296923  1
  O  O291  1  0.62543346  0.12519062  0.80252777  1
  O  O292  1  0.62979697  0.36850812  0.04931920  1
  O  O293  1  0.62423991  0.37650575  0.28040611  1
  O  O294  1  0.62841847  0.38072978  0.54745232  1
  O  O295  1  0.62405164  0.37193236  0.80257273  1
  O  O296  1  0.62852953  0.62281194  0.02692601  1
  O  O297  1  0.62397365  0.62639895  0.29330730  1
  O  O298  1  0.62643835  0.62649262  0.55155880  1
  O  O299  1  0.62574754  0.61532717  0.79551160  1
  O  O300  1  0.62460926  0.88122306  0.04538428  1
  O  O301  1  0.62132469  0.87840302  0.28266279  1
  O  O302  1  0.62785748  0.87293547  0.54723206  1
  O  O303  1  0.62523886  0.87728652  0.79858426  1
  O  O304  1  0.87822661  0.12658308  0.05577545  1
  O  O305  1  0.88220901  0.12766181  0.28226426  1
  O  O306  1  0.87692400  0.12764757  0.54622583  1
  O  O307  1  0.87371885  0.12663917  0.80024271  1
  O  O308  1  0.87638945  0.37175529  0.04846147  1
  O  O309  1  0.87448858  0.37519743  0.29321080  1
  O  O310  1  0.87308701  0.37552818  0.54754574  1
  O  O311  1  0.87231434  0.37035714  0.80248281  1
  O  O312  1  0.87462520  0.62852910  0.03729048  1
  O  O313  1  0.87806569  0.62336961  0.27820031  1
  O  O314  1  0.86562809  0.62375793  0.53881910  1
  O  O315  1  0.87295653  0.62306203  0.78763167  1
  O  O316  1  0.88284436  0.87666089  0.03156905  1
  O  O317  1  0.87555256  0.87676420  0.29366459  1
  O  O318  1  0.87464410  0.87232412  0.53787106  1
  O  O319  1  0.87369687  0.88471171  0.79177229  1
