# generated using pymatgen
data_VFe(PbO3)2
_symmetry_space_group_name_H-M   'P 1'
_cell_length_a   15.38564585
_cell_length_b   15.39563854
_cell_length_c   18.49820914
_cell_angle_alpha   89.98581675
_cell_angle_beta   90.02692399
_cell_angle_gamma   90.00862939
_symmetry_Int_Tables_number   1
_chemical_formula_structural   VFe(PbO3)2
_chemical_formula_sum   'V32 Fe32 Pb64 O192'
_cell_volume   4381.70421016
_cell_formula_units_Z   32
loop_
 _symmetry_equiv_pos_site_id
 _symmetry_equiv_pos_as_xyz
  1  'x, y, z'
loop_
 _atom_site_type_symbol
 _atom_site_label
 _atom_site_symmetry_multiplicity
 _atom_site_fract_x
 _atom_site_fract_y
 _atom_site_fract_z
 _atom_site_occupancy
  V  V0  1  0.62719385  0.87220862  0.38688920  1
  V  V1  1  0.37246861  0.37144182  0.13276927  1
  V  V2  1  0.62541197  0.87851755  0.89127329  1
  V  V3  1  0.87528865  0.12718503  0.89815437  1
  V  V4  1  0.62479511  0.62349608  0.64428778  1
  V  V5  1  0.87761375  0.62415330  0.39009239  1
  V  V6  1  0.62487852  0.12520975  0.63874567  1
  V  V7  1  0.37576578  0.37588700  0.64658784  1
  V  V8  1  0.12155221  0.12693277  0.63905048  1
  V  V9  1  0.37329681  0.87921822  0.88292754  1
  V  V10  1  0.12548446  0.87423336  0.39609639  1
  V  V11  1  0.88010007  0.12041674  0.39036371  1
  V  V12  1  0.12633026  0.12658567  0.39146391  1
  V  V13  1  0.87195340  0.62052559  0.64601786  1
  V  V14  1  0.37499720  0.87355105  0.39513846  1
  V  V15  1  0.62437685  0.87508247  0.64094797  1
  V  V16  1  0.37802367  0.87550866  0.64300925  1
  V  V17  1  0.87769761  0.37579818  0.38973470  1
  V  V18  1  0.62654412  0.37454723  0.64163950  1
  V  V19  1  0.87290932  0.37727824  0.89311386  1
  V  V20  1  0.62438864  0.87068010  0.13720638  1
  V  V21  1  0.12334390  0.12170939  0.89030944  1
  V  V22  1  0.87105100  0.87527484  0.64054659  1
  V  V23  1  0.37550413  0.87127669  0.13765368  1
  V  V24  1  0.87366161  0.88012173  0.89071113  1
  V  V25  1  0.12314733  0.62451340  0.39726910  1
  V  V26  1  0.62821198  0.12354599  0.89667859  1
  V  V27  1  0.13074045  0.87264586  0.13676194  1
  V  V28  1  0.12684865  0.62722789  0.13488440  1
  V  V29  1  0.62590460  0.62379994  0.38962847  1
  V  V30  1  0.37162097  0.62072737  0.13752192  1
  V  V31  1  0.37699730  0.12650036  0.64043631  1
  Fe  Fe32  1  0.87847583  0.87171055  0.13434382  1
  Fe  Fe33  1  0.37154751  0.12274188  0.13108934  1
  Fe  Fe34  1  0.12690903  0.87978205  0.64818510  1
  Fe  Fe35  1  0.86990680  0.37190471  0.63728864  1
  Fe  Fe36  1  0.87402124  0.62695405  0.88597626  1
  Fe  Fe37  1  0.12749698  0.12541749  0.13072725  1
  Fe  Fe38  1  0.37702817  0.12288835  0.89241704  1
  Fe  Fe39  1  0.62049842  0.62739705  0.12825895  1
  Fe  Fe40  1  0.37360777  0.62700540  0.39246581  1
  Fe  Fe41  1  0.62516621  0.37216595  0.89506499  1
  Fe  Fe42  1  0.37524473  0.37144128  0.88061041  1
  Fe  Fe43  1  0.62241918  0.12291361  0.13891182  1
  Fe  Fe44  1  0.87854596  0.86991432  0.38562417  1
  Fe  Fe45  1  0.12150831  0.62830828  0.87400739  1
  Fe  Fe46  1  0.37842206  0.62399511  0.64858254  1
  Fe  Fe47  1  0.62526502  0.37498387  0.38108174  1
  Fe  Fe48  1  0.37267769  0.12408819  0.38624818  1
  Fe  Fe49  1  0.37435906  0.37690543  0.38495684  1
  Fe  Fe50  1  0.37599694  0.62475411  0.87279763  1
  Fe  Fe51  1  0.62124478  0.37750304  0.12746541  1
  Fe  Fe52  1  0.62547485  0.12472404  0.37870939  1
  Fe  Fe53  1  0.12382322  0.62582350  0.64652006  1
  Fe  Fe54  1  0.87068154  0.12504382  0.63348325  1
  Fe  Fe55  1  0.87777794  0.12401051  0.13211635  1
  Fe  Fe56  1  0.12247504  0.37195725  0.88006258  1
  Fe  Fe57  1  0.87594232  0.62586107  0.12711042  1
  Fe  Fe58  1  0.87722570  0.37775104  0.12648738  1
  Fe  Fe59  1  0.62614445  0.62765665  0.89008490  1
  Fe  Fe60  1  0.12806163  0.37907398  0.12918345  1
  Fe  Fe61  1  0.12198631  0.87962357  0.87446079  1
  Fe  Fe62  1  0.12332375  0.37178095  0.64572789  1
  Fe  Fe63  1  0.12491663  0.37658859  0.38723075  1
  Pb  Pb64  1  -0.00437570  0.00186043  0.00436706  1
  Pb  Pb65  1  -0.00393740  -0.00309508  0.24519083  1
  Pb  Pb66  1  0.00437412  -0.00434470  0.50577178  1
  Pb  Pb67  1  0.00143276  0.00062466  0.75068109  1
  Pb  Pb68  1  0.00248207  0.25883826  0.00660593  1
  Pb  Pb69  1  0.00438472  0.25279022  0.23704898  1
  Pb  Pb70  1  -0.00176706  0.26042235  0.50555623  1
  Pb  Pb71  1  -0.00332275  0.25543278  0.75024194  1
  Pb  Pb72  1  0.00447949  0.49723932  -0.00810804  1
  Pb  Pb73  1  0.00305749  0.49447916  0.24218322  1
  Pb  Pb74  1  0.01213674  0.49637552  0.51281840  1
  Pb  Pb75  1  0.00693154  0.49453024  0.75296112  1
  Pb  Pb76  1  -0.00533705  0.74924756  -0.00694439  1
  Pb  Pb77  1  -0.00386425  0.75220663  0.24882997  1
  Pb  Pb78  1  0.00976300  0.74709175  0.51045738  1
  Pb  Pb79  1  0.00363486  0.75105327  0.75135577  1
  Pb  Pb80  1  0.24750541  0.00846062  0.00205773  1
  Pb  Pb81  1  0.25330132  0.00690847  0.24999483  1
  Pb  Pb82  1  0.24329201  -0.00749150  0.50768375  1
  Pb  Pb83  1  0.25807852  0.00889569  0.75384481  1
  Pb  Pb84  1  0.24705769  0.24925691  -0.00675461  1
  Pb  Pb85  1  0.24944384  0.25456804  0.24480236  1
  Pb  Pb86  1  0.25071245  0.25827946  0.49869834  1
  Pb  Pb87  1  0.26192927  0.24869780  0.75580636  1
  Pb  Pb88  1  0.24679797  0.49761943  -0.02013229  1
  Pb  Pb89  1  0.25223698  0.49167355  0.25577851  1
  Pb  Pb90  1  0.24869026  0.49903910  0.50564407  1
  Pb  Pb91  1  0.24362965  0.50062210  0.75028241  1
  Pb  Pb92  1  0.24381516  0.74895403  -0.01714961  1
  Pb  Pb93  1  0.25414962  0.74333843  0.25546173  1
  Pb  Pb94  1  0.24768429  0.73670657  0.51579658  1
  Pb  Pb95  1  0.24558466  0.74256339  0.74937382  1
  Pb  Pb96  1  0.50204682  0.00743703  0.00699058  1
  Pb  Pb97  1  0.49614918  0.01242833  0.25226992  1
  Pb  Pb98  1  0.50407258  0.00306888  0.49505784  1
  Pb  Pb99  1  0.49762847  0.00729299  0.75458511  1
  Pb  Pb100  1  0.49983832  0.25262366  -0.00005894  1
  Pb  Pb101  1  0.50577692  0.24815389  0.24709231  1
  Pb  Pb102  1  0.50255006  0.25103462  0.48875126  1
  Pb  Pb103  1  0.50373380  0.25556503  0.75899818  1
  Pb  Pb104  1  0.50142017  0.50107301  -0.01084964  1
  Pb  Pb105  1  0.50019940  0.48955010  0.25009960  1
  Pb  Pb106  1  0.49400908  0.49980574  0.49945168  1
  Pb  Pb107  1  0.50548411  0.48691901  0.76162973  1
  Pb  Pb108  1  0.50215829  0.74553097  -0.00547318  1
  Pb  Pb109  1  0.49195415  0.74215771  0.25144695  1
  Pb  Pb110  1  0.49385700  0.74378420  0.50757361  1
  Pb  Pb111  1  0.50475671  0.74235254  0.75642156  1
  Pb  Pb112  1  0.75302021  0.00490833  0.01096135  1
  Pb  Pb113  1  0.75088538  0.00139609  0.24418274  1
  Pb  Pb114  1  0.75524854  0.00345562  0.49592899  1
  Pb  Pb115  1  0.74895096  -0.00004927  0.75154375  1
  Pb  Pb116  1  0.74956570  0.25605777  0.01056946  1
  Pb  Pb117  1  0.74551715  0.25504065  0.23613459  1
  Pb  Pb118  1  0.75713388  0.24906480  0.49604480  1
  Pb  Pb119  1  0.74806938  0.25558777  0.75295545  1
  Pb  Pb120  1  0.74177833  0.50667633  -0.00008297  1
  Pb  Pb121  1  0.74534011  0.49926535  0.23278174  1
  Pb  Pb122  1  0.75767744  0.49404169  0.49981706  1
  Pb  Pb123  1  0.74646266  0.50966219  0.76154501  1
  Pb  Pb124  1  0.75723628  0.74619588  0.00184269  1
  Pb  Pb125  1  0.75587479  0.74749541  0.24303628  1
  Pb  Pb126  1  0.75223438  0.74926458  0.49817667  1
  Pb  Pb127  1  0.74975465  0.74261377  0.75980230  1
  O  O128  1  0.12935966  -0.01246867  0.15816594  1
  O  O129  1  0.12280142  0.00261910  0.42074617  1
  O  O130  1  0.12681075  0.01171435  0.66795393  1
  O  O131  1  0.12086284  0.00220492  0.91240516  1
  O  O132  1  0.13103977  0.25274051  0.15801366  1
  O  O133  1  0.12239244  0.24344783  0.41254173  1
  O  O134  1  0.12869702  0.24000035  0.66744571  1
  O  O135  1  0.11884234  0.23981855  0.90925954  1
  O  O136  1  0.13283251  0.51126511  0.15878474  1
  O  O137  1  0.12287295  0.50607513  0.41988061  1
  O  O138  1  0.12305628  0.49846696  0.66586335  1
  O  O139  1  0.12085017  0.50032870  0.90131134  1
  O  O140  1  0.13127698  0.74611152  0.16601743  1
  O  O141  1  0.12344300  0.74781344  0.42214499  1
  O  O142  1  0.12189055  0.75473386  0.66343091  1
  O  O143  1  0.12361906  0.75694285  0.90278919  1
  O  O144  1  0.36942103  -0.01295448  0.16084858  1
  O  O145  1  0.37289007  -0.00949053  0.41830553  1
  O  O146  1  0.38198186  0.00164356  0.66814558  1
  O  O147  1  0.37874140  -0.00792986  0.91540793  1
  O  O148  1  0.36996445  0.25559598  0.15141889  1
  O  O149  1  0.37259397  0.24921684  0.41468589  1
  O  O150  1  0.38002947  0.24924329  0.66728274  1
  O  O151  1  0.37443016  0.24629097  0.91361247  1
  O  O152  1  0.37208608  0.50589957  0.15626523  1
  O  O153  1  0.37391858  0.50324992  0.42043196  1
  O  O154  1  0.38184376  0.49177387  0.66451572  1
  O  O155  1  0.37505497  0.50011356  0.90110385  1
  O  O156  1  0.37000957  0.75150889  0.16759823  1
  O  O157  1  0.37384828  0.75585051  0.42467635  1
  O  O158  1  0.38170969  0.76169641  0.66489179  1
  O  O159  1  0.37949285  0.76277449  0.90516685  1
  O  O160  1  0.62031280  -0.01484778  0.16459301  1
  O  O161  1  0.62637021  -0.00517617  0.41239577  1
  O  O162  1  0.62386228  0.00401521  0.66484854  1
  O  O163  1  0.62870180  -0.00128803  0.92056581  1
  O  O164  1  0.61878199  0.25188077  0.15793467  1
  O  O165  1  0.62840364  0.24911073  0.40844413  1
  O  O166  1  0.62442871  0.24542199  0.66277131  1
  O  O167  1  0.62939562  0.23900763  0.91668685  1
  O  O168  1  0.61783827  0.50313385  0.15602847  1
  O  O169  1  0.62809056  0.50856975  0.41307847  1
  O  O170  1  0.62657876  0.50390351  0.66585889  1
  O  O171  1  0.62745359  0.49981260  0.91118579  1
  O  O172  1  0.61853635  0.75507469  0.16472740  1
  O  O173  1  0.62706597  0.74726186  0.41796132  1
  O  O174  1  0.62701116  0.75053196  0.66538896  1
  O  O175  1  0.62603155  0.76195386  0.91149075  1
  O  O176  1  0.87782456  -0.00451760  0.16449646  1
  O  O177  1  0.87846169  0.00268119  0.41162784  1
  O  O178  1  0.86878269  -0.00265017  0.66483213  1
  O  O179  1  0.87111066  -0.00049566  0.91813494  1
  O  O180  1  0.87723376  0.25106017  0.15902223  1
  O  O181  1  0.87721396  0.25293328  0.40947883  1
  O  O182  1  0.86897675  0.24649402  0.66849109  1
  O  O183  1  0.87379905  0.24242950  0.91689009  1
  O  O184  1  0.87743190  0.50354088  0.15872585  1
  O  O185  1  0.87675848  0.50032443  0.41802196  1
  O  O186  1  0.86695636  0.50530126  0.66347795  1
  O  O187  1  0.87429929  0.49343869  0.90486310  1
  O  O188  1  0.87889490  0.74769934  0.16594475  1
  O  O189  1  0.87741164  0.74393081  0.41988619  1
  O  O190  1  0.86715995  0.75713266  0.66475909  1
  O  O191  1  0.87090640  0.76146452  0.90785463  1
  O  O192  1  0.00453588  0.12134618  0.16282353  1
  O  O193  1  0.00041388  0.12482200  0.41775762  1
  O  O194  1  0.00362557  0.12488935  0.65808137  1
  O  O195  1  -0.00444595  0.11871588  0.91404043  1
  O  O196  1  0.00407398  0.38041502  0.15949914  1
  O  O197  1  -0.00406082  0.37649446  0.41713259  1
  O  O198  1  -0.00604897  0.37204267  0.66664731  1
  O  O199  1  -0.00674147  0.36770605  0.91095866  1
  O  O200  1  0.01155167  0.62750711  0.15551191  1
  O  O201  1  0.00229040  0.62556761  0.42166981  1
  O  O202  1  -0.01304768  0.62966845  0.66364571  1
  O  O203  1  -0.00116506  0.62984829  0.90585880  1
  O  O204  1  0.01276761  0.86756243  0.16124445  1
  O  O205  1  0.00424538  0.87441892  0.42111318  1
  O  O206  1  -0.01282212  0.87921840  0.66238053  1
  O  O207  1  -0.00838817  0.88073943  0.90674635  1
  O  O208  1  0.24985817  0.12049298  0.16630112  1
  O  O209  1  0.24177175  0.12170055  0.41606515  1
  O  O210  1  0.25379619  0.12470944  0.66538345  1
  O  O211  1  0.24244777  0.12014336  0.90804304  1
  O  O212  1  0.25636109  0.38211072  0.16159144  1
  O  O213  1  0.24763310  0.37710819  0.41966223  1
  O  O214  1  0.25812392  0.37100578  0.66425929  1
  O  O215  1  0.24757199  0.36961407  0.90355622  1
  O  O216  1  0.25290119  0.62935491  0.16697480  1
  O  O217  1  0.24255983  0.62800381  0.42054471  1
  O  O218  1  0.25249511  0.62703182  0.66412242  1
  O  O219  1  0.25020281  0.63050968  0.89944535  1
  O  O220  1  0.24903670  0.86834045  0.16629696  1
  O  O221  1  0.25074434  0.87368885  0.42312254  1
  O  O222  1  0.26148977  0.88228971  0.66350427  1
  O  O223  1  0.25561934  0.87870396  0.89701675  1
  O  O224  1  0.49392906  0.11909532  0.16182111  1
  O  O225  1  0.49977612  0.12039829  0.41246877  1
  O  O226  1  0.50548829  0.12511447  0.66512961  1
  O  O227  1  0.50882862  0.11895010  0.91469556  1
  O  O228  1  0.48799859  0.38013191  0.15662717  1
  O  O229  1  0.50199163  0.37873016  0.41536096  1
  O  O230  1  0.50430998  0.37255521  0.66939317  1
  O  O231  1  0.49866862  0.36956001  0.91522092  1
  O  O232  1  0.48870302  0.63214101  0.15961412  1
  O  O233  1  0.50801155  0.62840637  0.41631246  1
  O  O234  1  0.51002085  0.62817200  0.66521097  1
  O  O235  1  0.49808450  0.63072596  0.90788652  1
  O  O236  1  0.49186093  0.86902911  0.15998811  1
  O  O237  1  0.49677130  0.87274661  0.41537878  1
  O  O238  1  0.50282447  0.87946217  0.66952357  1
  O  O239  1  0.50593923  0.88002104  0.91240870  1
  O  O240  1  0.75035816  0.12054182  0.16307013  1
  O  O241  1  0.75934529  0.12367143  0.40705128  1
  O  O242  1  0.74048485  0.12392906  0.66516450  1
  O  O243  1  0.75068736  0.11999492  0.92024395  1
  O  O244  1  0.74913385  0.37688981  0.15307317  1
  O  O245  1  0.75777202  0.37835173  0.40988279  1
  O  O246  1  0.74403902  0.37472130  0.67084070  1
  O  O247  1  0.75684197  0.36688965  0.91573153  1
  O  O248  1  0.74726743  0.62980082  0.15572912  1
  O  O249  1  0.74954010  0.62657090  0.41446327  1
  O  O250  1  0.74745582  0.62846640  0.67071944  1
  O  O251  1  0.75096976  0.62872628  0.91609846  1
  O  O252  1  0.74309580  0.87011075  0.15715439  1
  O  O253  1  0.74954036  0.87222324  0.41280388  1
  O  O254  1  0.74768553  0.87934309  0.66904276  1
  O  O255  1  0.74801404  0.88013641  0.91600416  1
  O  O256  1  0.13136275  0.11832108  0.03060607  1
  O  O257  1  0.12578073  0.12144097  0.30078468  1
  O  O258  1  0.12603603  0.12561471  0.54772520  1
  O  O259  1  0.11914206  0.11971681  0.79901241  1
  O  O260  1  0.12071820  0.37829885  0.02863284  1
  O  O261  1  0.13116292  0.38448380  0.28757082  1
  O  O262  1  0.11867072  0.37226629  0.54335848  1
  O  O263  1  0.11716255  0.37255577  0.77812260  1
  O  O264  1  0.13302836  0.63156549  0.04380192  1
  O  O265  1  0.12242549  0.62511706  0.30650642  1
  O  O266  1  0.11977137  0.62669181  0.54335477  1
  O  O267  1  0.12087602  0.62911522  0.77173212  1
  O  O268  1  0.13199687  0.86790998  0.04568383  1
  O  O269  1  0.12757430  0.87507969  0.30539894  1
  O  O270  1  0.12383302  0.88768793  0.54621417  1
  O  O271  1  0.11487539  0.88318780  0.77322622  1
  O  O272  1  0.36887026  0.11504886  0.02994363  1
  O  O273  1  0.37220798  0.11513979  0.28660156  1
  O  O274  1  0.37623025  0.12415928  0.54904998  1
  O  O275  1  0.37481541  0.11833278  0.79062860  1
  O  O276  1  0.36987397  0.37677155  0.04175151  1
  O  O277  1  0.37282046  0.38240278  0.28433017  1
  O  O278  1  0.38018456  0.37134913  0.55509092  1
  O  O279  1  0.38497083  0.36675775  0.77913048  1
  O  O280  1  0.36754332  0.62707049  0.04686863  1
  O  O281  1  0.37370060  0.63449172  0.29264444  1
  O  O282  1  0.38057106  0.63245560  0.54568610  1
  O  O283  1  0.38170348  0.63322728  0.77158558  1
  O  O284  1  0.37106000  0.86927787  0.04700164  1
  O  O285  1  0.37114220  0.86975658  0.30440790  1
  O  O286  1  0.38172437  0.87773796  0.55168437  1
  O  O287  1  0.38343145  0.88474223  0.79184541  1
  O  O288  1  0.62415921  0.11333028  0.03834399  1
  O  O289  1  0.61686726  0.12082064  0.27832962  1
  O  O290  1  0.62554687  0.12293984  0.54762024  1
  O  O291  1  0.63077357  0.12043278  0.80518347  1
  O  O292  1  0.62417831  0.37154655  0.02573643  1
  O  O293  1  0.61616752  0.37872068  0.28126484  1
  O  O294  1  0.62774366  0.37620527  0.55059426  1
  O  O295  1  0.61935314  0.36888550  0.79229063  1
  O  O296  1  0.61993664  0.63058968  0.02764278  1
  O  O297  1  0.62361798  0.62672043  0.29893789  1
  O  O298  1  0.62955165  0.62312561  0.55337435  1
  O  O299  1  0.63228236  0.63008748  0.78774893  1
  O  O300  1  0.62042730  0.87097320  0.04596674  1
  O  O301  1  0.62418937  0.86979499  0.29687463  1
  O  O302  1  0.62547063  0.87549158  0.54934934  1
  O  O303  1  0.62764709  0.88353784  0.79995734  1
  O  O304  1  0.87717868  0.11467327  0.03152430  1
  O  O305  1  0.88666786  0.12078523  0.29996825  1
  O  O306  1  0.86531126  0.12609101  0.53362961  1
  O  O307  1  0.87164479  0.12422628  0.80683935  1
  O  O308  1  0.88175416  0.37192304  0.02593951  1
  O  O309  1  0.88220659  0.38136685  0.29945978  1
  O  O310  1  0.86856236  0.37045881  0.53675491  1
  O  O311  1  0.87139331  0.36572605  0.80134949  1
  O  O312  1  0.87890459  0.63680514  0.02666479  1
  O  O313  1  0.88037363  0.62513906  0.29913850  1
  O  O314  1  0.86608641  0.62620380  0.55486681  1
  O  O315  1  0.86137044  0.62734409  0.78402541  1
  O  O316  1  0.88043481  0.87125298  0.03451540  1
  O  O317  1  0.88301101  0.86763810  0.28632213  1
  O  O318  1  0.86750675  0.87575745  0.54918713  1
  O  O319  1  0.86818476  0.88605270  0.79929795  1
