# generated using pymatgen
data_VFe(PbO3)2
_symmetry_space_group_name_H-M   'P 1'
_cell_length_a   15.39967133
_cell_length_b   15.37890113
_cell_length_c   18.50228579
_cell_angle_alpha   90.03194127
_cell_angle_beta   89.93127487
_cell_angle_gamma   90.01832737
_symmetry_Int_Tables_number   1
_chemical_formula_structural   VFe(PbO3)2
_chemical_formula_sum   'V32 Fe32 Pb64 O192'
_cell_volume   4381.89271026
_cell_formula_units_Z   32
loop_
 _symmetry_equiv_pos_site_id
 _symmetry_equiv_pos_as_xyz
  1  'x, y, z'
loop_
 _atom_site_type_symbol
 _atom_site_label
 _atom_site_symmetry_multiplicity
 _atom_site_fract_x
 _atom_site_fract_y
 _atom_site_fract_z
 _atom_site_occupancy
  V  V0  1  0.12471882  0.62853811  0.88462510  1
  V  V1  1  0.12519588  0.87682911  0.38778694  1
  V  V2  1  0.87151953  0.62650429  0.88230797  1
  V  V3  1  0.37700340  0.12555045  0.38897917  1
  V  V4  1  0.37370632  0.87439995  0.89156314  1
  V  V5  1  0.87894885  0.37698832  0.14013834  1
  V  V6  1  0.87380217  0.87475220  0.39422384  1
  V  V7  1  0.62186575  0.87972423  0.63932855  1
  V  V8  1  0.12632921  0.37802499  0.14021159  1
  V  V9  1  0.62548343  0.12583652  0.64426117  1
  V  V10  1  0.37255852  0.37598490  0.14020031  1
  V  V11  1  0.87515260  0.12377286  0.88526705  1
  V  V12  1  0.87310577  0.12705442  0.39098017  1
  V  V13  1  0.62420001  0.12790756  0.13671371  1
  V  V14  1  0.62649329  0.87510596  0.38816220  1
  V  V15  1  0.37487442  0.61982703  0.14311034  1
  V  V16  1  0.87380028  0.37147912  0.63789014  1
  V  V17  1  0.37439049  0.87755499  0.63750616  1
  V  V18  1  0.12421874  0.87793354  0.63480378  1
  V  V19  1  0.12570213  0.62373394  0.14455489  1
  V  V20  1  0.37289180  0.62675412  0.88389028  1
  V  V21  1  0.87679753  0.12782965  0.13848887  1
  V  V22  1  0.62605588  0.62094254  0.13957744  1
  V  V23  1  0.37453493  0.12191178  0.64771442  1
  V  V24  1  0.87261533  0.37579955  0.39624540  1
  V  V25  1  0.37487680  0.37187163  0.39741106  1
  V  V26  1  0.62453547  0.62300700  0.39427203  1
  V  V27  1  0.62416987  0.12614011  0.38817333  1
  V  V28  1  0.62380521  0.37479133  0.64523493  1
  V  V29  1  0.87330301  0.62391344  0.39643460  1
  V  V30  1  0.62612581  0.37386811  0.39264632  1
  V  V31  1  0.62659136  0.12045883  0.88909603  1
  Fe  Fe32  1  0.62212195  0.62818807  0.87537894  1
  Fe  Fe33  1  0.87827394  0.62016660  0.13442649  1
  Fe  Fe34  1  0.87321491  0.62718591  0.63223810  1
  Fe  Fe35  1  0.12276091  0.12442324  0.38541693  1
  Fe  Fe36  1  0.87063746  0.12278645  0.63650200  1
  Fe  Fe37  1  0.87594743  0.87047203  0.13430360  1
  Fe  Fe38  1  0.12510515  0.12893809  0.13569999  1
  Fe  Fe39  1  0.12294306  0.37807088  0.87570910  1
  Fe  Fe40  1  0.12434899  0.12381703  0.87575032  1
  Fe  Fe41  1  0.37563690  0.87335063  0.13908945  1
  Fe  Fe42  1  0.12599394  0.87238958  0.88784943  1
  Fe  Fe43  1  0.87731881  0.37575662  0.87975194  1
  Fe  Fe44  1  0.37351158  0.37741677  0.87255127  1
  Fe  Fe45  1  0.37561908  0.62862818  0.62888929  1
  Fe  Fe46  1  0.12550378  0.37320314  0.63218768  1
  Fe  Fe47  1  0.37674743  0.62459762  0.39576811  1
  Fe  Fe48  1  0.62650800  0.87027870  0.13398234  1
  Fe  Fe49  1  0.12325252  0.12199917  0.64593371  1
  Fe  Fe50  1  0.62485508  0.87178910  0.88992868  1
  Fe  Fe51  1  0.12421831  0.62849742  0.62564944  1
  Fe  Fe52  1  0.12350448  0.62512466  0.39957749  1
  Fe  Fe53  1  0.37706512  0.12347963  0.88650154  1
  Fe  Fe54  1  0.37781706  0.37285671  0.64352508  1
  Fe  Fe55  1  0.37669056  0.87666536  0.38338969  1
  Fe  Fe56  1  0.87160193  0.87778655  0.63045139  1
  Fe  Fe57  1  0.87662274  0.87506357  0.88813824  1
  Fe  Fe58  1  0.12291764  0.37114608  0.40155215  1
  Fe  Fe59  1  0.62620913  0.37649660  0.88041293  1
  Fe  Fe60  1  0.62552692  0.62701294  0.64282187  1
  Fe  Fe61  1  0.37504981  0.12884279  0.12822134  1
  Fe  Fe62  1  0.62421920  0.37804458  0.13496929  1
  Fe  Fe63  1  0.12487989  0.87499552  0.13382613  1
  Pb  Pb64  1  0.00988649  -0.00447058  -0.00234290  1
  Pb  Pb65  1  0.00594412  0.00018466  0.24546146  1
  Pb  Pb66  1  -0.00978924  0.00285266  0.50323427  1
  Pb  Pb67  1  -0.00755718  -0.00556079  0.74900712  1
  Pb  Pb68  1  0.00839164  0.24893482  -0.01066535  1
  Pb  Pb69  1  0.01143807  0.25441467  0.25859196  1
  Pb  Pb70  1  0.01157429  0.24090454  0.50972029  1
  Pb  Pb71  1  0.00472392  0.24734176  0.74507286  1
  Pb  Pb72  1  -0.00444943  0.50637802  -0.00568597  1
  Pb  Pb73  1  0.01648721  0.49918121  0.26529302  1
  Pb  Pb74  1  0.00564598  0.50042641  0.50663582  1
  Pb  Pb75  1  0.00426110  0.49641717  0.73895944  1
  Pb  Pb76  1  -0.00436807  0.75531422  0.00019401  1
  Pb  Pb77  1  0.00094384  0.74693712  0.24885732  1
  Pb  Pb78  1  -0.00646832  0.74963030  0.50192932  1
  Pb  Pb79  1  -0.00788724  0.75394916  0.74257400  1
  Pb  Pb80  1  0.23809929  0.01081439  -0.00031664  1
  Pb  Pb81  1  0.25082363  0.00286422  0.23887538  1
  Pb  Pb82  1  0.23949619  0.00628575  0.50038563  1
  Pb  Pb83  1  0.24032642  -0.00057076  0.75909576  1
  Pb  Pb84  1  0.24967322  0.24629198  -0.01573557  1
  Pb  Pb85  1  0.24246117  0.24843803  0.25083998  1
  Pb  Pb86  1  0.24047091  0.24626813  0.51048992  1
  Pb  Pb87  1  0.24113044  0.25786321  0.74961603  1
  Pb  Pb88  1  0.24970357  0.49619800  -0.01028092  1
  Pb  Pb89  1  0.24708247  0.51033653  0.26670712  1
  Pb  Pb90  1  0.24497727  0.50035950  0.50458427  1
  Pb  Pb91  1  0.24905885  0.49880929  0.73331055  1
  Pb  Pb92  1  0.25257423  0.75819294  0.00535430  1
  Pb  Pb93  1  0.25529673  0.75065164  0.25364516  1
  Pb  Pb94  1  0.25424992  0.74461099  0.49607596  1
  Pb  Pb95  1  0.24344806  0.75394395  0.74518490  1
  Pb  Pb96  1  0.48816027  -0.00464107  0.00503255  1
  Pb  Pb97  1  0.49389981  -0.00690400  0.24456941  1
  Pb  Pb98  1  0.50205043  0.00024282  0.49745712  1
  Pb  Pb99  1  0.49800452  0.00048383  0.75834934  1
  Pb  Pb100  1  0.49489715  0.25192907  -0.00925347  1
  Pb  Pb101  1  0.49878152  0.25334861  0.24642644  1
  Pb  Pb102  1  0.49570865  0.25657730  0.50890026  1
  Pb  Pb103  1  0.49152730  0.24744021  0.75986962  1
  Pb  Pb104  1  0.50583350  0.49456632  -0.01056329  1
  Pb  Pb105  1  0.49347787  0.50515944  0.25608962  1
  Pb  Pb106  1  0.49137771  0.49721962  0.51172838  1
  Pb  Pb107  1  0.49658789  0.50553622  0.74462863  1
  Pb  Pb108  1  0.50035180  0.75386224  0.00130169  1
  Pb  Pb109  1  0.49219402  0.75098531  0.25336713  1
  Pb  Pb110  1  0.49967309  0.74350450  0.50171617  1
  Pb  Pb111  1  0.50785030  0.75129911  0.75010201  1
  Pb  Pb112  1  0.75100457  -0.01011263  0.00035927  1
  Pb  Pb113  1  0.74998024  -0.00127813  0.24537325  1
  Pb  Pb114  1  0.75593809  0.00026443  0.50297474  1
  Pb  Pb115  1  0.75278993  -0.01291115  0.75439749  1
  Pb  Pb116  1  0.74543722  0.25640021  -0.00553698  1
  Pb  Pb117  1  0.75177904  0.25199437  0.24815579  1
  Pb  Pb118  1  0.75309680  0.24517109  0.50376750  1
  Pb  Pb119  1  0.75001530  0.25852329  0.75606086  1
  Pb  Pb120  1  0.74433726  0.49716421  -0.00669122  1
  Pb  Pb121  1  0.75301211  0.49788736  0.24983893  1
  Pb  Pb122  1  0.74505195  0.50982266  0.51036947  1
  Pb  Pb123  1  0.75148927  0.49559825  0.75030857  1
  Pb  Pb124  1  0.74911274  0.75416363  -0.00200079  1
  Pb  Pb125  1  0.75341711  0.74908089  0.24635333  1
  Pb  Pb126  1  0.74682461  0.74295914  0.50812241  1
  Pb  Pb127  1  0.74745699  0.75128599  0.74712250  1
  O  O128  1  0.12227622  0.00253893  0.16302390  1
  O  O129  1  0.12372358  -0.00241294  0.41441400  1
  O  O130  1  0.13138607  -0.00814010  0.66462547  1
  O  O131  1  0.12475697  0.00011757  0.91112138  1
  O  O132  1  0.12265243  0.25743696  0.16726260  1
  O  O133  1  0.12513526  0.24420431  0.42153265  1
  O  O134  1  0.12403427  0.24901785  0.66222550  1
  O  O135  1  0.12276593  0.24974790  0.90375333  1
  O  O136  1  0.12647829  0.49896598  0.17398849  1
  O  O137  1  0.12234201  0.49622128  0.42167816  1
  O  O138  1  0.12233340  0.50045280  0.64998341  1
  O  O139  1  0.12744763  0.51015279  0.90875246  1
  O  O140  1  0.12671376  0.74075899  0.16538872  1
  O  O141  1  0.12096829  0.76123240  0.41284653  1
  O  O142  1  0.12925865  0.76077275  0.65686685  1
  O  O143  1  0.12969814  0.74214728  0.91550362  1
  O  O144  1  0.37892554  0.00395556  0.15958567  1
  O  O145  1  0.37993862  0.00737451  0.40931860  1
  O  O146  1  0.38015333  -0.00293677  0.67101517  1
  O  O147  1  0.37867377  -0.00839602  0.91157219  1
  O  O148  1  0.37702872  0.25827358  0.16281904  1
  O  O149  1  0.38186065  0.24774975  0.42043119  1
  O  O150  1  0.38370930  0.23869382  0.66489629  1
  O  O151  1  0.37789413  0.25209200  0.90588314  1
  O  O152  1  0.37310209  0.49510179  0.17305856  1
  O  O153  1  0.38115890  0.48968072  0.41806341  1
  O  O154  1  0.37904036  0.50244104  0.65708139  1
  O  O155  1  0.37100256  0.50831384  0.90458770  1
  O  O156  1  0.37503057  0.74077852  0.16786214  1
  O  O157  1  0.37754439  0.75421551  0.41421703  1
  O  O158  1  0.37656307  0.76236487  0.65782742  1
  O  O159  1  0.37219647  0.74718787  0.91596868  1
  O  O160  1  0.62944238  0.01022300  0.16026277  1
  O  O161  1  0.62443174  0.00257965  0.41396413  1
  O  O162  1  0.62175531  -0.00171073  0.66749755  1
  O  O163  1  0.62658627  0.00425465  0.91476711  1
  O  O164  1  0.62800817  0.24913368  0.16434699  1
  O  O165  1  0.62618874  0.24980954  0.41718589  1
  O  O166  1  0.62598172  0.24408460  0.66613618  1
  O  O167  1  0.62779882  0.24445399  0.91041762  1
  O  O168  1  0.62420742  0.50355688  0.16971494  1
  O  O169  1  0.62680587  0.50194628  0.41779465  1
  O  O170  1  0.62583997  0.49258575  0.65944937  1
  O  O171  1  0.62570927  0.50558955  0.90989796  1
  O  O172  1  0.62496424  0.73802336  0.16375081  1
  O  O173  1  0.62708224  0.74649577  0.41400282  1
  O  O174  1  0.62154896  0.76187623  0.66083027  1
  O  O175  1  0.62422354  0.74522642  0.91560331  1
  O  O176  1  0.87176525  0.00976292  0.16093008  1
  O  O177  1  0.87108223  0.00169946  0.41513617  1
  O  O178  1  0.87144426  -0.00198468  0.66762066  1
  O  O179  1  0.87173678  0.00830843  0.91370637  1
  O  O180  1  0.87282683  0.25412962  0.16653605  1
  O  O181  1  0.86605147  0.25322613  0.41630889  1
  O  O182  1  0.86828177  0.25291177  0.66256033  1
  O  O183  1  0.87200229  0.24262487  0.90940938  1
  O  O184  1  0.87591372  0.49317883  0.16649445  1
  O  O185  1  0.86918829  0.49505088  0.42008542  1
  O  O186  1  0.87076349  0.49167837  0.65704594  1
  O  O187  1  0.88103060  0.50918182  0.90780044  1
  O  O188  1  0.87562555  0.74373474  0.16814223  1
  O  O189  1  0.87218849  0.75070389  0.41577027  1
  O  O190  1  0.87440324  0.75531229  0.65955674  1
  O  O191  1  0.87971435  0.74088273  0.91044574  1
  O  O192  1  -0.00927681  0.13094899  0.16239198  1
  O  O193  1  -0.00731094  0.12595413  0.41270536  1
  O  O194  1  -0.00446436  0.12201682  0.66141315  1
  O  O195  1  -0.00766126  0.12489593  0.90501148  1
  O  O196  1  -0.00263142  0.37533327  0.16493031  1
  O  O197  1  -0.01356320  0.37184000  0.42029714  1
  O  O198  1  -0.00830322  0.37163268  0.65422890  1
  O  O199  1  -0.00002928  0.37756115  0.91123395  1
  O  O200  1  0.00815060  0.61960146  0.16653860  1
  O  O201  1  -0.00805486  0.62446323  0.41758649  1
  O  O202  1  -0.00027388  0.62911914  0.65717398  1
  O  O203  1  0.00725152  0.62694840  0.90786073  1
  O  O204  1  -0.00059994  0.87303705  0.16719002  1
  O  O205  1  0.00043078  0.87887894  0.41560817  1
  O  O206  1  0.00719911  0.87838800  0.65181446  1
  O  O207  1  0.00038574  0.87210740  0.91388939  1
  O  O208  1  0.25171617  0.13108200  0.16127114  1
  O  O209  1  0.26056549  0.12722041  0.41083568  1
  O  O210  1  0.26015495  0.12052971  0.66418892  1
  O  O211  1  0.25016073  0.12284873  0.90576977  1
  O  O212  1  0.25308311  0.37535343  0.16616449  1
  O  O213  1  0.25965368  0.37081996  0.41626391  1
  O  O214  1  0.25113612  0.37100629  0.65560071  1
  O  O215  1  0.24883546  0.37806314  0.90604013  1
  O  O216  1  0.24772719  0.61921692  0.17200855  1
  O  O217  1  0.25111580  0.62339797  0.41682436  1
  O  O218  1  0.24973340  0.63035477  0.65344810  1
  O  O219  1  0.25125631  0.62744551  0.91303257  1
  O  O220  1  0.24910766  0.87165537  0.16561259  1
  O  O221  1  0.24356291  0.87867100  0.40745637  1
  O  O222  1  0.25603473  0.87962537  0.66032351  1
  O  O223  1  0.25739699  0.87189413  0.91687127  1
  O  O224  1  0.50777843  0.13094873  0.15873422  1
  O  O225  1  0.49962417  0.12652703  0.41680379  1
  O  O226  1  0.50645746  0.12001353  0.67212523  1
  O  O227  1  0.50952250  0.12387040  0.91371542  1
  O  O228  1  0.49369383  0.37776021  0.16441234  1
  O  O229  1  0.50397113  0.37241603  0.42175592  1
  O  O230  1  0.50919083  0.36935655  0.66704482  1
  O  O231  1  0.49911278  0.37915380  0.90410081  1
  O  O232  1  0.50151679  0.61924328  0.16699247  1
  O  O233  1  0.50841261  0.62403996  0.41545353  1
  O  O234  1  0.49860593  0.62934927  0.66164261  1
  O  O235  1  0.48957843  0.62684404  0.90499367  1
  O  O236  1  0.50465370  0.87258962  0.16639452  1
  O  O237  1  0.50729938  0.87613607  0.41405457  1
  O  O238  1  0.49870446  0.87963990  0.66310180  1
  O  O239  1  0.49321069  0.86941989  0.91488651  1
  O  O240  1  0.75132458  0.13107522  0.16584921  1
  O  O241  1  0.74721171  0.12530213  0.41593991  1
  O  O242  1  0.74030093  0.11980707  0.66698125  1
  O  O243  1  0.74850185  0.12458160  0.91400199  1
  O  O244  1  0.75610010  0.37628112  0.16515784  1
  O  O245  1  0.74789982  0.37520648  0.42172540  1
  O  O246  1  0.74734880  0.37120569  0.66444129  1
  O  O247  1  0.75317337  0.37766087  0.91287175  1
  O  O248  1  0.74497255  0.61933856  0.16261284  1
  O  O249  1  0.74645542  0.62440550  0.41982554  1
  O  O250  1  0.75108246  0.62679163  0.66558373  1
  O  O251  1  0.75648015  0.62458669  0.89587169  1
  O  O252  1  0.75008647  0.87411342  0.16794779  1
  O  O253  1  0.74590113  0.87601878  0.41636184  1
  O  O254  1  0.74089924  0.87837909  0.65788414  1
  O  O255  1  0.75177964  0.87289421  0.91555535  1
  O  O256  1  0.12195959  0.12561858  0.03545678  1
  O  O257  1  0.12135668  0.13437141  0.28539422  1
  O  O258  1  0.13288227  0.12346380  0.54249833  1
  O  O259  1  0.12737385  0.12089877  0.77397102  1
  O  O260  1  0.12628725  0.38150192  0.04959917  1
  O  O261  1  0.11631668  0.37257899  0.29880678  1
  O  O262  1  0.12298925  0.36499828  0.52875160  1
  O  O263  1  0.12128180  0.37803448  0.77487227  1
  O  O264  1  0.12978621  0.61956847  0.05420024  1
  O  O265  1  0.12331258  0.61669392  0.29706562  1
  O  O266  1  0.12142358  0.63082106  0.52398122  1
  O  O267  1  0.12759417  0.63190720  0.79350422  1
  O  O268  1  0.12519955  0.87470603  0.03323275  1
  O  O269  1  0.11945910  0.87809010  0.29662469  1
  O  O270  1  0.13157840  0.88201644  0.54367298  1
  O  O271  1  0.13459965  0.87182181  0.78736540  1
  O  O272  1  0.38154857  0.12696980  0.02799064  1
  O  O273  1  0.38170562  0.13315093  0.29831369  1
  O  O274  1  0.38136375  0.11633301  0.55641733  1
  O  O275  1  0.38843204  0.11932171  0.78589390  1
  O  O276  1  0.37131182  0.38089721  0.04966686  1
  O  O277  1  0.38024269  0.36790385  0.30638366  1
  O  O278  1  0.39091643  0.36958475  0.54134976  1
  O  O279  1  0.37556952  0.37416329  0.77151731  1
  O  O280  1  0.37350679  0.61735540  0.05258034  1
  O  O281  1  0.37687130  0.61718901  0.29375182  1
  O  O282  1  0.38304132  0.62864050  0.52660373  1
  O  O283  1  0.36862882  0.63210283  0.79307534  1
  O  O284  1  0.38196481  0.86642223  0.03858034  1
  O  O285  1  0.38255076  0.87239057  0.28299255  1
  O  O286  1  0.37618053  0.88426633  0.54649395  1
  O  O287  1  0.37273474  0.87059192  0.80030887  1
  O  O288  1  0.62863865  0.12965679  0.04627574  1
  O  O289  1  0.62334922  0.12728292  0.29742902  1
  O  O290  1  0.62190300  0.12300980  0.55306906  1
  O  O291  1  0.62693595  0.11945249  0.79799382  1
  O  O292  1  0.62675312  0.38354862  0.03576697  1
  O  O293  1  0.62525419  0.37561221  0.30145705  1
  O  O294  1  0.62464634  0.36808289  0.55366841  1
  O  O295  1  0.63660967  0.37399997  0.78031912  1
  O  O296  1  0.62344886  0.61795167  0.04878142  1
  O  O297  1  0.62791569  0.62149412  0.30339373  1
  O  O298  1  0.63153610  0.62982639  0.54027873  1
  O  O299  1  0.61963163  0.63300492  0.77428504  1
  O  O300  1  0.62820352  0.86805107  0.03402834  1
  O  O301  1  0.62794572  0.87497978  0.29691730  1
  O  O302  1  0.61846245  0.88278929  0.54805582  1
  O  O303  1  0.62468161  0.87071900  0.78930069  1
  O  O304  1  0.87452979  0.13107739  0.04828568  1
  O  O305  1  0.87087596  0.12815624  0.29978275  1
  O  O306  1  0.86512058  0.12017677  0.53561558  1
  O  O307  1  0.87058568  0.12028830  0.79413540  1
  O  O308  1  0.87889162  0.37633392  0.04950125  1
  O  O309  1  0.87195626  0.37775899  0.30503848  1
  O  O310  1  0.86713108  0.36825959  0.54685385  1
  O  O311  1  0.86975001  0.37721579  0.78014973  1
  O  O312  1  0.88212319  0.62115578  0.03569083  1
  O  O313  1  0.87041970  0.62007286  0.30493835  1
  O  O314  1  0.86443528  0.62808224  0.53129825  1
  O  O315  1  0.88290309  0.62888521  0.79120048  1
  O  O316  1  0.87256395  0.86791929  0.03423943  1
  O  O317  1  0.87314826  0.87612873  0.30298845  1
  O  O318  1  0.87451056  0.88519796  0.52948002  1
  O  O319  1  0.87667689  0.87887384  0.78656925  1
