# generated using pymatgen
data_VFe(PbO3)2
_symmetry_space_group_name_H-M   'P 1'
_cell_length_a   15.38948558
_cell_length_b   15.38183037
_cell_length_c   18.53117792
_cell_angle_alpha   90.01505765
_cell_angle_beta   89.95952519
_cell_angle_gamma   89.98357742
_symmetry_Int_Tables_number   1
_chemical_formula_structural   VFe(PbO3)2
_chemical_formula_sum   'V32 Fe32 Pb64 O192'
_cell_volume   4386.67041295
_cell_formula_units_Z   32
loop_
 _symmetry_equiv_pos_site_id
 _symmetry_equiv_pos_as_xyz
  1  'x, y, z'
loop_
 _atom_site_type_symbol
 _atom_site_label
 _atom_site_symmetry_multiplicity
 _atom_site_fract_x
 _atom_site_fract_y
 _atom_site_fract_z
 _atom_site_occupancy
  V  V0  1  0.62209884  0.37490182  0.39244261  1
  V  V1  1  0.37247877  0.87332301  0.14014616  1
  V  V2  1  0.37658734  0.12643334  0.39184133  1
  V  V3  1  0.87389560  0.61979040  0.63851388  1
  V  V4  1  0.12572973  0.12797108  0.39227996  1
  V  V5  1  0.37811904  0.87628715  0.39592725  1
  V  V6  1  0.62040592  0.12548155  0.38766179  1
  V  V7  1  0.62487863  0.62344074  0.13321284  1
  V  V8  1  0.87533489  0.62256537  0.38753900  1
  V  V9  1  0.12551702  0.12733036  0.88978261  1
  V  V10  1  0.12471223  0.87874335  0.88900041  1
  V  V11  1  0.37394202  0.62659706  0.13770779  1
  V  V12  1  0.87058351  0.12218333  0.63751475  1
  V  V13  1  0.37180532  0.62765337  0.87968485  1
  V  V14  1  0.11868596  0.37146143  0.63408995  1
  V  V15  1  0.87459565  0.87416218  0.63649905  1
  V  V16  1  0.12734764  0.37557458  0.13933824  1
  V  V17  1  0.37614089  0.62426922  0.40583470  1
  V  V18  1  0.87659516  0.87813386  0.89213659  1
  V  V19  1  0.12807287  0.12432695  0.14335254  1
  V  V20  1  0.62214463  0.12652735  0.13561202  1
  V  V21  1  0.62421766  0.62414433  0.39287075  1
  V  V22  1  0.62996590  0.87626250  0.64366013  1
  V  V23  1  0.12634104  0.62351873  0.14207541  1
  V  V24  1  0.12636925  0.37645650  0.39375206  1
  V  V25  1  0.37308028  0.12338198  0.63663009  1
  V  V26  1  0.37803085  0.12307245  0.88901333  1
  V  V27  1  0.62401327  0.12410366  0.64072106  1
  V  V28  1  0.63582995  0.12398493  0.88903937  1
  V  V29  1  0.37228838  0.37838562  0.13667337  1
  V  V30  1  0.12632373  0.37705335  0.88603619  1
  V  V31  1  0.37614755  0.37497431  0.40139615  1
  Fe  Fe32  1  0.62675996  0.62714494  0.87503081  1
  Fe  Fe33  1  0.37303198  0.12444748  0.13568902  1
  Fe  Fe34  1  0.12939836  0.87284684  0.14350207  1
  Fe  Fe35  1  0.62085129  0.37678293  0.12909654  1
  Fe  Fe36  1  0.87462815  0.62433907  0.13070453  1
  Fe  Fe37  1  0.62178667  0.87358695  0.38342575  1
  Fe  Fe38  1  0.37686279  0.62619337  0.63156352  1
  Fe  Fe39  1  0.87595313  0.37148005  0.63275872  1
  Fe  Fe40  1  0.87535710  0.37778192  0.13352848  1
  Fe  Fe41  1  0.12569114  0.87451688  0.38903286  1
  Fe  Fe42  1  0.37742024  0.87728716  0.64130626  1
  Fe  Fe43  1  0.86957449  0.12756202  0.37581073  1
  Fe  Fe44  1  0.37209712  0.87609421  0.87702494  1
  Fe  Fe45  1  0.87658782  0.12502440  0.14527482  1
  Fe  Fe46  1  0.62377196  0.37284097  0.88577988  1
  Fe  Fe47  1  0.88067148  0.62619426  0.88649674  1
  Fe  Fe48  1  0.87226927  0.37692578  0.39110263  1
  Fe  Fe49  1  0.12029208  0.12496259  0.62942481  1
  Fe  Fe50  1  0.87934862  0.37070106  0.88742253  1
  Fe  Fe51  1  0.12817664  0.62376745  0.39979943  1
  Fe  Fe52  1  0.37415768  0.37220410  0.63793929  1
  Fe  Fe53  1  0.62940953  0.37110342  0.64007240  1
  Fe  Fe54  1  0.12498536  0.62804522  0.88037921  1
  Fe  Fe55  1  0.36974132  0.37351280  0.87791291  1
  Fe  Fe56  1  0.87594588  0.87153758  0.14119957  1
  Fe  Fe57  1  0.88204695  0.12304792  0.89088909  1
  Fe  Fe58  1  0.62047444  0.87349035  0.13127837  1
  Fe  Fe59  1  0.87058116  0.87343357  0.38062683  1
  Fe  Fe60  1  0.62551567  0.87898981  0.89116675  1
  Fe  Fe61  1  0.62896885  0.62545119  0.64789948  1
  Fe  Fe62  1  0.12027698  0.88020015  0.62753014  1
  Fe  Fe63  1  0.12080209  0.62635081  0.62683758  1
  Pb  Pb64  1  -0.00418286  -0.00451554  0.01288478  1
  Pb  Pb65  1  -0.00773623  -0.00721526  0.25236081  1
  Pb  Pb66  1  0.00202260  -0.00119465  0.49127125  1
  Pb  Pb67  1  -0.00431018  0.00694145  0.74708153  1
  Pb  Pb68  1  -0.00845829  0.24931149  0.00664925  1
  Pb  Pb69  1  -0.01022461  0.25374498  0.25212637  1
  Pb  Pb70  1  -0.01013193  0.25067663  0.49750237  1
  Pb  Pb71  1  -0.01098077  0.24868886  0.75169235  1
  Pb  Pb72  1  -0.00903638  0.50549308  -0.00216680  1
  Pb  Pb73  1  -0.00436325  0.49883445  0.25140904  1
  Pb  Pb74  1  0.00072283  0.50285172  0.50177130  1
  Pb  Pb75  1  -0.00281956  0.51000878  0.75213763  1
  Pb  Pb76  1  -0.00199148  0.75013049  0.00260868  1
  Pb  Pb77  1  -0.00114196  0.75453469  0.25107665  1
  Pb  Pb78  1  0.00611540  0.75421223  0.49493071  1
  Pb  Pb79  1  0.00318554  0.74369735  0.74931664  1
  Pb  Pb80  1  0.24888238  -0.00179280  0.00178520  1
  Pb  Pb81  1  0.24661668  -0.00663781  0.25581088  1
  Pb  Pb82  1  0.24076752  -0.00041600  0.50590914  1
  Pb  Pb83  1  0.24747521  -0.00562412  0.74323268  1
  Pb  Pb84  1  0.25396584  0.24255544  0.00077688  1
  Pb  Pb85  1  0.25023495  0.25238032  0.25065241  1
  Pb  Pb86  1  0.25098200  0.24962815  0.50583906  1
  Pb  Pb87  1  0.24956943  0.25494782  0.74689646  1
  Pb  Pb88  1  0.25178955  0.50310764  -0.00867173  1
  Pb  Pb89  1  0.24559287  0.50735890  0.25793400  1
  Pb  Pb90  1  0.26045190  0.49869585  0.51277027  1
  Pb  Pb91  1  0.24865937  0.50358977  0.73758530  1
  Pb  Pb92  1  0.24453984  0.75794967  -0.00270743  1
  Pb  Pb93  1  0.23914669  0.74413363  0.26378881  1
  Pb  Pb94  1  0.25139628  0.75743264  0.50748462  1
  Pb  Pb95  1  0.24435328  0.75061503  0.73318176  1
  Pb  Pb96  1  0.50078959  -0.00470422  -0.00071163  1
  Pb  Pb97  1  0.50505486  -0.00429956  0.24839694  1
  Pb  Pb98  1  0.49475818  -0.00492169  0.50501064  1
  Pb  Pb99  1  0.50399194  -0.00814064  0.75712544  1
  Pb  Pb100  1  0.50023157  0.25493177  -0.00325349  1
  Pb  Pb101  1  0.49807038  0.25163895  0.24455585  1
  Pb  Pb102  1  0.50224681  0.25866988  0.50734363  1
  Pb  Pb103  1  0.50216482  0.25842409  0.75122816  1
  Pb  Pb104  1  0.50461553  0.49646032  -0.01364966  1
  Pb  Pb105  1  0.49799422  0.50167797  0.24732146  1
  Pb  Pb106  1  0.50692127  0.50658777  0.51480306  1
  Pb  Pb107  1  0.50194801  0.49580940  0.74175238  1
  Pb  Pb108  1  0.50335057  0.75498357  -0.01040003  1
  Pb  Pb109  1  0.50219069  0.75206425  0.25067639  1
  Pb  Pb110  1  0.49560210  0.74993840  0.51184762  1
  Pb  Pb111  1  0.49882383  0.74865833  0.74751454  1
  Pb  Pb112  1  0.76631453  -0.00359941  0.01325634  1
  Pb  Pb113  1  0.75231735  -0.00533748  0.24561074  1
  Pb  Pb114  1  0.75287919  -0.00174016  0.48876050  1
  Pb  Pb115  1  0.74860993  -0.00099452  0.75648152  1
  Pb  Pb116  1  0.75711333  0.26154588  0.00142601  1
  Pb  Pb117  1  0.75394531  0.25412363  0.24448578  1
  Pb  Pb118  1  0.74927978  0.25901839  0.50071844  1
  Pb  Pb119  1  0.75662066  0.25755307  0.75502290  1
  Pb  Pb120  1  0.75339410  0.49990789  -0.01304311  1
  Pb  Pb121  1  0.75540821  0.49239000  0.24515772  1
  Pb  Pb122  1  0.73905447  0.49848459  0.50844858  1
  Pb  Pb123  1  0.74302063  0.48907497  0.75428916  1
  Pb  Pb124  1  0.75119550  0.74692085  -0.00570766  1
  Pb  Pb125  1  0.75074404  0.75698798  0.24418896  1
  Pb  Pb126  1  0.74396999  0.74310243  0.49959420  1
  Pb  Pb127  1  0.75236218  0.74473462  0.75789143  1
  O  O128  1  0.13075157  0.00635878  0.16691893  1
  O  O129  1  0.13078706  0.00724085  0.40937760  1
  O  O130  1  0.12254677  0.00342899  0.66342833  1
  O  O131  1  0.12783960  -0.00149606  0.91469125  1
  O  O132  1  0.13012048  0.25041788  0.16736453  1
  O  O133  1  0.13001668  0.25047676  0.41671362  1
  O  O134  1  0.12251172  0.25148627  0.65906151  1
  O  O135  1  0.12939490  0.24435002  0.91116426  1
  O  O136  1  0.13098641  0.50256940  0.16888080  1
  O  O137  1  0.12670823  0.49153326  0.41793401  1
  O  O138  1  0.11975763  0.49191505  0.65605058  1
  O  O139  1  0.12774265  0.49384355  0.90549437  1
  O  O140  1  0.13149571  0.74035207  0.16811125  1
  O  O141  1  0.12869746  0.75048941  0.41752432  1
  O  O142  1  0.11920736  0.75364088  0.65100581  1
  O  O143  1  0.12564036  0.75935808  0.91078836  1
  O  O144  1  0.37404770  -0.00784646  0.16310696  1
  O  O145  1  0.38011031  -0.00230197  0.41512129  1
  O  O146  1  0.38111734  0.00938162  0.66426374  1
  O  O147  1  0.36813953  0.00535018  0.91172893  1
  O  O148  1  0.37259020  0.25544884  0.16355734  1
  O  O149  1  0.37627915  0.24940642  0.42026248  1
  O  O150  1  0.37821740  0.23917732  0.66332801  1
  O  O151  1  0.36629062  0.24257527  0.91164937  1
  O  O152  1  0.37346246  0.50191389  0.16859097  1
  O  O153  1  0.37714484  0.50197671  0.42522106  1
  O  O154  1  0.37325585  0.49894103  0.65789444  1
  O  O155  1  0.36905520  0.50519546  0.90498244  1
  O  O156  1  0.37492404  0.75014313  0.16647177  1
  O  O157  1  0.38031650  0.75020660  0.42103611  1
  O  O158  1  0.37694959  0.75098932  0.66159990  1
  O  O159  1  0.37078471  0.74582932  0.90412255  1
  O  O160  1  0.61880284  0.00572311  0.15924727  1
  O  O161  1  0.61936100  0.00738534  0.40920568  1
  O  O162  1  0.63038006  0.00299221  0.66913234  1
  O  O163  1  0.62050461  0.01103604  0.91812435  1
  O  O164  1  0.61955136  0.24675906  0.16155391  1
  O  O165  1  0.61753361  0.24818931  0.41466038  1
  O  O166  1  0.62911116  0.23862982  0.66447313  1
  O  O167  1  0.62063079  0.23807001  0.91522635  1
  O  O168  1  0.61772947  0.50647108  0.16123042  1
  O  O169  1  0.62367449  0.50185603  0.42037202  1
  O  O170  1  0.63104645  0.49745467  0.66596750  1
  O  O171  1  0.62266929  0.50221181  0.90485859  1
  O  O172  1  0.61714167  0.74106508  0.15921622  1
  O  O173  1  0.62270962  0.74180319  0.41276093  1
  O  O174  1  0.63200622  0.76115681  0.66386989  1
  O  O175  1  0.62368847  0.75049722  0.91038908  1
  O  O176  1  0.87544268  -0.00057707  0.16807597  1
  O  O177  1  0.87070595  0.00385377  0.40559541  1
  O  O178  1  0.87040276  0.00028524  0.66445803  1
  O  O179  1  0.88124133  -0.00378558  0.92095563  1
  O  O180  1  0.87684486  0.25294808  0.16332270  1
  O  O181  1  0.87480195  0.24849034  0.41134249  1
  O  O182  1  0.87443356  0.23991616  0.65939607  1
  O  O183  1  0.88124259  0.24576917  0.92084281  1
  O  O184  1  0.87689120  0.50265102  0.16589412  1
  O  O185  1  0.87042337  0.50679367  0.41697071  1
  O  O186  1  0.87703923  0.50400262  0.65340353  1
  O  O187  1  0.88166617  0.49748002  0.90817625  1
  O  O188  1  0.87562895  0.74404374  0.16543636  1
  O  O189  1  0.86859282  0.73925906  0.41165384  1
  O  O190  1  0.87334357  0.75957836  0.66021219  1
  O  O191  1  0.88082029  0.76079128  0.91461117  1
  O  O192  1  0.01262395  0.12694411  0.16809234  1
  O  O193  1  0.00775179  0.12690314  0.40415974  1
  O  O194  1  -0.00953770  0.12057725  0.65748910  1
  O  O195  1  0.01242921  0.12151301  0.91933977  1
  O  O196  1  0.00780882  0.37834603  0.16522288  1
  O  O197  1  0.00768106  0.37238256  0.41386695  1
  O  O198  1  0.00300510  0.37051006  0.65973352  1
  O  O199  1  0.01357020  0.36811547  0.91386059  1
  O  O200  1  0.01029275  0.62247243  0.16081395  1
  O  O201  1  -0.00829263  0.62241831  0.40899363  1
  O  O202  1  -0.00757703  0.62874035  0.66135590  1
  O  O203  1  0.00625885  0.62870881  0.91814793  1
  O  O204  1  0.00462190  0.87211053  0.16748069  1
  O  O205  1  -0.00325622  0.87520873  0.40692589  1
  O  O206  1  -0.01052554  0.88301087  0.65577695  1
  O  O207  1  0.00443513  0.87879836  0.91497575  1
  O  O208  1  0.24710356  0.12690013  0.17151695  1
  O  O209  1  0.25424126  0.12611470  0.41808944  1
  O  O210  1  0.25655239  0.12400931  0.65460218  1
  O  O211  1  0.24446477  0.12208061  0.91651888  1
  O  O212  1  0.25023734  0.37766478  0.17031087  1
  O  O213  1  0.24740150  0.37418422  0.42213237  1
  O  O214  1  0.24047440  0.37035745  0.65942624  1
  O  O215  1  0.24395911  0.37160800  0.91412065  1
  O  O216  1  0.25142830  0.62292597  0.17089623  1
  O  O217  1  0.25936041  0.62474630  0.42310572  1
  O  O218  1  0.24638553  0.62462302  0.65064017  1
  O  O219  1  0.25171965  0.62608468  0.90995724  1
  O  O220  1  0.25840045  0.87197370  0.17118946  1
  O  O221  1  0.26091179  0.87440757  0.41686933  1
  O  O222  1  0.24803924  0.88066367  0.65662547  1
  O  O223  1  0.24560232  0.87689911  0.91168452  1
  O  O224  1  0.50105901  0.12665865  0.16346510  1
  O  O225  1  0.49972569  0.12678444  0.42057776  1
  O  O226  1  0.50672245  0.12292677  0.66193521  1
  O  O227  1  0.49256639  0.12467670  0.90803936  1
  O  O228  1  0.49440014  0.37775405  0.16405204  1
  O  O229  1  0.50053006  0.37697808  0.42443484  1
  O  O230  1  0.50161168  0.36888465  0.66102252  1
  O  O231  1  0.49384451  0.37018582  0.90745052  1
  O  O232  1  0.49715933  0.62334847  0.16519635  1
  O  O233  1  0.50447639  0.62188250  0.42165918  1
  O  O234  1  0.50159026  0.62703185  0.66351805  1
  O  O235  1  0.48951278  0.62576085  0.90141649  1
  O  O236  1  0.49198968  0.87180830  0.16423326  1
  O  O237  1  0.49815554  0.87352214  0.42084606  1
  O  O238  1  0.51182411  0.88085874  0.66475913  1
  O  O239  1  0.49466930  0.87931736  0.91177403  1
  O  O240  1  0.73878584  0.12614339  0.16110060  1
  O  O241  1  0.73792281  0.12873548  0.40549747  1
  O  O242  1  0.75153178  0.12156607  0.66542758  1
  O  O243  1  0.74924346  0.12316734  0.90755038  1
  O  O244  1  0.74581442  0.37718794  0.15906020  1
  O  O245  1  0.74241736  0.37376704  0.41338356  1
  O  O246  1  0.75514041  0.37006746  0.66716609  1
  O  O247  1  0.75032022  0.36956489  0.91042572  1
  O  O248  1  0.74016917  0.62317466  0.15340499  1
  O  O249  1  0.74475449  0.62196670  0.41456487  1
  O  O250  1  0.76203246  0.63103039  0.66799774  1
  O  O251  1  0.75279252  0.62920375  0.90698316  1
  O  O252  1  0.74452363  0.87279754  0.15964084  1
  O  O253  1  0.74531861  0.87353011  0.41211114  1
  O  O254  1  0.75221855  0.88095076  0.66895368  1
  O  O255  1  0.75894384  0.87964936  0.91312757  1
  O  O256  1  0.13046334  0.12589188  0.05212776  1
  O  O257  1  0.13611858  0.13292656  0.30202105  1
  O  O258  1  0.12533651  0.11946371  0.52995529  1
  O  O259  1  0.12391662  0.12463592  0.79872810  1
  O  O260  1  0.12897246  0.37653064  0.04896719  1
  O  O261  1  0.13041608  0.37524086  0.30275530  1
  O  O262  1  0.11945939  0.37065042  0.54270096  1
  O  O263  1  0.12706691  0.37142381  0.79493411  1
  O  O264  1  0.13258497  0.62274571  0.05133962  1
  O  O265  1  0.13707395  0.62176004  0.29830915  1
  O  O266  1  0.11164307  0.61976355  0.52552186  1
  O  O267  1  0.11359611  0.62534797  0.78059164  1
  O  O268  1  0.13730869  0.87158889  0.04376394  1
  O  O269  1  0.13660664  0.87182653  0.28758498  1
  O  O270  1  0.12197475  0.88649889  0.52599156  1
  O  O271  1  0.12387952  0.88112627  0.79808465  1
  O  O272  1  0.36608167  0.12560873  0.03698995  1
  O  O273  1  0.37740689  0.12559075  0.30105711  1
  O  O274  1  0.37960470  0.12280594  0.54529505  1
  O  O275  1  0.37269210  0.12411396  0.79805994  1
  O  O276  1  0.36962823  0.38065461  0.04581188  1
  O  O277  1  0.37560482  0.37770412  0.31056385  1
  O  O278  1  0.36893842  0.36925939  0.53655778  1
  O  O279  1  0.36605857  0.36600102  0.77800647  1
  O  O280  1  0.37111922  0.62546300  0.04834510  1
  O  O281  1  0.37956663  0.62401488  0.31448846  1
  O  O282  1  0.38508410  0.62759164  0.52976769  1
  O  O283  1  0.36732757  0.62653209  0.78873448  1
  O  O284  1  0.36891182  0.87098874  0.04906244  1
  O  O285  1  0.38046346  0.87293298  0.30505614  1
  O  O286  1  0.38503500  0.87664960  0.54013656  1
  O  O287  1  0.37706719  0.88220239  0.77714194  1
  O  O288  1  0.62122158  0.12763066  0.04495581  1
  O  O289  1  0.61269982  0.12895238  0.29714834  1
  O  O290  1  0.62724715  0.12202101  0.55003274  1
  O  O291  1  0.62810970  0.12277455  0.79775357  1
  O  O292  1  0.61508814  0.37296161  0.02931502  1
  O  O293  1  0.61759641  0.37772720  0.30148325  1
  O  O294  1  0.63293372  0.37103935  0.53837210  1
  O  O295  1  0.62878086  0.36722118  0.78405345  1
  O  O296  1  0.61874337  0.62256921  0.04245083  1
  O  O297  1  0.62186856  0.61890311  0.30239193  1
  O  O298  1  0.63511313  0.62274949  0.54534278  1
  O  O299  1  0.63298514  0.63222053  0.77400729  1
  O  O300  1  0.61497394  0.87672185  0.03092446  1
  O  O301  1  0.61286565  0.87209306  0.28378827  1
  O  O302  1  0.63150757  0.88014692  0.55261466  1
  O  O303  1  0.62881103  0.88844001  0.79099202  1
  O  O304  1  0.88184700  0.11530718  0.04324424  1
  O  O305  1  0.87262300  0.13179502  0.27512274  1
  O  O306  1  0.86729770  0.11901909  0.54645925  1
  O  O307  1  0.88842053  0.12440328  0.79100110  1
  O  O308  1  0.87855907  0.37241935  0.03290597  1
  O  O309  1  0.87523954  0.38266008  0.29039119  1
  O  O310  1  0.87353354  0.36426394  0.53173978  1
  O  O311  1  0.88130568  0.36086940  0.78616709  1
  O  O312  1  0.88153963  0.62564123  0.03031628  1
  O  O313  1  0.87112872  0.61966914  0.29638618  1
  O  O314  1  0.87179241  0.62961621  0.54756106  1
  O  O315  1  0.88964168  0.63247131  0.78539550  1
  O  O316  1  0.87835069  0.88283927  0.03954582  1
  O  O317  1  0.86982608  0.86939708  0.27963996  1
  O  O318  1  0.86756550  0.87719231  0.54557196  1
  O  O319  1  0.87969267  0.88027088  0.80113756  1
