# generated using pymatgen
data_VFe(PbO3)2
_symmetry_space_group_name_H-M   'P 1'
_cell_length_a   15.38157428
_cell_length_b   15.37653473
_cell_length_c   18.53368898
_cell_angle_alpha   90.03068301
_cell_angle_beta   90.03162111
_cell_angle_gamma   89.98036807
_symmetry_Int_Tables_number   1
_chemical_formula_structural   VFe(PbO3)2
_chemical_formula_sum   'V32 Fe32 Pb64 O192'
_cell_volume   4383.49966115
_cell_formula_units_Z   32
loop_
 _symmetry_equiv_pos_site_id
 _symmetry_equiv_pos_as_xyz
  1  'x, y, z'
loop_
 _atom_site_type_symbol
 _atom_site_label
 _atom_site_symmetry_multiplicity
 _atom_site_fract_x
 _atom_site_fract_y
 _atom_site_fract_z
 _atom_site_occupancy
  V  V0  1  0.12387559  0.12499462  0.64394870  1
  V  V1  1  0.87384646  0.62338331  0.38878499  1
  V  V2  1  0.12678786  0.37491482  0.39109211  1
  V  V3  1  0.37773803  0.62689681  0.88275827  1
  V  V4  1  0.12566428  0.12833552  0.13865842  1
  V  V5  1  0.62706942  0.37575623  0.64495384  1
  V  V6  1  0.62825570  0.87533939  0.63786845  1
  V  V7  1  0.12787491  0.87423833  0.14118025  1
  V  V8  1  0.37306226  0.37280684  0.64629357  1
  V  V9  1  0.37394495  0.37710252  0.39017253  1
  V  V10  1  0.12354306  0.62605237  0.88498222  1
  V  V11  1  0.37633648  0.37217700  0.13604275  1
  V  V12  1  0.62554217  0.12453030  0.64236923  1
  V  V13  1  0.37681707  0.62658220  0.13703261  1
  V  V14  1  0.62869734  0.62555644  0.13831594  1
  V  V15  1  0.88387729  0.62687601  0.13370005  1
  V  V16  1  0.12492910  0.62479266  0.39612961  1
  V  V17  1  0.62452531  0.12469666  0.13839158  1
  V  V18  1  0.62357276  0.87789622  0.88760328  1
  V  V19  1  0.37468903  0.62335141  0.39742916  1
  V  V20  1  0.12075419  0.37554664  0.64445133  1
  V  V21  1  0.62272162  0.37645924  0.39088703  1
  V  V22  1  0.62451321  0.62545746  0.64387200  1
  V  V23  1  0.87318168  0.12385280  0.88861128  1
  V  V24  1  0.37783676  0.87479022  0.14120026  1
  V  V25  1  0.37310089  0.87453626  0.39289536  1
  V  V26  1  0.37691624  0.12392986  0.88417421  1
  V  V27  1  0.87559266  0.12727126  0.38534110  1
  V  V28  1  0.87622614  0.62411011  0.64604122  1
  V  V29  1  0.87317840  0.87676548  0.64561092  1
  V  V30  1  0.12293725  0.87370529  0.64031608  1
  V  V31  1  0.87588363  0.12566645  0.64334506  1
  Fe  Fe32  1  0.87214242  0.37242271  0.64873522  1
  Fe  Fe33  1  0.87525396  0.12235898  0.13176177  1
  Fe  Fe34  1  0.62481653  0.87267925  0.38492720  1
  Fe  Fe35  1  0.12492817  0.87391692  0.38835702  1
  Fe  Fe36  1  0.37369461  0.62288461  0.63637064  1
  Fe  Fe37  1  0.62273073  0.37378814  0.88551857  1
  Fe  Fe38  1  0.62415587  0.62283910  0.38877825  1
  Fe  Fe39  1  0.62070504  0.37480326  0.13062113  1
  Fe  Fe40  1  0.87606401  0.37743739  0.38425593  1
  Fe  Fe41  1  0.37616056  0.87585500  0.63927696  1
  Fe  Fe42  1  0.87594125  0.87477354  0.88159819  1
  Fe  Fe43  1  0.87456688  0.37499864  0.13400605  1
  Fe  Fe44  1  0.12756972  0.87787840  0.88076827  1
  Fe  Fe45  1  0.37437286  0.12160714  0.13611695  1
  Fe  Fe46  1  0.62251537  0.87421475  0.13958069  1
  Fe  Fe47  1  0.37426383  0.12850349  0.38994025  1
  Fe  Fe48  1  0.12364800  0.12297435  0.88026331  1
  Fe  Fe49  1  0.37449299  0.37615079  0.88031221  1
  Fe  Fe50  1  0.12886850  0.37708385  0.12915981  1
  Fe  Fe51  1  0.12959367  0.62643212  0.12999350  1
  Fe  Fe52  1  0.62640499  0.12242755  0.88286419  1
  Fe  Fe53  1  0.12325641  0.62401424  0.63670064  1
  Fe  Fe54  1  0.62517781  0.12681410  0.38570043  1
  Fe  Fe55  1  0.12746306  0.37257865  0.88631575  1
  Fe  Fe56  1  0.87735166  0.87291922  0.38206825  1
  Fe  Fe57  1  0.62510968  0.62801108  0.87953051  1
  Fe  Fe58  1  0.12425016  0.12696512  0.38587029  1
  Fe  Fe59  1  0.87568241  0.37563948  0.87699261  1
  Fe  Fe60  1  0.87477364  0.87487829  0.13946027  1
  Fe  Fe61  1  0.87294680  0.62663737  0.88228277  1
  Fe  Fe62  1  0.37550474  0.87387278  0.87829777  1
  Fe  Fe63  1  0.37468950  0.12662006  0.63516915  1
  Pb  Pb64  1  -0.00512859  -0.00198647  -0.00307527  1
  Pb  Pb65  1  0.00043188  -0.00402193  0.24956005  1
  Pb  Pb66  1  0.00235085  -0.00138956  0.49511430  1
  Pb  Pb67  1  0.00389584  -0.00555128  0.75589747  1
  Pb  Pb68  1  -0.00328408  0.25367190  -0.00510972  1
  Pb  Pb69  1  -0.00406001  0.25490363  0.24351938  1
  Pb  Pb70  1  -0.00706589  0.25831568  0.50146918  1
  Pb  Pb71  1  0.00382876  0.25289080  0.75769337  1
  Pb  Pb72  1  -0.00313785  0.48737898  -0.00483084  1
  Pb  Pb73  1  0.00204820  0.49455159  0.24322731  1
  Pb  Pb74  1  0.00177121  0.50186301  0.50536641  1
  Pb  Pb75  1  -0.00878014  0.49842739  0.75616105  1
  Pb  Pb76  1  -0.00203863  0.75515695  -0.00766289  1
  Pb  Pb77  1  0.00344475  0.75927012  0.25356209  1
  Pb  Pb78  1  0.00304078  0.74801060  0.50158769  1
  Pb  Pb79  1  -0.00594068  0.75586529  0.75461488  1
  Pb  Pb80  1  0.25299520  0.00117070  -0.00793491  1
  Pb  Pb81  1  0.24481602  0.00428084  0.25505000  1
  Pb  Pb82  1  0.25349443  0.00320867  0.50054337  1
  Pb  Pb83  1  0.24497796  -0.00236028  0.74847438  1
  Pb  Pb84  1  0.24872159  0.25103818  -0.00759858  1
  Pb  Pb85  1  0.25095027  0.23901902  0.25275771  1
  Pb  Pb86  1  0.25277278  0.24427564  0.50293828  1
  Pb  Pb87  1  0.24103657  0.24926193  0.75600446  1
  Pb  Pb88  1  0.24317627  0.50209569  -0.00368326  1
  Pb  Pb89  1  0.25076655  0.50047345  0.24290693  1
  Pb  Pb90  1  0.24782893  0.50703238  0.50807560  1
  Pb  Pb91  1  0.24923242  0.49405738  0.75195798  1
  Pb  Pb92  1  0.24795368  0.74717824  -0.00675375  1
  Pb  Pb93  1  0.24902293  0.75372002  0.25143001  1
  Pb  Pb94  1  0.25758574  0.75059070  0.50928197  1
  Pb  Pb95  1  0.25276855  0.75158493  0.74535153  1
  Pb  Pb96  1  0.49633068  0.00553103  -0.00058504  1
  Pb  Pb97  1  0.50573144  0.00686763  0.25498585  1
  Pb  Pb98  1  0.49624148  0.00205041  0.49832683  1
  Pb  Pb99  1  0.49227193  -0.00003269  0.74715114  1
  Pb  Pb100  1  0.50363966  0.25187684  -0.00514003  1
  Pb  Pb101  1  0.49907548  0.24020354  0.25181807  1
  Pb  Pb102  1  0.49710134  0.24428140  0.50241159  1
  Pb  Pb103  1  0.50273503  0.25498616  0.75476969  1
  Pb  Pb104  1  0.50534556  0.49655253  -0.00751695  1
  Pb  Pb105  1  0.50317213  0.50511077  0.24884566  1
  Pb  Pb106  1  0.49693347  0.50331795  0.50539537  1
  Pb  Pb107  1  0.50193050  0.49077438  0.75543495  1
  Pb  Pb108  1  0.50775134  0.75843991  -0.00138844  1
  Pb  Pb109  1  0.50943983  0.74773899  0.25726253  1
  Pb  Pb110  1  0.49381169  0.75188463  0.50502009  1
  Pb  Pb111  1  0.49728070  0.74960790  0.74701161  1
  Pb  Pb112  1  0.75842559  -0.00340719  0.00338227  1
  Pb  Pb113  1  0.75002919  -0.00530306  0.24729688  1
  Pb  Pb114  1  0.74813037  -0.00106201  0.49189803  1
  Pb  Pb115  1  0.74794925  0.00342919  0.75427031  1
  Pb  Pb116  1  0.75069012  0.25713201  -0.00593754  1
  Pb  Pb117  1  0.75192682  0.25373098  0.24263689  1
  Pb  Pb118  1  0.75613990  0.25690625  0.50147288  1
  Pb  Pb119  1  0.74000641  0.24963291  0.75805039  1
  Pb  Pb120  1  0.75116787  0.49679815  -0.01294874  1
  Pb  Pb121  1  0.75159277  0.49611208  0.24520348  1
  Pb  Pb122  1  0.75733592  0.49314853  0.50367829  1
  Pb  Pb123  1  0.74832911  0.50760934  0.75827890  1
  Pb  Pb124  1  0.75136538  0.75829353  -0.00321597  1
  Pb  Pb125  1  0.74770721  0.75670152  0.25143400  1
  Pb  Pb126  1  0.74669397  0.75171294  0.49624925  1
  Pb  Pb127  1  0.75219231  0.74464852  0.75570607  1
  O  O128  1  0.12863801  -0.00406119  0.16453201  1
  O  O129  1  0.12410167  0.00110746  0.41687350  1
  O  O130  1  0.12074037  -0.00227405  0.66377822  1
  O  O131  1  0.12700738  0.00226568  0.91359685  1
  O  O132  1  0.12885215  0.24561670  0.15672376  1
  O  O133  1  0.12479496  0.25863563  0.41600402  1
  O  O134  1  0.12444443  0.25300424  0.66748096  1
  O  O135  1  0.12629268  0.24462711  0.91370748  1
  O  O136  1  0.12938492  0.50202154  0.16297104  1
  O  O137  1  0.12468084  0.49571355  0.42052495  1
  O  O138  1  0.12443922  0.49259733  0.66510688  1
  O  O139  1  0.13079046  0.50758370  0.90648434  1
  O  O140  1  0.12871127  0.75431623  0.16349368  1
  O  O141  1  0.12380890  0.74523426  0.41992272  1
  O  O142  1  0.11990904  0.75611498  0.65959310  1
  O  O143  1  0.12907771  0.74580748  0.90914146  1
  O  O144  1  0.37163070  -0.00894069  0.16675212  1
  O  O145  1  0.37373816  -0.00580477  0.41197934  1
  O  O146  1  0.37603567  0.00190997  0.66261940  1
  O  O147  1  0.37713300  0.00319788  0.90921107  1
  O  O148  1  0.37431740  0.25543550  0.15800021  1
  O  O149  1  0.37432064  0.25881564  0.41916054  1
  O  O150  1  0.37639872  0.25485939  0.66607776  1
  O  O151  1  0.37773264  0.24248306  0.90549011  1
  O  O152  1  0.37575606  0.50064301  0.16279216  1
  O  O153  1  0.37399719  0.49716090  0.42260368  1
  O  O154  1  0.37607749  0.49301748  0.66527282  1
  O  O155  1  0.37351047  0.50990348  0.90763362  1
  O  O156  1  0.37291291  0.75391733  0.16686579  1
  O  O157  1  0.37308081  0.75012051  0.41965294  1
  O  O158  1  0.37590664  0.74923222  0.66437730  1
  O  O159  1  0.37549980  0.74448449  0.90902154  1
  O  O160  1  0.62101133  0.00464943  0.16489701  1
  O  O161  1  0.62497275  -0.00025067  0.41458419  1
  O  O162  1  0.62884001  -0.00416802  0.66289893  1
  O  O163  1  0.62488040  -0.00550778  0.91229581  1
  O  O164  1  0.62117426  0.24475982  0.15929572  1
  O  O165  1  0.62475118  0.25940041  0.41606243  1
  O  O166  1  0.62588425  0.25220104  0.66597423  1
  O  O167  1  0.62342017  0.24597020  0.91294218  1
  O  O168  1  0.61812941  0.50658055  0.16157448  1
  O  O169  1  0.62445554  0.49383114  0.42050510  1
  O  O170  1  0.62541007  0.49614767  0.66482788  1
  O  O171  1  0.62223823  0.50236995  0.90762072  1
  O  O172  1  0.61987958  0.74210781  0.16638979  1
  O  O173  1  0.62489343  0.74786011  0.41889786  1
  O  O174  1  0.62918858  0.75491376  0.66140325  1
  O  O175  1  0.62219508  0.75699178  0.91177832  1
  O  O176  1  0.87668577  0.00061153  0.16804136  1
  O  O177  1  0.87632946  0.00847964  0.40683331  1
  O  O178  1  0.87311107  0.00422470  0.66804563  1
  O  O179  1  0.87221603  0.00177824  0.91235096  1
  O  O180  1  0.87523635  0.24740727  0.16278138  1
  O  O181  1  0.87471271  0.24941648  0.41460540  1
  O  O182  1  0.87290531  0.24066805  0.66808816  1
  O  O183  1  0.87487955  0.24425184  0.90695741  1
  O  O184  1  0.87255617  0.51106959  0.16280266  1
  O  O185  1  0.87616164  0.50384686  0.41699983  1
  O  O186  1  0.87382099  0.50530960  0.66549395  1
  O  O187  1  0.87670160  0.50146475  0.90617975  1
  O  O188  1  0.87294575  0.73963117  0.16277951  1
  O  O189  1  0.87733160  0.74019237  0.41369646  1
  O  O190  1  0.87389344  0.74879202  0.66616372  1
  O  O191  1  0.87648848  0.75098343  0.91230357  1
  O  O192  1  0.00954391  0.12188114  0.16125174  1
  O  O193  1  -0.00659204  0.13058337  0.41332928  1
  O  O194  1  -0.00504466  0.12451368  0.66737982  1
  O  O195  1  -0.00734726  0.12204219  0.90817378  1
  O  O196  1  0.00268404  0.37725887  0.16204974  1
  O  O197  1  0.00582309  0.37689147  0.41505762  1
  O  O198  1  0.00446997  0.37258551  0.66385422  1
  O  O199  1  0.00067150  0.37395347  0.90835951  1
  O  O200  1  -0.00152542  0.62472636  0.15411221  1
  O  O201  1  -0.00326657  0.62076620  0.41860734  1
  O  O202  1  -0.00523000  0.62536143  0.66604661  1
  O  O203  1  0.00811317  0.62774341  0.90463378  1
  O  O204  1  0.00791193  0.87257842  0.16299354  1
  O  O205  1  -0.00189024  0.87309721  0.41899829  1
  O  O206  1  -0.00058506  0.87726087  0.66574841  1
  O  O207  1  0.00202941  0.87578932  0.91124459  1
  O  O208  1  0.24580496  0.12169425  0.16602976  1
  O  O209  1  0.24907756  0.12803960  0.41911296  1
  O  O210  1  0.24502814  0.12582461  0.66228250  1
  O  O211  1  0.25819798  0.12344634  0.90661361  1
  O  O212  1  0.25817517  0.37762854  0.16197008  1
  O  O213  1  0.24654439  0.37746845  0.41703627  1
  O  O214  1  0.25023866  0.37334084  0.66486420  1
  O  O215  1  0.25347677  0.37401292  0.91260776  1
  O  O216  1  0.25668992  0.62744198  0.16561614  1
  O  O217  1  0.24942560  0.62171790  0.42191770  1
  O  O218  1  0.24754535  0.62340831  0.66417527  1
  O  O219  1  0.25278685  0.62820935  0.90844418  1
  O  O220  1  0.24997178  0.87297564  0.16773845  1
  O  O221  1  0.25438993  0.87225323  0.41797076  1
  O  O222  1  0.24125515  0.87650725  0.65781240  1
  O  O223  1  0.25294271  0.87467649  0.90993613  1
  O  O224  1  0.50151018  0.12376290  0.16554879  1
  O  O225  1  0.49999179  0.12780902  0.41831979  1
  O  O226  1  0.50559605  0.12557929  0.66159052  1
  O  O227  1  0.49648817  0.12070889  0.91046509  1
  O  O228  1  0.49297813  0.37691014  0.16317550  1
  O  O229  1  0.50159816  0.37748669  0.41675103  1
  O  O230  1  0.50178489  0.37399650  0.66536937  1
  O  O231  1  0.49551663  0.37559867  0.91407363  1
  O  O232  1  0.49751134  0.62667787  0.16712754  1
  O  O233  1  0.49629640  0.62190482  0.42111744  1
  O  O234  1  0.50440294  0.62486170  0.66270060  1
  O  O235  1  0.49477349  0.62762515  0.90537084  1
  O  O236  1  0.49220498  0.87311298  0.16486773  1
  O  O237  1  0.49247908  0.87189048  0.41447297  1
  O  O238  1  0.51132553  0.87491919  0.65972708  1
  O  O239  1  0.50290052  0.87566095  0.91173830  1
  O  O240  1  0.74228437  0.12354060  0.15958936  1
  O  O241  1  0.75675270  0.12910554  0.41196037  1
  O  O242  1  0.75175068  0.12379372  0.66826408  1
  O  O243  1  0.75442723  0.12286266  0.91378609  1
  O  O244  1  0.74602858  0.37822825  0.16190866  1
  O  O245  1  0.74523502  0.37711985  0.41474850  1
  O  O246  1  0.74275272  0.37433837  0.66750674  1
  O  O247  1  0.75088723  0.37288876  0.90458957  1
  O  O248  1  0.74410237  0.62422708  0.15692633  1
  O  O249  1  0.75648161  0.62133371  0.41332479  1
  O  O250  1  0.75201342  0.62537451  0.66765311  1
  O  O251  1  0.74802186  0.62861725  0.91189749  1
  O  O252  1  0.74835277  0.87184105  0.16657173  1
  O  O253  1  0.75414322  0.87335463  0.41357293  1
  O  O254  1  0.74702899  0.87573241  0.66750944  1
  O  O255  1  0.74409687  0.87468606  0.90922829  1
  O  O256  1  0.12829953  0.12194927  0.04824737  1
  O  O257  1  0.13299736  0.12839203  0.28644199  1
  O  O258  1  0.11819380  0.12821202  0.55287445  1
  O  O259  1  0.12522362  0.12631483  0.77929317  1
  O  O260  1  0.12734274  0.37993119  0.02930725  1
  O  O261  1  0.12765181  0.37689652  0.30031244  1
  O  O262  1  0.12391592  0.37288118  0.55330017  1
  O  O263  1  0.12923709  0.36800785  0.78440769  1
  O  O264  1  0.13562720  0.62671063  0.03133466  1
  O  O265  1  0.12474103  0.62290975  0.30522161  1
  O  O266  1  0.11899224  0.61726061  0.53664794  1
  O  O267  1  0.12708858  0.62665603  0.79369413  1
  O  O268  1  0.13010890  0.87536887  0.05072166  1
  O  O269  1  0.12224181  0.86881616  0.28847709  1
  O  O270  1  0.11831899  0.87733296  0.54911782  1
  O  O271  1  0.12329396  0.88058324  0.78017475  1
  O  O272  1  0.37684090  0.11614283  0.03746662  1
  O  O273  1  0.37343393  0.13330154  0.28887719  1
  O  O274  1  0.37461517  0.12993046  0.53469058  1
  O  O275  1  0.37881481  0.12100026  0.79278900  1
  O  O276  1  0.37671425  0.37612619  0.04520002  1
  O  O277  1  0.37422724  0.37683598  0.29955455  1
  O  O278  1  0.37492389  0.37357386  0.55517698  1
  O  O279  1  0.37987517  0.37916565  0.77998021  1
  O  O280  1  0.37823234  0.62777577  0.04637588  1
  O  O281  1  0.37359323  0.62343242  0.30657655  1
  O  O282  1  0.37343741  0.62465089  0.53587040  1
  O  O283  1  0.37485836  0.62813890  0.79130582  1
  O  O284  1  0.37532043  0.87406810  0.05017051  1
  O  O285  1  0.37053404  0.86947822  0.30212596  1
  O  O286  1  0.37558008  0.86968526  0.53846890  1
  O  O287  1  0.37863005  0.87450382  0.77782034  1
  O  O288  1  0.62034836  0.12075034  0.04745591  1
  O  O289  1  0.61580138  0.12756478  0.28653286  1
  O  O290  1  0.63057776  0.12595292  0.55124473  1
  O  O291  1  0.63250565  0.12466688  0.78274713  1
  O  O292  1  0.61891864  0.37542303  0.03122310  1
  O  O293  1  0.62144090  0.37836670  0.30005107  1
  O  O294  1  0.62611371  0.37431459  0.55389004  1
  O  O295  1  0.61492710  0.37061030  0.78345680  1
  O  O296  1  0.62176528  0.62943442  0.04764342  1
  O  O297  1  0.61683632  0.62320906  0.28969058  1
  O  O298  1  0.62981637  0.62283073  0.55265736  1
  O  O299  1  0.63235078  0.62918491  0.77896433  1
  O  O300  1  0.62124879  0.86734513  0.04022555  1
  O  O301  1  0.62281271  0.86717945  0.28436217  1
  O  O302  1  0.63256574  0.87631823  0.54677141  1
  O  O303  1  0.62240554  0.87730031  0.79657579  1
  O  O304  1  0.87544852  0.11658223  0.03263549  1
  O  O305  1  0.87614657  0.13163478  0.29469835  1
  O  O306  1  0.87471330  0.12527867  0.55252802  1
  O  O307  1  0.86953650  0.12104512  0.79731215  1
  O  O308  1  0.88027050  0.37763980  0.03419868  1
  O  O309  1  0.87581600  0.37935330  0.28484676  1
  O  O310  1  0.86987616  0.37022214  0.54661657  1
  O  O311  1  0.88193780  0.37672536  0.77460845  1
  O  O312  1  0.87804758  0.62654078  0.04284371  1
  O  O313  1  0.87690848  0.62293178  0.29826414  1
  O  O314  1  0.87371479  0.62530113  0.55489568  1
  O  O315  1  0.87099669  0.62674134  0.78086410  1
  O  O316  1  0.87362746  0.87692805  0.03890942  1
  O  O317  1  0.88224889  0.86778363  0.28168899  1
  O  O318  1  0.87328671  0.87668937  0.55466281  1
  O  O319  1  0.87948742  0.87354833  0.78076913  1
