# generated using pymatgen
data_VFe(PbO3)2
_symmetry_space_group_name_H-M   'P 1'
_cell_length_a   15.37573641
_cell_length_b   15.37797629
_cell_length_c   18.51143561
_cell_angle_alpha   90.00781809
_cell_angle_beta   89.97169085
_cell_angle_gamma   90.00790307
_symmetry_Int_Tables_number   1
_chemical_formula_structural   VFe(PbO3)2
_chemical_formula_sum   'V32 Fe32 Pb64 O192'
_cell_volume   4376.98594054
_cell_formula_units_Z   32
loop_
 _symmetry_equiv_pos_site_id
 _symmetry_equiv_pos_as_xyz
  1  'x, y, z'
loop_
 _atom_site_type_symbol
 _atom_site_label
 _atom_site_symmetry_multiplicity
 _atom_site_fract_x
 _atom_site_fract_y
 _atom_site_fract_z
 _atom_site_occupancy
  V  V0  1  0.12708254  0.37412158  0.89355603  1
  V  V1  1  0.62575213  0.62337841  0.63943156  1
  V  V2  1  0.37323531  0.62126687  0.64263842  1
  V  V3  1  0.12257038  0.12331364  0.88650634  1
  V  V4  1  0.62865776  0.87564350  0.13978828  1
  V  V5  1  0.37289304  0.37382789  0.13838343  1
  V  V6  1  0.12352371  0.37489069  0.38706470  1
  V  V7  1  0.12135554  0.62264931  0.64161036  1
  V  V8  1  0.62584746  0.87763339  0.88576960  1
  V  V9  1  0.37679086  0.87684451  0.88532348  1
  V  V10  1  0.37606609  0.87508757  0.14218668  1
  V  V11  1  0.87501438  0.37536079  0.38622912  1
  V  V12  1  0.62689588  0.12389532  0.63550908  1
  V  V13  1  0.37467284  0.37589834  0.38892412  1
  V  V14  1  0.86937307  0.62839521  0.13851260  1
  V  V15  1  0.37645077  0.37339040  0.88829499  1
  V  V16  1  0.12606662  0.62239577  0.39049418  1
  V  V17  1  0.12395301  0.37599131  0.64001668  1
  V  V18  1  0.12354857  0.62624292  0.13775300  1
  V  V19  1  0.62173775  0.62204138  0.38631310  1
  V  V20  1  0.87744778  0.62561168  0.88690513  1
  V  V21  1  0.62178613  0.37556640  0.64229960  1
  V  V22  1  0.12488355  0.12100796  0.39822556  1
  V  V23  1  0.37451981  0.87244476  0.39121064  1
  V  V24  1  0.62344555  0.12699337  0.38791022  1
  V  V25  1  0.87385706  0.37335177  0.89312545  1
  V  V26  1  0.87011319  0.37930148  0.64232583  1
  V  V27  1  0.12489115  0.12272452  0.14102755  1
  V  V28  1  0.87458669  0.62379918  0.39015527  1
  V  V29  1  0.62641079  0.37423188  0.13913765  1
  V  V30  1  0.37255242  0.12603543  0.88732197  1
  V  V31  1  0.12693797  0.87645725  0.14167535  1
  Fe  Fe32  1  0.37433323  0.62563053  0.88516765  1
  Fe  Fe33  1  0.12416263  0.62599534  0.88395895  1
  Fe  Fe34  1  0.87431891  0.12716979  0.39042408  1
  Fe  Fe35  1  0.87376982  0.12952189  0.63400540  1
  Fe  Fe36  1  0.62520217  0.87492907  0.39492232  1
  Fe  Fe37  1  0.62308918  0.37405171  0.88683874  1
  Fe  Fe38  1  0.37447687  0.12195000  0.14158278  1
  Fe  Fe39  1  0.12761928  0.87681880  0.88021446  1
  Fe  Fe40  1  0.12757209  0.87360627  0.62947082  1
  Fe  Fe41  1  0.62517311  0.62510756  0.89266614  1
  Fe  Fe42  1  0.62415535  0.62887511  0.13219453  1
  Fe  Fe43  1  0.37403747  0.12435587  0.39501784  1
  Fe  Fe44  1  0.87775548  0.87342067  0.13878998  1
  Fe  Fe45  1  0.87768147  0.37570844  0.13335399  1
  Fe  Fe46  1  0.87403056  0.12178232  0.13715748  1
  Fe  Fe47  1  0.62281647  0.12222595  0.13548643  1
  Fe  Fe48  1  0.87314644  0.61965866  0.63570879  1
  Fe  Fe49  1  0.12673206  0.37249384  0.13421589  1
  Fe  Fe50  1  0.87246488  0.87160235  0.63391337  1
  Fe  Fe51  1  0.62688735  0.37561679  0.38222462  1
  Fe  Fe52  1  0.12475430  0.87064904  0.39690098  1
  Fe  Fe53  1  0.87540693  0.87373905  0.39052644  1
  Fe  Fe54  1  0.37885751  0.87331208  0.63348389  1
  Fe  Fe55  1  0.37432718  0.62776456  0.14283256  1
  Fe  Fe56  1  0.62277284  0.87223081  0.62751222  1
  Fe  Fe57  1  0.87605838  0.87588398  0.88003490  1
  Fe  Fe58  1  0.37511389  0.37786266  0.63630599  1
  Fe  Fe59  1  0.62412763  0.12530451  0.88686409  1
  Fe  Fe60  1  0.12427370  0.12745668  0.62590363  1
  Fe  Fe61  1  0.37641092  0.12971351  0.62640553  1
  Fe  Fe62  1  0.37289477  0.62396471  0.37969897  1
  Fe  Fe63  1  0.87621615  0.12513106  0.88218600  1
  Pb  Pb64  1  -0.01283762  -0.00345673  -0.00140252  1
  Pb  Pb65  1  -0.00624001  -0.00307946  0.25598343  1
  Pb  Pb66  1  -0.00841663  -0.00569572  0.50309735  1
  Pb  Pb67  1  -0.00214574  -0.00084614  0.73590651  1
  Pb  Pb68  1  -0.00171045  0.25536253  0.00447948  1
  Pb  Pb69  1  -0.00546620  0.24662651  0.24774285  1
  Pb  Pb70  1  -0.00088215  0.24423928  0.50344330  1
  Pb  Pb71  1  -0.00359231  0.24260779  0.74880040  1
  Pb  Pb72  1  -0.00024378  0.49280201  0.00274914  1
  Pb  Pb73  1  0.00070790  0.49985389  0.24445019  1
  Pb  Pb74  1  -0.00467701  0.50373069  0.50155410  1
  Pb  Pb75  1  0.00373847  0.50224466  0.75501263  1
  Pb  Pb76  1  -0.00070524  0.76033417  -0.00610627  1
  Pb  Pb77  1  0.00147212  0.76077746  0.25686748  1
  Pb  Pb78  1  -0.00510100  0.75660062  0.50484307  1
  Pb  Pb79  1  0.00035153  0.76308897  0.74707974  1
  Pb  Pb80  1  0.25551204  0.00605864  -0.00050281  1
  Pb  Pb81  1  0.24941453  0.00030910  0.25902479  1
  Pb  Pb82  1  0.24983461  -0.00790190  0.50573331  1
  Pb  Pb83  1  0.24665248  -0.00077764  0.73357327  1
  Pb  Pb84  1  0.24735163  0.25223918  0.00229779  1
  Pb  Pb85  1  0.25369995  0.24033395  0.25524265  1
  Pb  Pb86  1  0.24905975  0.24610955  0.50357425  1
  Pb  Pb87  1  0.25535535  0.24773968  0.74124385  1
  Pb  Pb88  1  0.25312922  0.50628739  0.00011053  1
  Pb  Pb89  1  0.25389175  0.50463304  0.24860252  1
  Pb  Pb90  1  0.25395002  0.49374484  0.50060742  1
  Pb  Pb91  1  0.25047213  0.50917504  0.75631455  1
  Pb  Pb92  1  0.24979909  0.74744002  -0.00514950  1
  Pb  Pb93  1  0.24334520  0.75484188  0.25465136  1
  Pb  Pb94  1  0.25170948  0.75369116  0.50440611  1
  Pb  Pb95  1  0.24267721  0.75372524  0.75135099  1
  Pb  Pb96  1  0.49988061  0.00820054  0.00174545  1
  Pb  Pb97  1  0.50046165  0.00297646  0.25437297  1
  Pb  Pb98  1  0.49704351  -0.00391123  0.50060099  1
  Pb  Pb99  1  0.49914786  -0.00031451  0.74004096  1
  Pb  Pb100  1  0.50359562  0.24189253  0.00127085  1
  Pb  Pb101  1  0.49961085  0.24865539  0.25033881  1
  Pb  Pb102  1  0.49319374  0.25193199  0.49978836  1
  Pb  Pb103  1  0.50871378  0.24858380  0.75098588  1
  Pb  Pb104  1  0.49883339  0.51065741  0.00224516  1
  Pb  Pb105  1  0.50052194  0.50224136  0.24688004  1
  Pb  Pb106  1  0.49414503  0.49631189  0.49844015  1
  Pb  Pb107  1  0.50242266  0.50718659  0.75953454  1
  Pb  Pb108  1  0.49719793  0.74367956  0.00093101  1
  Pb  Pb109  1  0.50402108  0.75149319  0.25107308  1
  Pb  Pb110  1  0.49804947  0.75454077  0.50127111  1
  Pb  Pb111  1  0.50060742  0.74095415  0.75106317  1
  Pb  Pb112  1  0.75767276  0.00697995  -0.00156723  1
  Pb  Pb113  1  0.76004031  0.00232765  0.25436479  1
  Pb  Pb114  1  0.75619089  -0.00296871  0.49855354  1
  Pb  Pb115  1  0.76126925  -0.00109453  0.74493576  1
  Pb  Pb116  1  0.74905343  0.23976451  -0.00036057  1
  Pb  Pb117  1  0.75502858  0.24224423  0.24652991  1
  Pb  Pb118  1  0.75176350  0.24673027  0.49964276  1
  Pb  Pb119  1  0.74462869  0.24192875  0.75842511  1
  Pb  Pb120  1  0.74631758  0.50102726  -0.00060227  1
  Pb  Pb121  1  0.74181559  0.49636274  0.24804307  1
  Pb  Pb122  1  0.75232649  0.50586772  0.49978693  1
  Pb  Pb123  1  0.73698243  0.49900408  0.75882622  1
  Pb  Pb124  1  0.74847772  0.75307166  -0.00322025  1
  Pb  Pb125  1  0.74648337  0.76784253  0.26132839  1
  Pb  Pb126  1  0.75212175  0.75482163  0.50152853  1
  Pb  Pb127  1  0.75530641  0.75548578  0.74504527  1
  O  O128  1  0.12702418  0.00154577  0.17061951  1
  O  O129  1  0.12633620  0.00433259  0.41379890  1
  O  O130  1  0.12590536  0.00087338  0.65045570  1
  O  O131  1  0.13015960  0.00822490  0.90762510  1
  O  O132  1  0.12694488  0.24085815  0.16347643  1
  O  O133  1  0.12476064  0.25869413  0.41528862  1
  O  O134  1  0.12363543  0.25977238  0.65988492  1
  O  O135  1  0.12741381  0.24636360  0.91823608  1
  O  O136  1  0.12569117  0.50666622  0.15857933  1
  O  O137  1  0.12441946  0.49890004  0.41642400  1
  O  O138  1  0.12633721  0.50027904  0.66981037  1
  O  O139  1  0.12538187  0.49577661  0.91438897  1
  O  O140  1  0.12662568  0.74935510  0.16592171  1
  O  O141  1  0.12476489  0.73665239  0.41655144  1
  O  O142  1  0.12981273  0.73958759  0.65883605  1
  O  O143  1  0.12844238  0.75183499  0.91374596  1
  O  O144  1  0.37375762  -0.00833255  0.17194605  1
  O  O145  1  0.37407511  -0.00680291  0.41473240  1
  O  O146  1  0.38034110  0.00388290  0.65557124  1
  O  O147  1  0.37449468  0.00031990  0.91353679  1
  O  O148  1  0.37529578  0.25519143  0.16552125  1
  O  O149  1  0.37363613  0.25908612  0.41245411  1
  O  O150  1  0.37638786  0.25337644  0.66271666  1
  O  O151  1  0.37205976  0.25123554  0.91404333  1
  O  O152  1  0.37306908  0.49277340  0.16345062  1
  O  O153  1  0.37386557  0.49720293  0.41382831  1
  O  O154  1  0.37701272  0.50356791  0.66927179  1
  O  O155  1  0.37267693  0.49144165  0.91187651  1
  O  O156  1  0.37209455  0.75907366  0.16655830  1
  O  O157  1  0.37410561  0.75050741  0.41073277  1
  O  O158  1  0.38002931  0.73801576  0.66257097  1
  O  O159  1  0.37528211  0.75882578  0.90778102  1
  O  O160  1  0.62068065  -0.00925260  0.16481890  1
  O  O161  1  0.62411213  0.00810729  0.41276801  1
  O  O162  1  0.62406332  0.00766857  0.65051306  1
  O  O163  1  0.62056631  -0.00687984  0.91128223  1
  O  O164  1  0.62154183  0.25702333  0.16160899  1
  O  O165  1  0.62369535  0.24856081  0.41184088  1
  O  O166  1  0.62906957  0.25670978  0.66353777  1
  O  O167  1  0.62364553  0.25166651  0.91897983  1
  O  O168  1  0.62335790  0.49652591  0.16085022  1
  O  O169  1  0.62574211  0.50385973  0.41350674  1
  O  O170  1  0.62517326  0.49737486  0.66769931  1
  O  O171  1  0.62541149  0.49745693  0.91890796  1
  O  O172  1  0.62257762  0.75692835  0.16562653  1
  O  O173  1  0.62537536  0.73667255  0.41341241  1
  O  O174  1  0.62214068  0.73954165  0.65798870  1
  O  O175  1  0.62115245  0.75933212  0.91384103  1
  O  O176  1  0.87683721  -0.00264306  0.17029649  1
  O  O177  1  0.87546127  0.00218514  0.41445962  1
  O  O178  1  0.87222848  0.00188560  0.65533735  1
  O  O179  1  0.87576572  -0.00011464  0.91053525  1
  O  O180  1  0.87670682  0.24974425  0.16302207  1
  O  O181  1  0.87615263  0.25931099  0.41089613  1
  O  O182  1  0.87618469  0.26342107  0.66553403  1
  O  O183  1  0.87797789  0.25535863  0.91179114  1
  O  O184  1  0.87983380  0.50925250  0.16351725  1
  O  O185  1  0.87567046  0.49653142  0.41509155  1
  O  O186  1  0.87765082  0.49441376  0.67241361  1
  O  O187  1  0.87717911  0.50103684  0.91439932  1
  O  O188  1  0.87884478  0.74244598  0.16574193  1
  O  O189  1  0.87643033  0.74159139  0.41398419  1
  O  O190  1  0.87209222  0.74323096  0.66166316  1
  O  O191  1  0.87463178  0.74475356  0.90866041  1
  O  O192  1  0.00809468  0.12119544  0.16557349  1
  O  O193  1  0.00540595  0.13137998  0.41491957  1
  O  O194  1  0.00006684  0.13151942  0.65876937  1
  O  O195  1  0.00794931  0.12775397  0.90802485  1
  O  O196  1  0.00295512  0.37591956  0.16635850  1
  O  O197  1  -0.00416873  0.37896490  0.41163441  1
  O  O198  1  0.00348765  0.38032265  0.66665647  1
  O  O199  1  -0.00098045  0.37478705  0.91691271  1
  O  O200  1  0.00623882  0.62758090  0.16406563  1
  O  O201  1  0.00363226  0.61803739  0.41450075  1
  O  O202  1  0.00548918  0.61930811  0.66101322  1
  O  O203  1  -0.00611079  0.62414875  0.91207236  1
  O  O204  1  0.00601939  0.87362758  0.16874095  1
  O  O205  1  -0.00002803  0.87176858  0.41852734  1
  O  O206  1  0.00183762  0.86985245  0.65496635  1
  O  O207  1  0.00179859  0.87536178  0.90901843  1
  O  O208  1  0.24565088  0.12172994  0.17031452  1
  O  O209  1  0.24383433  0.13046882  0.41782258  1
  O  O210  1  0.24958106  0.13047222  0.65438330  1
  O  O211  1  0.24860470  0.12694640  0.91617609  1
  O  O212  1  0.25472220  0.37318078  0.16235187  1
  O  O213  1  0.25138632  0.37862121  0.41279529  1
  O  O214  1  0.24263577  0.37968964  0.66324239  1
  O  O215  1  0.25352856  0.37180978  0.91817487  1
  O  O216  1  0.24181942  0.62703094  0.16474959  1
  O  O217  1  0.24445129  0.61929005  0.41276490  1
  O  O218  1  0.25253747  0.61926085  0.66200869  1
  O  O219  1  0.25041638  0.62367202  0.91594963  1
  O  O220  1  0.25136665  0.87605990  0.16954151  1
  O  O221  1  0.25573810  0.87184857  0.41629557  1
  O  O222  1  0.25348571  0.87037851  0.65933150  1
  O  O223  1  0.25884196  0.87922045  0.91082354  1
  O  O224  1  0.49979945  0.12323864  0.17119984  1
  O  O225  1  0.50564337  0.12761477  0.41313712  1
  O  O226  1  0.50945355  0.13422885  0.65881653  1
  O  O227  1  0.49403479  0.12486997  0.91366575  1
  O  O228  1  0.49699384  0.37606570  0.16259635  1
  O  O229  1  0.49481342  0.37790968  0.40974733  1
  O  O230  1  0.50693373  0.37630320  0.66234648  1
  O  O231  1  0.49101979  0.37210772  0.91070158  1
  O  O232  1  0.50115360  0.62679528  0.16487390  1
  O  O233  1  0.50360088  0.62050873  0.40539087  1
  O  O234  1  0.50319275  0.61782321  0.66552247  1
  O  O235  1  0.49702682  0.62595996  0.91751022  1
  O  O236  1  0.49644990  0.87402120  0.16429245  1
  O  O237  1  0.49446600  0.87218076  0.41289284  1
  O  O238  1  0.50306952  0.87307942  0.66571952  1
  O  O239  1  0.49551393  0.87795843  0.91251792  1
  O  O240  1  0.74615157  0.12331132  0.16556301  1
  O  O241  1  0.74269737  0.12966403  0.41436872  1
  O  O242  1  0.74374058  0.13257423  0.66211664  1
  O  O243  1  0.75058327  0.12594369  0.91258603  1
  O  O244  1  0.74585757  0.37831262  0.15773061  1
  O  O245  1  0.75707787  0.37780257  0.41053567  1
  O  O246  1  0.75233021  0.38032223  0.66298555  1
  O  O247  1  0.75744199  0.37611208  0.91414805  1
  O  O248  1  0.75400546  0.62430700  0.15674678  1
  O  O249  1  0.74835588  0.61982050  0.41331463  1
  O  O250  1  0.74206889  0.61729515  0.66198110  1
  O  O251  1  0.75773873  0.62451240  0.91421148  1
  O  O252  1  0.74549036  0.87244601  0.16156603  1
  O  O253  1  0.75000491  0.87125784  0.41704418  1
  O  O254  1  0.74410019  0.87243473  0.66006407  1
  O  O255  1  0.74293551  0.87447915  0.90707603  1
  O  O256  1  0.12707554  0.11860271  0.05022450  1
  O  O257  1  0.12735183  0.12811496  0.30643919  1
  O  O258  1  0.12276820  0.13711518  0.52550300  1
  O  O259  1  0.12648014  0.12934401  0.79558192  1
  O  O260  1  0.12275181  0.36809849  0.03428216  1
  O  O261  1  0.12551320  0.37519503  0.29597945  1
  O  O262  1  0.12250657  0.38133313  0.54897978  1
  O  O263  1  0.12639270  0.37046460  0.80255944  1
  O  O264  1  0.12458133  0.63007138  0.04667952  1
  O  O265  1  0.12480677  0.62265324  0.29928081  1
  O  O266  1  0.12528093  0.61659003  0.55072230  1
  O  O267  1  0.12896967  0.62370167  0.78394069  1
  O  O268  1  0.12703482  0.87871665  0.05075569  1
  O  O269  1  0.12689333  0.86537183  0.29567807  1
  O  O270  1  0.13423897  0.86758336  0.52672654  1
  O  O271  1  0.12900889  0.86900233  0.78003240  1
  O  O272  1  0.37396447  0.11527696  0.04176697  1
  O  O273  1  0.36861913  0.12611994  0.29406078  1
  O  O274  1  0.37879504  0.13401805  0.52466476  1
  O  O275  1  0.37157381  0.12596951  0.79637746  1
  O  O276  1  0.37437701  0.37325770  0.04751647  1
  O  O277  1  0.37235686  0.37716879  0.29775544  1
  O  O278  1  0.37837928  0.38348368  0.53637953  1
  O  O279  1  0.37237020  0.37196766  0.79720740  1
  O  O280  1  0.37428937  0.62520009  0.04186245  1
  O  O281  1  0.36852229  0.61850771  0.28011621  1
  O  O282  1  0.37641246  0.61766747  0.55112880  1
  O  O283  1  0.37906921  0.62218765  0.78505484  1
  O  O284  1  0.37298702  0.87829502  0.05138937  1
  O  O285  1  0.37292962  0.87442113  0.29981648  1
  O  O286  1  0.37882813  0.86757625  0.53298478  1
  O  O287  1  0.37896472  0.88040244  0.79433484  1
  O  O288  1  0.61783079  0.12364199  0.03487879  1
  O  O289  1  0.62391474  0.12690100  0.29628280  1
  O  O290  1  0.62897454  0.13359376  0.54475948  1
  O  O291  1  0.62445946  0.13489468  0.78639315  1
  O  O292  1  0.62277274  0.37474756  0.04817196  1
  O  O293  1  0.62798311  0.38166264  0.28325284  1
  O  O294  1  0.62529147  0.37710835  0.55119297  1
  O  O295  1  0.62896543  0.37438952  0.78635337  1
  O  O296  1  0.62328196  0.63183080  0.03162910  1
  O  O297  1  0.62797182  0.62192294  0.29453579  1
  O  O298  1  0.62303404  0.61791712  0.54856589  1
  O  O299  1  0.62014680  0.61852478  0.79166332  1
  O  O300  1  0.62620378  0.87464643  0.04882978  1
  O  O301  1  0.62853041  0.86696756  0.29369628  1
  O  O302  1  0.61665135  0.86779097  0.52615269  1
  O  O303  1  0.62269218  0.87716441  0.79487284  1
  O  O304  1  0.87462837  0.11521346  0.03647655  1
  O  O305  1  0.87162639  0.12687415  0.28933499  1
  O  O306  1  0.87082544  0.13845288  0.53258772  1
  O  O307  1  0.87401288  0.12845702  0.78140458  1
  O  O308  1  0.88565111  0.37687927  0.03383964  1
  O  O309  1  0.87611840  0.37815492  0.29491965  1
  O  O310  1  0.87415757  0.38132782  0.55117981  1
  O  O311  1  0.87686071  0.37686065  0.80218571  1
  O  O312  1  0.87597235  0.62955228  0.04750735  1
  O  O313  1  0.87472281  0.62191315  0.29920206  1
  O  O314  1  0.87388158  0.61147098  0.53570643  1
  O  O315  1  0.87689334  0.62191146  0.79601816  1
  O  O316  1  0.88137850  0.87594443  0.03862383  1
  O  O317  1  0.87351296  0.86994603  0.28807108  1
  O  O318  1  0.87439245  0.87021931  0.53166084  1
  O  O319  1  0.87215001  0.87374396  0.77903762  1
