# generated using pymatgen
data_VFe(PbO3)2
_symmetry_space_group_name_H-M   'P 1'
_cell_length_a   15.38434626
_cell_length_b   15.39772432
_cell_length_c   18.52639781
_cell_angle_alpha   89.96319423
_cell_angle_beta   90.05100087
_cell_angle_gamma   90.00293176
_symmetry_Int_Tables_number   1
_chemical_formula_structural   VFe(PbO3)2
_chemical_formula_sum   'V32 Fe32 Pb64 O192'
_cell_volume   4388.60313380
_cell_formula_units_Z   32
loop_
 _symmetry_equiv_pos_site_id
 _symmetry_equiv_pos_as_xyz
  1  'x, y, z'
loop_
 _atom_site_type_symbol
 _atom_site_label
 _atom_site_symmetry_multiplicity
 _atom_site_fract_x
 _atom_site_fract_y
 _atom_site_fract_z
 _atom_site_occupancy
  V  V0  1  0.37723593  0.12339916  0.63550521  1
  V  V1  1  0.87577969  0.62729001  0.88363810  1
  V  V2  1  0.12289203  0.12679053  0.13900590  1
  V  V3  1  0.87498778  0.37686505  0.88568920  1
  V  V4  1  0.12529034  0.37507092  0.39252465  1
  V  V5  1  0.12350533  0.87410427  0.39460539  1
  V  V6  1  0.87722113  0.12440052  0.13750021  1
  V  V7  1  0.87532469  0.12371905  0.39618416  1
  V  V8  1  0.12164819  0.12387808  0.39631070  1
  V  V9  1  0.12220377  0.62846795  0.14135456  1
  V  V10  1  0.87686690  0.37750443  0.13870982  1
  V  V11  1  0.12641901  0.12402614  0.88685133  1
  V  V12  1  0.37722584  0.60757805  0.63202835  1
  V  V13  1  0.62348412  0.37593408  0.64029918  1
  V  V14  1  0.37480306  0.87058562  0.89130952  1
  V  V15  1  0.12233825  0.87957900  0.14056451  1
  V  V16  1  0.37387250  0.12222641  0.89149158  1
  V  V17  1  0.37867813  0.36907020  0.63913296  1
  V  V18  1  0.37415241  0.37113806  0.89128757  1
  V  V19  1  0.62516053  0.87463710  0.38881117  1
  V  V20  1  0.62659865  0.87564291  0.13699440  1
  V  V21  1  0.87572926  0.12745896  0.88453020  1
  V  V22  1  0.87460077  0.87647780  0.39876082  1
  V  V23  1  0.87792812  0.37379094  0.39506565  1
  V  V24  1  0.37878503  0.37552274  0.13935825  1
  V  V25  1  0.12540831  0.37606819  0.13996709  1
  V  V26  1  0.63423891  0.37352473  0.38502927  1
  V  V27  1  0.38560678  0.37110204  0.38317288  1
  V  V28  1  0.37385550  0.62016535  0.89239105  1
  V  V29  1  0.87336997  0.62764057  0.39825590  1
  V  V30  1  0.37718082  0.85821774  0.62435193  1
  V  V31  1  0.87382576  0.12823436  0.63778815  1
  Fe  Fe32  1  0.37484048  0.87492500  0.37984285  1
  Fe  Fe33  1  0.12792315  0.12659756  0.63173399  1
  Fe  Fe34  1  0.62828147  0.12444451  0.39036886  1
  Fe  Fe35  1  0.62371451  0.62745099  0.89396081  1
  Fe  Fe36  1  0.61848526  0.87485795  0.63569639  1
  Fe  Fe37  1  0.37376183  0.62458277  0.38146538  1
  Fe  Fe38  1  0.62730664  0.62310480  0.39076928  1
  Fe  Fe39  1  0.62806412  0.37361836  0.13215178  1
  Fe  Fe40  1  0.12852999  0.37475716  0.63369248  1
  Fe  Fe41  1  0.87315166  0.87592751  0.63668041  1
  Fe  Fe42  1  0.37355995  0.87472635  0.14610207  1
  Fe  Fe43  1  0.62347776  0.87620635  0.88465893  1
  Fe  Fe44  1  0.61861973  0.62468828  0.63234531  1
  Fe  Fe45  1  0.87243669  0.62300786  0.63226750  1
  Fe  Fe46  1  0.37251531  0.12534641  0.38247495  1
  Fe  Fe47  1  0.12692729  0.62719035  0.88557402  1
  Fe  Fe48  1  0.87590128  0.87584242  0.13573748  1
  Fe  Fe49  1  0.12207356  0.62372104  0.39549290  1
  Fe  Fe50  1  0.37288691  0.62280909  0.14162880  1
  Fe  Fe51  1  0.12801978  0.37700458  0.88694105  1
  Fe  Fe52  1  0.37149845  0.12730410  0.14177619  1
  Fe  Fe53  1  0.62240623  0.12731800  0.63408706  1
  Fe  Fe54  1  0.12912547  0.87549091  0.88410665  1
  Fe  Fe55  1  0.13061044  0.87623141  0.63269343  1
  Fe  Fe56  1  0.87646964  0.87780730  0.87573333  1
  Fe  Fe57  1  0.62460492  0.37621585  0.89482990  1
  Fe  Fe58  1  0.87307663  0.37494290  0.63429365  1
  Fe  Fe59  1  0.12921276  0.62595982  0.62847781  1
  Fe  Fe60  1  0.62768277  0.62493575  0.13195605  1
  Fe  Fe61  1  0.62505365  0.12475965  0.88958680  1
  Fe  Fe62  1  0.87723484  0.62693080  0.13271055  1
  Fe  Fe63  1  0.62684713  0.12496535  0.13445875  1
  Pb  Pb64  1  -0.00187070  -0.00788797  -0.00563581  1
  Pb  Pb65  1  -0.00144365  0.00020753  0.25230509  1
  Pb  Pb66  1  0.00324708  -0.00743750  0.51039699  1
  Pb  Pb67  1  0.00088910  -0.00760507  0.74346363  1
  Pb  Pb68  1  0.00156902  0.25036028  -0.00630499  1
  Pb  Pb69  1  -0.00083601  0.25211435  0.25069343  1
  Pb  Pb70  1  0.00559281  0.25288150  0.50832266  1
  Pb  Pb71  1  0.00600757  0.25701801  0.74346864  1
  Pb  Pb72  1  -0.00155367  0.50574397  -0.00451048  1
  Pb  Pb73  1  0.00565454  0.50527982  0.25551881  1
  Pb  Pb74  1  -0.00738631  0.49924766  0.50846301  1
  Pb  Pb75  1  0.00465552  0.50369336  0.73793707  1
  Pb  Pb76  1  -0.00305381  0.75469445  -0.00791665  1
  Pb  Pb77  1  0.00080841  0.74490233  0.25342900  1
  Pb  Pb78  1  -0.00331410  0.74586573  0.50879826  1
  Pb  Pb79  1  0.00051303  0.75211941  0.73682289  1
  Pb  Pb80  1  0.26280728  -0.00079941  0.00852004  1
  Pb  Pb81  1  0.25910326  0.00059524  0.25535722  1
  Pb  Pb82  1  0.24847879  -0.00168528  0.49885299  1
  Pb  Pb83  1  0.24829333  -0.00502645  0.74468513  1
  Pb  Pb84  1  0.25558789  0.24481765  0.00312364  1
  Pb  Pb85  1  0.25224160  0.24817133  0.25317941  1
  Pb  Pb86  1  0.24196324  0.25046856  0.50176075  1
  Pb  Pb87  1  0.24634182  0.25414920  0.74920283  1
  Pb  Pb88  1  0.25317870  0.50586620  0.00284527  1
  Pb  Pb89  1  0.24721567  0.50738604  0.25545365  1
  Pb  Pb90  1  0.24485469  0.49945527  0.49763420  1
  Pb  Pb91  1  0.23926838  0.50064314  0.75095207  1
  Pb  Pb92  1  0.25798318  0.75275951  0.00655825  1
  Pb  Pb93  1  0.25703946  0.74638936  0.25577523  1
  Pb  Pb94  1  0.24672275  0.74555276  0.49577545  1
  Pb  Pb95  1  0.23488189  0.74749315  0.75418974  1
  Pb  Pb96  1  0.50194409  0.00352758  0.00305507  1
  Pb  Pb97  1  0.49559528  0.00392699  0.24771089  1
  Pb  Pb98  1  0.49990405  -0.00009498  0.49285298  1
  Pb  Pb99  1  0.50778425  0.00116126  0.74780763  1
  Pb  Pb100  1  0.50940097  0.24665983  0.00649921  1
  Pb  Pb101  1  0.50817683  0.23811866  0.24952703  1
  Pb  Pb102  1  0.50412310  0.23803908  0.49789638  1
  Pb  Pb103  1  0.50933294  0.24923322  0.75808827  1
  Pb  Pb104  1  0.50911112  0.50300382  0.00594240  1
  Pb  Pb105  1  0.50850323  0.51242191  0.24895781  1
  Pb  Pb106  1  0.50452540  0.50375197  0.49572484  1
  Pb  Pb107  1  0.51261108  0.49800621  0.76095469  1
  Pb  Pb108  1  0.49826962  0.74652986  0.00522938  1
  Pb  Pb109  1  0.49643802  0.74603458  0.24678678  1
  Pb  Pb110  1  0.50370716  0.74527188  0.49384071  1
  Pb  Pb111  1  0.51643678  0.74590123  0.75837505  1
  Pb  Pb112  1  0.75206979  -0.00597009  -0.00646818  1
  Pb  Pb113  1  0.74491866  0.00286593  0.24988193  1
  Pb  Pb114  1  0.74496511  -0.01088939  0.51006435  1
  Pb  Pb115  1  0.74501238  -0.00665617  0.74585702  1
  Pb  Pb116  1  0.74254229  0.24951297  0.00091068  1
  Pb  Pb117  1  0.74669585  0.24550058  0.24906479  1
  Pb  Pb118  1  0.75133032  0.24700043  0.50418875  1
  Pb  Pb119  1  0.74080399  0.24613274  0.75201201  1
  Pb  Pb120  1  0.74858250  0.50772107  0.00082278  1
  Pb  Pb121  1  0.74416458  0.50835790  0.24816575  1
  Pb  Pb122  1  0.75861587  0.50186118  0.50728904  1
  Pb  Pb123  1  0.74717681  0.50719742  0.74656593  1
  Pb  Pb124  1  0.75229848  0.75270954  -0.00676379  1
  Pb  Pb125  1  0.75095972  0.74602788  0.24556309  1
  Pb  Pb126  1  0.74600913  0.75737149  0.50950247  1
  Pb  Pb127  1  0.74794288  0.75364243  0.74080226  1
  O  O128  1  0.12038509  -0.00169247  0.16399176  1
  O  O129  1  0.11907927  -0.00232492  0.41757545  1
  O  O130  1  0.13415130  0.00277757  0.66091166  1
  O  O131  1  0.12737315  0.00658930  0.91391161  1
  O  O132  1  0.12026419  0.25041980  0.16680871  1
  O  O133  1  0.11872143  0.25140166  0.41587580  1
  O  O134  1  0.12885602  0.24952629  0.66534412  1
  O  O135  1  0.12742708  0.24661376  0.91601393  1
  O  O136  1  0.11944735  0.50161322  0.16666411  1
  O  O137  1  0.11881401  0.49118541  0.41392902  1
  O  O138  1  0.13513639  0.50125660  0.65751369  1
  O  O139  1  0.12743329  0.50180218  0.91720664  1
  O  O140  1  0.12068358  0.74647115  0.16234101  1
  O  O141  1  0.12044891  0.75631110  0.41431016  1
  O  O142  1  0.13396100  0.75052006  0.65921554  1
  O  O143  1  0.12762745  0.75106217  0.91659163  1
  O  O144  1  0.37031537  0.00101568  0.16775134  1
  O  O145  1  0.37415143  0.00011013  0.40900100  1
  O  O146  1  0.37698270  0.01214544  0.65673372  1
  O  O147  1  0.37292313  0.00281675  0.91353155  1
  O  O148  1  0.36593673  0.25910966  0.16525335  1
  O  O149  1  0.37009743  0.25835925  0.41324585  1
  O  O150  1  0.37870930  0.25431477  0.66489562  1
  O  O151  1  0.37164035  0.25092688  0.91253539  1
  O  O152  1  0.36804013  0.49060550  0.16498530  1
  O  O153  1  0.37100225  0.48335616  0.41091706  1
  O  O154  1  0.37784500  0.49516903  0.66319319  1
  O  O155  1  0.37313875  0.50153980  0.91294343  1
  O  O156  1  0.37079739  0.74862547  0.16835781  1
  O  O157  1  0.37422124  0.75049500  0.40845112  1
  O  O158  1  0.37750263  0.74675403  0.61701847  1
  O  O159  1  0.37392168  0.75212376  0.91471445  1
  O  O160  1  0.62705242  -0.00384688  0.16391627  1
  O  O161  1  0.62945515  -0.00569320  0.41170782  1
  O  O162  1  0.61668901  0.00226663  0.65999002  1
  O  O163  1  0.62112214  0.00032222  0.91670287  1
  O  O164  1  0.62914957  0.25137713  0.16578549  1
  O  O165  1  0.62771015  0.25850111  0.41392667  1
  O  O166  1  0.62073059  0.25697573  0.66574203  1
  O  O167  1  0.62356726  0.24963261  0.91824434  1
  O  O168  1  0.62852014  0.49644844  0.16259192  1
  O  O169  1  0.62667917  0.48727901  0.41159667  1
  O  O170  1  0.61541635  0.49491299  0.66399150  1
  O  O171  1  0.62288500  0.50120561  0.91852189  1
  O  O172  1  0.62717685  0.75648311  0.15970088  1
  O  O173  1  0.62759818  0.75457982  0.41167620  1
  O  O174  1  0.61663204  0.74901522  0.66349095  1
  O  O175  1  0.62199316  0.75303878  0.91774425  1
  O  O176  1  0.87875253  0.00313324  0.16758850  1
  O  O177  1  0.87496946  0.00408685  0.42005936  1
  O  O178  1  0.87320142  0.01087890  0.66131273  1
  O  O179  1  0.87847709  0.00979141  0.90668891  1
  O  O180  1  0.88127028  0.25027457  0.16581591  1
  O  O181  1  0.87651830  0.24581909  0.41880965  1
  O  O182  1  0.87189547  0.24708598  0.66448176  1
  O  O183  1  0.87826394  0.25044634  0.91170131  1
  O  O184  1  0.88034490  0.49258002  0.16112123  1
  O  O185  1  0.87554309  0.49921016  0.41708264  1
  O  O186  1  0.87200945  0.49806219  0.66618575  1
  O  O187  1  0.87675308  0.49705197  0.90830212  1
  O  O188  1  0.87770745  0.75167234  0.16724641  1
  O  O189  1  0.87412876  0.74762658  0.41907551  1
  O  O190  1  0.87368938  0.74876887  0.65842022  1
  O  O191  1  0.87619385  0.74496941  0.90146907  1
  O  O192  1  0.00072580  0.12447738  0.17144798  1
  O  O193  1  -0.00469632  0.12407700  0.42347045  1
  O  O194  1  -0.00522065  0.12808432  0.65860504  1
  O  O195  1  -0.00115948  0.12883338  0.91105267  1
  O  O196  1  -0.00058872  0.37347122  0.16941715  1
  O  O197  1  -0.00033751  0.37195273  0.41931683  1
  O  O198  1  0.00080256  0.37471425  0.65879816  1
  O  O199  1  -0.00519596  0.37409993  0.91193916  1
  O  O200  1  0.00334874  0.62380120  0.16854862  1
  O  O201  1  -0.00739423  0.62494187  0.42058853  1
  O  O202  1  0.00296896  0.62401387  0.65443231  1
  O  O203  1  -0.00592093  0.62297729  0.90855260  1
  O  O204  1  0.00692342  0.87392721  0.16997713  1
  O  O205  1  -0.00093955  0.87570168  0.42288535  1
  O  O206  1  0.00241857  0.87906419  0.65515306  1
  O  O207  1  0.00076149  0.87789978  0.90928795  1
  O  O208  1  0.24012715  0.12655073  0.16784231  1
  O  O209  1  0.24343463  0.12669766  0.41203066  1
  O  O210  1  0.26041636  0.13367109  0.65977393  1
  O  O211  1  0.25341749  0.12707286  0.91601312  1
  O  O212  1  0.24243755  0.37589851  0.16721886  1
  O  O213  1  0.24140719  0.37086763  0.40739761  1
  O  O214  1  0.26167143  0.37356196  0.66263643  1
  O  O215  1  0.25822926  0.37617922  0.91926645  1
  O  O216  1  0.23872138  0.62182595  0.16594764  1
  O  O217  1  0.25047338  0.61953080  0.41268856  1
  O  O218  1  0.26707764  0.62731282  0.66043376  1
  O  O219  1  0.25769499  0.62716615  0.91759940  1
  O  O220  1  0.23522215  0.87299529  0.16844579  1
  O  O221  1  0.24169108  0.87751125  0.40826479  1
  O  O222  1  0.26818183  0.87499722  0.66017858  1
  O  O223  1  0.25820702  0.87784794  0.91690968  1
  O  O224  1  0.49973168  0.12750725  0.16271385  1
  O  O225  1  0.49980062  0.12894885  0.41013103  1
  O  O226  1  0.49359137  0.13361934  0.66426097  1
  O  O227  1  0.48977840  0.12654743  0.91486466  1
  O  O228  1  0.49369328  0.37309008  0.15569507  1
  O  O229  1  0.50144475  0.37059587  0.39843904  1
  O  O230  1  0.49792423  0.37468273  0.66768576  1
  O  O231  1  0.48802088  0.37583013  0.91843841  1
  O  O232  1  0.50158070  0.62331762  0.16170674  1
  O  O233  1  0.49911074  0.61821182  0.41085326  1
  O  O234  1  0.48654530  0.62654324  0.66448158  1
  O  O235  1  0.48989900  0.62735190  0.91906853  1
  O  O236  1  0.50853039  0.87594250  0.16297565  1
  O  O237  1  0.50728054  0.87567824  0.40511062  1
  O  O238  1  0.48435263  0.87525757  0.66143705  1
  O  O239  1  0.48956635  0.87774177  0.91841624  1
  O  O240  1  0.75653670  0.12512895  0.16379495  1
  O  O241  1  0.75759712  0.12707770  0.41749562  1
  O  O242  1  0.75193692  0.12913779  0.66293656  1
  O  O243  1  0.75928399  0.12830896  0.90919285  1
  O  O244  1  0.76154867  0.37133803  0.15968287  1
  O  O245  1  0.74992929  0.37249127  0.41427065  1
  O  O246  1  0.73952649  0.37634773  0.66199735  1
  O  O247  1  0.76013940  0.37384693  0.91302647  1
  O  O248  1  0.75291157  0.62446978  0.16326934  1
  O  O249  1  0.75517689  0.62200035  0.41647219  1
  O  O250  1  0.74380449  0.62164935  0.65896901  1
  O  O251  1  0.75836382  0.62264540  0.91008624  1
  O  O252  1  0.74549386  0.87722033  0.16441040  1
  O  O253  1  0.74888308  0.87439858  0.41973174  1
  O  O254  1  0.74602629  0.87821443  0.66090057  1
  O  O255  1  0.75282294  0.87795364  0.90909200  1
  O  O256  1  0.12143987  0.12615330  0.04820829  1
  O  O257  1  0.11566974  0.12290985  0.30523322  1
  O  O258  1  0.12757518  0.13028393  0.53162552  1
  O  O259  1  0.12855487  0.12485557  0.79578849  1
  O  O260  1  0.12411222  0.37551140  0.04908655  1
  O  O261  1  0.11794158  0.37371324  0.30100468  1
  O  O262  1  0.13018386  0.36603545  0.53350562  1
  O  O263  1  0.13514974  0.37601024  0.78730040  1
  O  O264  1  0.12112900  0.62556308  0.05049243  1
  O  O265  1  0.11695674  0.62111995  0.29442609  1
  O  O266  1  0.13322973  0.62748526  0.52680898  1
  O  O267  1  0.13768566  0.62796914  0.78535432  1
  O  O268  1  0.12107305  0.87893236  0.04937193  1
  O  O269  1  0.11571172  0.87750106  0.30382640  1
  O  O270  1  0.13320273  0.88038666  0.53261194  1
  O  O271  1  0.13827092  0.87516254  0.78374550  1
  O  O272  1  0.36495211  0.12525983  0.04083710  1
  O  O273  1  0.36869353  0.13003498  0.28169971  1
  O  O274  1  0.38028292  0.12851807  0.54330055  1
  O  O275  1  0.37315145  0.12342197  0.80097202  1
  O  O276  1  0.37019446  0.37485848  0.04828142  1
  O  O277  1  0.37431775  0.36966477  0.29257589  1
  O  O278  1  0.38069770  0.37064510  0.54851022  1
  O  O279  1  0.37345509  0.37407406  0.80036874  1
  O  O280  1  0.36707899  0.62708745  0.04119285  1
  O  O281  1  0.36994504  0.61956047  0.27998883  1
  O  O282  1  0.37817831  0.59621343  0.54031450  1
  O  O283  1  0.37467104  0.62414197  0.80194358  1
  O  O284  1  0.36530649  0.87660042  0.04495950  1
  O  O285  1  0.37055300  0.87552541  0.27848432  1
  O  O286  1  0.37659337  0.89006800  0.53545809  1
  O  O287  1  0.37583091  0.87042315  0.80092680  1
  O  O288  1  0.62408424  0.12988834  0.03398059  1
  O  O289  1  0.63166442  0.13042870  0.28975344  1
  O  O290  1  0.62144276  0.13396580  0.53325051  1
  O  O291  1  0.62026788  0.13129273  0.78842436  1
  O  O292  1  0.62607914  0.37021572  0.03138179  1
  O  O293  1  0.63795467  0.37265410  0.29361913  1
  O  O294  1  0.62110459  0.37478433  0.54946138  1
  O  O295  1  0.61639813  0.37656294  0.79376307  1
  O  O296  1  0.62691460  0.62292293  0.03087036  1
  O  O297  1  0.62837575  0.61583401  0.28990937  1
  O  O298  1  0.61155139  0.62204540  0.53153134  1
  O  O299  1  0.61308250  0.62522435  0.79219375  1
  O  O300  1  0.62807518  0.87917752  0.04582749  1
  O  O301  1  0.63355628  0.87565681  0.29820324  1
  O  O302  1  0.62534856  0.87278474  0.53480805  1
  O  O303  1  0.61430756  0.87448494  0.78385978  1
  O  O304  1  0.87920586  0.12467978  0.04663230  1
  O  O305  1  0.87901106  0.12295155  0.30527399  1
  O  O306  1  0.87021948  0.12981704  0.54665921  1
  O  O307  1  0.87661668  0.13029189  0.79424598  1
  O  O308  1  0.88084236  0.37374839  0.04795490  1
  O  O309  1  0.87730307  0.37306574  0.30419413  1
  O  O310  1  0.86927074  0.37897242  0.53377184  1
  O  O311  1  0.87361373  0.37419615  0.79528860  1
  O  O312  1  0.87870264  0.62359383  0.03348054  1
  O  O313  1  0.87645760  0.62703911  0.30665065  1
  O  O314  1  0.87427900  0.61578391  0.53121170  1
  O  O315  1  0.87399693  0.62075729  0.79298157  1
  O  O316  1  0.87962395  0.87986706  0.03621223  1
  O  O317  1  0.87461078  0.87673437  0.30776210  1
  O  O318  1  0.86632907  0.87779321  0.53420391  1
  O  O319  1  0.87713997  0.88222226  0.77569147  1
