# generated using pymatgen
data_VFe(PbO3)2
_symmetry_space_group_name_H-M   'P 1'
_cell_length_a   15.39310828
_cell_length_b   15.38654386
_cell_length_c   18.52509979
_cell_angle_alpha   90.00401064
_cell_angle_beta   89.99842653
_cell_angle_gamma   90.00542891
_symmetry_Int_Tables_number   1
_chemical_formula_structural   VFe(PbO3)2
_chemical_formula_sum   'V32 Fe32 Pb64 O192'
_cell_volume   4387.60938353
_cell_formula_units_Z   32
loop_
 _symmetry_equiv_pos_site_id
 _symmetry_equiv_pos_as_xyz
  1  'x, y, z'
loop_
 _atom_site_type_symbol
 _atom_site_label
 _atom_site_symmetry_multiplicity
 _atom_site_fract_x
 _atom_site_fract_y
 _atom_site_fract_z
 _atom_site_occupancy
  V  V0  1  0.87402131  0.37510935  0.88850458  1
  V  V1  1  0.12644033  0.62507934  0.39449868  1
  V  V2  1  0.12696927  0.37483651  0.14098797  1
  V  V3  1  0.62544406  0.87640927  0.89202830  1
  V  V4  1  0.62456502  0.37343345  0.64596008  1
  V  V5  1  0.37494784  0.87764213  0.89208355  1
  V  V6  1  0.11742433  0.87501499  0.64314442  1
  V  V7  1  0.62487627  0.12687306  0.89443480  1
  V  V8  1  0.87292789  0.12642817  0.63848950  1
  V  V9  1  0.37113959  0.37854202  0.39536902  1
  V  V10  1  0.62365633  0.62768913  0.64602641  1
  V  V11  1  0.12359638  0.62380355  0.13558813  1
  V  V12  1  0.37040994  0.62431617  0.13943962  1
  V  V13  1  0.62602169  0.37741172  0.38765166  1
  V  V14  1  0.87960474  0.13077346  0.13996985  1
  V  V15  1  0.37677881  0.87447164  0.63975918  1
  V  V16  1  0.86525583  0.87586146  0.64342906  1
  V  V17  1  0.37416983  0.37605232  0.13703957  1
  V  V18  1  0.87413672  0.37455662  0.39302824  1
  V  V19  1  0.87688544  0.12321693  0.88894724  1
  V  V20  1  0.88003330  0.62415109  0.13299734  1
  V  V21  1  0.62527376  0.87274150  0.38785401  1
  V  V22  1  0.87285774  0.37435340  0.64184194  1
  V  V23  1  0.62505317  0.12787683  0.38695520  1
  V  V24  1  0.37666530  0.37018939  0.88483194  1
  V  V25  1  0.36993075  0.87117079  0.38769117  1
  V  V26  1  0.37488302  0.62455666  0.64148259  1
  V  V27  1  0.87689307  0.87654706  0.13807212  1
  V  V28  1  0.62644791  0.12290330  0.63996863  1
  V  V29  1  0.87406129  0.62241381  0.39341846  1
  V  V30  1  0.37624102  0.62436541  0.88778208  1
  V  V31  1  0.62382639  0.62310693  0.38929413  1
  Fe  Fe32  1  0.37719764  0.12353966  0.62801286  1
  Fe  Fe33  1  0.12653812  0.37469755  0.63182040  1
  Fe  Fe34  1  0.12404404  0.12264112  0.63807685  1
  Fe  Fe35  1  0.12738413  0.12601245  0.87877844  1
  Fe  Fe36  1  0.62255128  0.37358497  0.89113789  1
  Fe  Fe37  1  0.12146685  0.37698404  0.39904189  1
  Fe  Fe38  1  0.62754607  0.37559112  0.13010195  1
  Fe  Fe39  1  0.12644547  0.62493387  0.87601632  1
  Fe  Fe40  1  0.87413790  0.87100234  0.38455249  1
  Fe  Fe41  1  0.12191856  0.87126530  0.38351521  1
  Fe  Fe42  1  0.62384264  0.62621538  0.89344832  1
  Fe  Fe43  1  0.87171845  0.12458415  0.38164367  1
  Fe  Fe44  1  0.37315339  0.87521605  0.13068587  1
  Fe  Fe45  1  0.88089516  0.37742357  0.12881523  1
  Fe  Fe46  1  0.12578057  0.12536214  0.14218797  1
  Fe  Fe47  1  0.87150091  0.62285030  0.64902749  1
  Fe  Fe48  1  0.37687967  0.12361089  0.88980684  1
  Fe  Fe49  1  0.12842444  0.37286214  0.87911709  1
  Fe  Fe50  1  0.87398408  0.88037527  0.88168144  1
  Fe  Fe51  1  0.12517600  0.62701825  0.64602450  1
  Fe  Fe52  1  0.62469108  0.87512549  0.13437407  1
  Fe  Fe53  1  0.37939351  0.37639023  0.63332178  1
  Fe  Fe54  1  0.62604258  0.12523122  0.13504141  1
  Fe  Fe55  1  0.62050044  0.87656338  0.63673659  1
  Fe  Fe56  1  0.12537034  0.87778995  0.87888262  1
  Fe  Fe57  1  0.62737916  0.62454536  0.12774894  1
  Fe  Fe58  1  0.37365432  0.12698959  0.13169245  1
  Fe  Fe59  1  0.37815015  0.12462236  0.39474980  1
  Fe  Fe60  1  0.12403798  0.12488806  0.38295858  1
  Fe  Fe61  1  0.12588092  0.87321379  0.13781793  1
  Fe  Fe62  1  0.87434423  0.62841513  0.87662733  1
  Fe  Fe63  1  0.37642783  0.62491471  0.38588634  1
  Pb  Pb64  1  0.01434324  -0.00378524  -0.00111952  1
  Pb  Pb65  1  0.00749178  -0.00174962  0.25183558  1
  Pb  Pb66  1  -0.00011096  0.00009341  0.48932752  1
  Pb  Pb67  1  0.00193804  -0.00486539  0.75215787  1
  Pb  Pb68  1  0.00070535  0.25142791  -0.00411066  1
  Pb  Pb69  1  0.01334199  0.25331551  0.25897791  1
  Pb  Pb70  1  0.01160700  0.23961313  0.50124175  1
  Pb  Pb71  1  0.01271444  0.24859738  0.74735921  1
  Pb  Pb72  1  -0.00032578  0.50055909  -0.01264663  1
  Pb  Pb73  1  0.00667002  0.49384676  0.25353139  1
  Pb  Pb74  1  0.00566893  0.50377625  0.51223290  1
  Pb  Pb75  1  0.00731199  0.50020638  0.74848791  1
  Pb  Pb76  1  0.00448855  0.75424633  -0.01582086  1
  Pb  Pb77  1  -0.00143548  0.75619243  0.25210091  1
  Pb  Pb78  1  -0.00487590  0.74341259  0.50489947  1
  Pb  Pb79  1  -0.00380369  0.74329183  0.75332882  1
  Pb  Pb80  1  0.24028910  0.00373039  0.00219093  1
  Pb  Pb81  1  0.25078955  0.00323782  0.24407303  1
  Pb  Pb82  1  0.24236180  0.00987437  0.49690977  1
  Pb  Pb83  1  0.24711293  0.00690162  0.74946935  1
  Pb  Pb84  1  0.24303103  0.23480006  -0.00133175  1
  Pb  Pb85  1  0.25430837  0.23653139  0.25943723  1
  Pb  Pb86  1  0.24561499  0.24038122  0.50333073  1
  Pb  Pb87  1  0.25101750  0.24534535  0.73798313  1
  Pb  Pb88  1  0.24845569  0.49954900  -0.00872811  1
  Pb  Pb89  1  0.25054905  0.50038837  0.25530364  1
  Pb  Pb90  1  0.24146441  0.49952684  0.50976374  1
  Pb  Pb91  1  0.24137476  0.49119200  0.74657208  1
  Pb  Pb92  1  0.24732240  0.75917241  -0.00310647  1
  Pb  Pb93  1  0.24575885  0.75473461  0.24873719  1
  Pb  Pb94  1  0.24179040  0.74431425  0.50565309  1
  Pb  Pb95  1  0.24535032  0.75443681  0.75406873  1
  Pb  Pb96  1  0.50127841  -0.00114061  0.00743959  1
  Pb  Pb97  1  0.49536363  0.00288048  0.24069809  1
  Pb  Pb98  1  0.50288694  -0.00457411  0.49810541  1
  Pb  Pb99  1  0.49173745  0.00630372  0.75281338  1
  Pb  Pb100  1  0.49848470  0.24003965  0.00516140  1
  Pb  Pb101  1  0.49753908  0.24354559  0.24800513  1
  Pb  Pb102  1  0.49195294  0.25334291  0.50464440  1
  Pb  Pb103  1  0.49049676  0.24424122  0.75010160  1
  Pb  Pb104  1  0.50756949  0.50018171  0.00046885  1
  Pb  Pb105  1  0.49656746  0.50399797  0.24619222  1
  Pb  Pb106  1  0.49737017  0.49541166  0.50333332  1
  Pb  Pb107  1  0.50891227  0.49881379  0.75792850  1
  Pb  Pb108  1  0.49813591  0.75984184  0.00469784  1
  Pb  Pb109  1  0.50212732  0.74980322  0.24197318  1
  Pb  Pb110  1  0.50427274  0.75565959  0.50055109  1
  Pb  Pb111  1  0.50161824  0.74745193  0.75587238  1
  Pb  Pb112  1  0.74066867  0.00178279  0.00522531  1
  Pb  Pb113  1  0.75820641  0.00106346  0.24868658  1
  Pb  Pb114  1  0.75012388  -0.00620632  0.49494266  1
  Pb  Pb115  1  0.75436303  -0.00193610  0.75369599  1
  Pb  Pb116  1  0.74830102  0.25607596  0.00439174  1
  Pb  Pb117  1  0.75393469  0.25049085  0.24264650  1
  Pb  Pb118  1  0.74783929  0.25133258  0.49888655  1
  Pb  Pb119  1  0.74558521  0.25400952  0.75548025  1
  Pb  Pb120  1  0.74397042  0.50089916  -0.00234009  1
  Pb  Pb121  1  0.74968925  0.49820262  0.23836207  1
  Pb  Pb122  1  0.75574485  0.50652545  0.50793743  1
  Pb  Pb123  1  0.73911815  0.50022113  0.76155926  1
  Pb  Pb124  1  0.75161235  0.74637612  -0.00613060  1
  Pb  Pb125  1  0.75552730  0.75147870  0.24465809  1
  Pb  Pb126  1  0.75247519  0.74438225  0.50506921  1
  Pb  Pb127  1  0.74813028  0.74294537  0.75862450  1
  O  O128  1  0.12353400  -0.00124785  0.16753500  1
  O  O129  1  0.12507670  -0.00283657  0.40898262  1
  O  O130  1  0.12871891  -0.00765983  0.66165711  1
  O  O131  1  0.12782031  0.00210575  0.91207787  1
  O  O132  1  0.12324725  0.25936063  0.16335868  1
  O  O133  1  0.12388996  0.25093722  0.41691070  1
  O  O134  1  0.12259390  0.25014007  0.65713548  1
  O  O135  1  0.12439898  0.25035619  0.90990316  1
  O  O136  1  0.12334847  0.50082152  0.16908806  1
  O  O137  1  0.12228381  0.50807358  0.42135943  1
  O  O138  1  0.12342418  0.49863604  0.66221251  1
  O  O139  1  0.12721593  0.49862312  0.90781316  1
  O  O140  1  0.12574521  0.74186175  0.16292756  1
  O  O141  1  0.12401286  0.74296408  0.41960298  1
  O  O142  1  0.12881498  0.75898627  0.66678046  1
  O  O143  1  0.12778225  0.75072096  0.90472946  1
  O  O144  1  0.37479886  0.00106811  0.15676625  1
  O  O145  1  0.37941619  -0.01145998  0.41228886  1
  O  O146  1  0.38021940  -0.00665647  0.65851259  1
  O  O147  1  0.38048441  -0.00736970  0.91183314  1
  O  O148  1  0.37060746  0.26240869  0.16243157  1
  O  O149  1  0.38088013  0.26041603  0.41660945  1
  O  O150  1  0.38171649  0.24868735  0.65883916  1
  O  O151  1  0.37998832  0.25664659  0.90753271  1
  O  O152  1  0.36897440  0.49682491  0.16780531  1
  O  O153  1  0.38081105  0.49811644  0.41887680  1
  O  O154  1  0.38165017  0.50932450  0.66268140  1
  O  O155  1  0.37504306  0.50443070  0.90916274  1
  O  O156  1  0.37165627  0.73941322  0.15909618  1
  O  O157  1  0.37952322  0.75351398  0.41490239  1
  O  O158  1  0.38073500  0.74828127  0.66893335  1
  O  O159  1  0.37760935  0.75061680  0.91316659  1
  O  O160  1  0.62638893  -0.00011618  0.16688770  1
  O  O161  1  0.62508189  0.00202490  0.40889328  1
  O  O162  1  0.62605279  0.00619396  0.66376272  1
  O  O163  1  0.62260883  -0.00003935  0.91707602  1
  O  O164  1  0.62804887  0.25211845  0.16274197  1
  O  O165  1  0.62750151  0.24938604  0.41212706  1
  O  O166  1  0.62619672  0.24453990  0.66694952  1
  O  O167  1  0.62353982  0.24458438  0.91330874  1
  O  O168  1  0.62596949  0.50172747  0.16183831  1
  O  O169  1  0.62767177  0.50409211  0.41504969  1
  O  O170  1  0.62515400  0.50326287  0.66937837  1
  O  O171  1  0.62468880  0.49885819  0.91477429  1
  O  O172  1  0.62492739  0.74625302  0.16197857  1
  O  O173  1  0.62558193  0.74393769  0.41394492  1
  O  O174  1  0.62286817  0.74685952  0.66716825  1
  O  O175  1  0.62375145  0.75848941  0.91151886  1
  O  O176  1  0.87636766  -0.00554130  0.16073610  1
  O  O177  1  0.86939294  -0.00163786  0.41235127  1
  O  O178  1  0.87113842  -0.00050665  0.66532030  1
  O  O179  1  0.86842952  0.00943034  0.91489991  1
  O  O180  1  0.87748734  0.24728890  0.15714112  1
  O  O181  1  0.86743898  0.25790501  0.41241903  1
  O  O182  1  0.86844773  0.25184118  0.66672270  1
  O  O183  1  0.87212766  0.24288717  0.91612010  1
  O  O184  1  0.88045981  0.50735629  0.15759662  1
  O  O185  1  0.86998028  0.49973156  0.42307910  1
  O  O186  1  0.86810076  0.48988848  0.66621940  1
  O  O187  1  0.87476400  0.49264036  0.90175854  1
  O  O188  1  0.87674175  0.74685565  0.15985335  1
  O  O189  1  0.87124868  0.74298521  0.42062281  1
  O  O190  1  0.87184027  0.76110026  0.66486380  1
  O  O191  1  0.87309853  0.75444401  0.90703791  1
  O  O192  1  -0.00558915  0.12261038  0.16424718  1
  O  O193  1  -0.00377119  0.12687956  0.41120687  1
  O  O194  1  -0.00806387  0.12288861  0.66131963  1
  O  O195  1  -0.00698387  0.12520198  0.90635222  1
  O  O196  1  0.00670207  0.37904723  0.16549428  1
  O  O197  1  -0.01340446  0.37933120  0.42074229  1
  O  O198  1  -0.01025816  0.37304772  0.65808686  1
  O  O199  1  -0.00578815  0.36971271  0.90883175  1
  O  O200  1  -0.00180304  0.62601449  0.16171012  1
  O  O201  1  -0.00005931  0.62440468  0.41968619  1
  O  O202  1  -0.00223768  0.62893496  0.66408731  1
  O  O203  1  -0.00043773  0.62330176  0.90392245  1
  O  O204  1  -0.00595854  0.87030083  0.16309760  1
  O  O205  1  -0.00180375  0.86913959  0.41720403  1
  O  O206  1  -0.00035037  0.87800191  0.65857171  1
  O  O207  1  -0.00089051  0.88123289  0.90866108  1
  O  O208  1  0.25166344  0.13051510  0.16726549  1
  O  O209  1  0.25150827  0.12633639  0.41389215  1
  O  O210  1  0.25314947  0.12158978  0.65759433  1
  O  O211  1  0.25213297  0.12579580  0.91005339  1
  O  O212  1  0.24551751  0.38072671  0.16599073  1
  O  O213  1  0.25562368  0.38076100  0.41206414  1
  O  O214  1  0.25387856  0.37752270  0.65562460  1
  O  O215  1  0.25977603  0.37826727  0.90798418  1
  O  O216  1  0.24934724  0.61900163  0.16575334  1
  O  O217  1  0.24577059  0.62435110  0.41522744  1
  O  O218  1  0.26054234  0.62882245  0.66391960  1
  O  O219  1  0.25800603  0.62749929  0.91041007  1
  O  O220  1  0.25132407  0.87040447  0.16583509  1
  O  O221  1  0.25525932  0.86900233  0.40938833  1
  O  O222  1  0.26071395  0.87235567  0.66428939  1
  O  O223  1  0.25737023  0.87340469  0.90759574  1
  O  O224  1  0.49806267  0.13094162  0.16329223  1
  O  O225  1  0.51032992  0.12567432  0.41455711  1
  O  O226  1  0.50760961  0.12350407  0.66094649  1
  O  O227  1  0.50612046  0.12354208  0.91768478  1
  O  O228  1  0.49088351  0.38035221  0.15626016  1
  O  O229  1  0.50688121  0.37835401  0.41718443  1
  O  O230  1  0.50590228  0.37706798  0.66759861  1
  O  O231  1  0.49158021  0.38011367  0.91329611  1
  O  O232  1  0.49082749  0.61836573  0.15713615  1
  O  O233  1  0.50772595  0.62407365  0.41245082  1
  O  O234  1  0.50220742  0.62621221  0.66940734  1
  O  O235  1  0.49162137  0.62719046  0.91660338  1
  O  O236  1  0.49724750  0.87029768  0.16401814  1
  O  O237  1  0.50149771  0.87184567  0.41515405  1
  O  O238  1  0.49511215  0.87262233  0.66870071  1
  O  O239  1  0.50184919  0.87491667  0.91648261  1
  O  O240  1  0.75928719  0.12228975  0.16241804  1
  O  O241  1  0.74179757  0.12583961  0.41461162  1
  O  O242  1  0.74709085  0.12526854  0.66901915  1
  O  O243  1  0.74518203  0.12487822  0.91608888  1
  O  O244  1  0.75614345  0.37777154  0.15954786  1
  O  O245  1  0.74952075  0.37836464  0.41881302  1
  O  O246  1  0.74779206  0.37267739  0.67302093  1
  O  O247  1  0.75615726  0.36834556  0.91232233  1
  O  O248  1  0.76049419  0.62498551  0.15613467  1
  O  O249  1  0.74562863  0.62445603  0.41941353  1
  O  O250  1  0.74031747  0.62651537  0.66984234  1
  O  O251  1  0.75249368  0.62611941  0.91143163  1
  O  O252  1  0.75775906  0.87113988  0.16161782  1
  O  O253  1  0.74451453  0.87095191  0.41491053  1
  O  O254  1  0.74886660  0.87803852  0.66329605  1
  O  O255  1  0.74294598  0.88052754  0.91202517  1
  O  O256  1  0.13264905  0.12295223  0.04045521  1
  O  O257  1  0.12479721  0.13418485  0.28133109  1
  O  O258  1  0.12637117  0.12366226  0.53623487  1
  O  O259  1  0.12457531  0.12264365  0.77710354  1
  O  O260  1  0.12732409  0.37855926  0.05007740  1
  O  O261  1  0.11013675  0.37911388  0.29807497  1
  O  O262  1  0.12144960  0.38475988  0.52909242  1
  O  O263  1  0.12387640  0.37577763  0.77879300  1
  O  O264  1  0.12596114  0.62080574  0.04473521  1
  O  O265  1  0.12300746  0.62376809  0.30370345  1
  O  O266  1  0.13217492  0.62761725  0.54407476  1
  O  O267  1  0.12827560  0.62480062  0.77450385  1
  O  O268  1  0.12686146  0.88008925  0.03683075  1
  O  O269  1  0.11841670  0.86238312  0.28360312  1
  O  O270  1  0.12785289  0.87049539  0.55229445  1
  O  O271  1  0.12785072  0.88180119  0.77822588  1
  O  O272  1  0.37617702  0.13534030  0.03053451  1
  O  O273  1  0.37881756  0.13578932  0.29391509  1
  O  O274  1  0.37932730  0.12608876  0.52648454  1
  O  O275  1  0.38703506  0.12218790  0.78853311  1
  O  O276  1  0.36814952  0.37848235  0.04655353  1
  O  O277  1  0.37839176  0.37976139  0.30426703  1
  O  O278  1  0.38930142  0.37887510  0.53342986  1
  O  O279  1  0.37938147  0.37271840  0.79320789  1
  O  O280  1  0.36596910  0.61907177  0.04886093  1
  O  O281  1  0.37427502  0.61686760  0.28718095  1
  O  O282  1  0.37788343  0.62790928  0.55023693  1
  O  O283  1  0.37938793  0.62704444  0.79683783  1
  O  O284  1  0.37498272  0.86697223  0.03044091  1
  O  O285  1  0.37420035  0.86899650  0.29669981  1
  O  O286  1  0.37962576  0.86795246  0.54893479  1
  O  O287  1  0.38153145  0.87536391  0.80065454  1
  O  O288  1  0.62331716  0.12150628  0.03485130  1
  O  O289  1  0.62502349  0.13057364  0.29613209  1
  O  O290  1  0.62986405  0.12594034  0.54917340  1
  O  O291  1  0.62387615  0.12213565  0.80330063  1
  O  O292  1  0.62961785  0.37724905  0.02923538  1
  O  O293  1  0.62696973  0.37810864  0.29708375  1
  O  O294  1  0.62912116  0.37435730  0.55466704  1
  O  O295  1  0.62737611  0.37924311  0.78987660  1
  O  O296  1  0.62846646  0.62177224  0.02724319  1
  O  O297  1  0.62777779  0.62283964  0.29865423  1
  O  O298  1  0.62332586  0.62557627  0.55494322  1
  O  O299  1  0.62270002  0.62347848  0.79154338  1
  O  O300  1  0.62200699  0.88055702  0.03440573  1
  O  O301  1  0.62428471  0.86933428  0.29707327  1
  O  O302  1  0.61612322  0.87522036  0.53743004  1
  O  O303  1  0.62202195  0.88005173  0.80078481  1
  O  O304  1  0.87930519  0.12410325  0.04904670  1
  O  O305  1  0.86844431  0.12557147  0.28269560  1
  O  O306  1  0.86651501  0.12727837  0.54769427  1
  O  O307  1  0.86996053  0.12355436  0.79783174  1
  O  O308  1  0.88225553  0.37210674  0.02980964  1
  O  O309  1  0.87601726  0.38000771  0.30206407  1
  O  O310  1  0.86352156  0.37360418  0.55116953  1
  O  O311  1  0.87240830  0.36510484  0.79779057  1
  O  O312  1  0.88187272  0.62541156  0.04215812  1
  O  O313  1  0.87450590  0.62117479  0.30277165  1
  O  O314  1  0.86262741  0.62584748  0.54738427  1
  O  O315  1  0.87011239  0.63308802  0.77446273  1
  O  O316  1  0.87679082  0.87633571  0.04747600  1
  O  O317  1  0.87427231  0.86451050  0.28482374  1
  O  O318  1  0.86753394  0.87757334  0.55211499  1
  O  O319  1  0.87269228  0.88725425  0.78166090  1
