# generated using pymatgen
data_VFe(PbO3)2
_symmetry_space_group_name_H-M   'P 1'
_cell_length_a   15.39575285
_cell_length_b   15.37693316
_cell_length_c   18.53644058
_cell_angle_alpha   89.99449615
_cell_angle_beta   89.98182766
_cell_angle_gamma   90.01791478
_symmetry_Int_Tables_number   1
_chemical_formula_structural   VFe(PbO3)2
_chemical_formula_sum   'V32 Fe32 Pb64 O192'
_cell_volume   4388.30652556
_cell_formula_units_Z   32
loop_
 _symmetry_equiv_pos_site_id
 _symmetry_equiv_pos_as_xyz
  1  'x, y, z'
loop_
 _atom_site_type_symbol
 _atom_site_label
 _atom_site_symmetry_multiplicity
 _atom_site_fract_x
 _atom_site_fract_y
 _atom_site_fract_z
 _atom_site_occupancy
  V  V0  1  0.87586055  0.62188103  0.13713643  1
  V  V1  1  0.12283924  0.37570887  0.39574928  1
  V  V2  1  0.87590013  0.37876251  0.89060830  1
  V  V3  1  0.12409128  0.87617368  0.38614268  1
  V  V4  1  0.87443125  0.62808850  0.64008168  1
  V  V5  1  0.12461777  0.37619704  0.14030681  1
  V  V6  1  0.62377670  0.12250929  0.38422147  1
  V  V7  1  0.62460351  0.37651137  0.88821025  1
  V  V8  1  0.87209321  0.87351430  0.64395747  1
  V  V9  1  0.62773587  0.62785562  0.63777926  1
  V  V10  1  0.37450359  0.37479572  0.88487915  1
  V  V11  1  0.62712982  0.62772576  0.38450287  1
  V  V12  1  0.37522417  0.62498262  0.14003470  1
  V  V13  1  0.62822733  0.13035112  0.13580052  1
  V  V14  1  0.62588207  0.87552550  0.64304909  1
  V  V15  1  0.37678295  0.12597526  0.14125511  1
  V  V16  1  0.37421636  0.86445263  0.89532330  1
  V  V17  1  0.12492348  0.62654235  0.39294300  1
  V  V18  1  0.37659601  0.87711411  0.64196909  1
  V  V19  1  0.37334420  0.87667910  0.38876816  1
  V  V20  1  0.37424472  0.62580531  0.39605032  1
  V  V21  1  0.37345493  0.61887793  0.88656254  1
  V  V22  1  0.37381946  0.37608522  0.14530186  1
  V  V23  1  0.37648343  0.12366930  0.88884006  1
  V  V24  1  0.12350530  0.12804311  0.89098692  1
  V  V25  1  0.62568079  0.12038055  0.64250975  1
  V  V26  1  0.37459133  0.12074628  0.63846458  1
  V  V27  1  0.12492752  0.12480692  0.39137822  1
  V  V28  1  0.61772103  0.62369034  0.89527584  1
  V  V29  1  0.86487632  0.62169782  0.89156793  1
  V  V30  1  0.87411429  0.12365280  0.38885262  1
  V  V31  1  0.12034011  0.62238733  0.88974476  1
  Fe  Fe32  1  0.62188988  0.87489693  0.13542154  1
  Fe  Fe33  1  0.62261944  0.37467396  0.14511257  1
  Fe  Fe34  1  0.87695607  0.87508885  0.37933502  1
  Fe  Fe35  1  0.62242491  0.12805788  0.88583030  1
  Fe  Fe36  1  0.62265653  0.87492167  0.89223833  1
  Fe  Fe37  1  0.87781525  0.12939485  0.12467422  1
  Fe  Fe38  1  0.62685437  0.37198661  0.62987202  1
  Fe  Fe39  1  0.62426654  0.62154606  0.13568127  1
  Fe  Fe40  1  0.12284541  0.37374079  0.63343575  1
  Fe  Fe41  1  0.87729732  0.62688581  0.38232311  1
  Fe  Fe42  1  0.12729331  0.37586059  0.88043176  1
  Fe  Fe43  1  0.87594128  0.87601382  0.12620724  1
  Fe  Fe44  1  0.62561161  0.37459485  0.38580339  1
  Fe  Fe45  1  0.87638524  0.37446363  0.13466907  1
  Fe  Fe46  1  0.37720458  0.63064260  0.62973232  1
  Fe  Fe47  1  0.62553941  0.87617541  0.38032760  1
  Fe  Fe48  1  0.87209308  0.12729978  0.89294863  1
  Fe  Fe49  1  0.87685826  0.37527444  0.38987493  1
  Fe  Fe50  1  0.87471341  0.87198627  0.89825750  1
  Fe  Fe51  1  0.12785760  0.87516057  0.89610810  1
  Fe  Fe52  1  0.86987287  0.37306508  0.63091419  1
  Fe  Fe53  1  0.12248403  0.11967132  0.63578873  1
  Fe  Fe54  1  0.12409782  0.63052783  0.63319273  1
  Fe  Fe55  1  0.12760123  0.61960771  0.13689726  1
  Fe  Fe56  1  0.37842918  0.37433361  0.62671782  1
  Fe  Fe57  1  0.12826314  0.87394195  0.12707902  1
  Fe  Fe58  1  0.37542372  0.87511803  0.12979810  1
  Fe  Fe59  1  0.12303618  0.87559866  0.63899319  1
  Fe  Fe60  1  0.12840180  0.13029382  0.13022326  1
  Fe  Fe61  1  0.87281813  0.12029235  0.63578407  1
  Fe  Fe62  1  0.37175553  0.12276768  0.38531302  1
  Fe  Fe63  1  0.37244535  0.37247816  0.39724545  1
  Pb  Pb64  1  -0.00592920  -0.00146953  -0.00166133  1
  Pb  Pb65  1  -0.00000385  -0.00148448  0.23152422  1
  Pb  Pb66  1  -0.00087006  0.00539703  0.50367445  1
  Pb  Pb67  1  -0.00558470  0.00157056  0.75526376  1
  Pb  Pb68  1  -0.00651540  0.25446677  0.00148835  1
  Pb  Pb69  1  -0.00512892  0.25006232  0.24598632  1
  Pb  Pb70  1  0.00084188  0.24274918  0.50573046  1
  Pb  Pb71  1  -0.00637593  0.24623903  0.74119029  1
  Pb  Pb72  1  -0.00149995  0.49877669  0.00187591  1
  Pb  Pb73  1  -0.01144867  0.50247077  0.25509375  1
  Pb  Pb74  1  -0.00201442  0.49520253  0.50278137  1
  Pb  Pb75  1  0.00626206  0.49292787  0.74297282  1
  Pb  Pb76  1  0.00346652  0.75562102  0.00311021  1
  Pb  Pb77  1  -0.00442967  0.75112900  0.24144675  1
  Pb  Pb78  1  0.00674092  0.75302194  0.49882038  1
  Pb  Pb79  1  0.00098708  0.76391091  0.75872293  1
  Pb  Pb80  1  0.24539341  0.00359263  0.00393323  1
  Pb  Pb81  1  0.24874769  0.00274174  0.24168173  1
  Pb  Pb82  1  0.23677288  -0.00362033  0.50326873  1
  Pb  Pb83  1  0.24060214  -0.00582658  0.75554829  1
  Pb  Pb84  1  0.24778483  0.24882675  -0.00111641  1
  Pb  Pb85  1  0.25874577  0.25022006  0.25841075  1
  Pb  Pb86  1  0.24736681  0.25317522  0.50425193  1
  Pb  Pb87  1  0.24079944  0.25890669  0.74399697  1
  Pb  Pb88  1  0.24683675  0.50344626  -0.00117311  1
  Pb  Pb89  1  0.25632642  0.49278590  0.25833453  1
  Pb  Pb90  1  0.24497853  0.49921305  0.50705671  1
  Pb  Pb91  1  0.24941143  0.49952511  0.73508460  1
  Pb  Pb92  1  0.24157121  0.74586349  0.00560912  1
  Pb  Pb93  1  0.24609691  0.75303089  0.24329017  1
  Pb  Pb94  1  0.24416890  0.74849250  0.50557173  1
  Pb  Pb95  1  0.24287916  0.74975352  0.74909975  1
  Pb  Pb96  1  0.50061072  -0.00549770  0.00138727  1
  Pb  Pb97  1  0.50358914  -0.00180577  0.24714825  1
  Pb  Pb98  1  0.49971047  0.00072774  0.49670209  1
  Pb  Pb99  1  0.51012068  -0.00104605  0.75864360  1
  Pb  Pb100  1  0.50353747  0.25753757  -0.00019843  1
  Pb  Pb101  1  0.49432218  0.25262827  0.25881976  1
  Pb  Pb102  1  0.49868273  0.25619402  0.49637337  1
  Pb  Pb103  1  0.50443207  0.24428730  0.74609452  1
  Pb  Pb104  1  0.50709862  0.49727566  0.00689264  1
  Pb  Pb105  1  0.50506155  0.49383335  0.25709693  1
  Pb  Pb106  1  0.49816068  0.49676086  0.49746249  1
  Pb  Pb107  1  0.49562829  0.49639185  0.73797193  1
  Pb  Pb108  1  0.49975833  0.75631712  0.00882125  1
  Pb  Pb109  1  0.50795433  0.75513319  0.24682846  1
  Pb  Pb110  1  0.49707896  0.74752688  0.49914034  1
  Pb  Pb111  1  0.50581325  0.75483192  0.75295637  1
  Pb  Pb112  1  0.74876738  0.00047405  -0.00601183  1
  Pb  Pb113  1  0.75753544  -0.01008423  0.24039899  1
  Pb  Pb114  1  0.75582011  0.00191698  0.49624945  1
  Pb  Pb115  1  0.75944389  -0.00030332  0.76520044  1
  Pb  Pb116  1  0.75415113  0.25307277  0.00034152  1
  Pb  Pb117  1  0.75569618  0.26091618  0.24966905  1
  Pb  Pb118  1  0.75208469  0.25685872  0.49988441  1
  Pb  Pb119  1  0.75331735  0.24033004  0.74927341  1
  Pb  Pb120  1  0.73763123  0.49441523  0.01120329  1
  Pb  Pb121  1  0.75031576  0.49439330  0.24967411  1
  Pb  Pb122  1  0.75331004  0.49141032  0.49573153  1
  Pb  Pb123  1  0.74836171  0.49694764  0.74564744  1
  Pb  Pb124  1  0.74457371  0.75964385  0.00749214  1
  Pb  Pb125  1  0.75543156  0.75447301  0.24318847  1
  Pb  Pb126  1  0.75464676  0.75582048  0.49046246  1
  Pb  Pb127  1  0.74982841  0.76155001  0.76073557  1
  O  O128  1  0.13077159  0.00244731  0.15647348  1
  O  O129  1  0.12460721  0.00201571  0.41244879  1
  O  O130  1  0.12590651  -0.00258374  0.67236966  1
  O  O131  1  0.13299198  0.00910554  0.91438447  1
  O  O132  1  0.13181698  0.26014725  0.16517207  1
  O  O133  1  0.12166896  0.24674034  0.41472018  1
  O  O134  1  0.12579504  0.24531841  0.66169001  1
  O  O135  1  0.13129116  0.24808457  0.91034035  1
  O  O136  1  0.13043824  0.49185184  0.17007118  1
  O  O137  1  0.12576517  0.49962592  0.41529924  1
  O  O138  1  0.12283362  0.50398007  0.65881342  1
  O  O139  1  0.12813783  0.50335687  0.91314186  1
  O  O140  1  0.12941189  0.74607270  0.16115300  1
  O  O141  1  0.12738898  0.74909390  0.41204328  1
  O  O142  1  0.12262425  0.75286253  0.67076065  1
  O  O143  1  0.13090878  0.73950403  0.91469421  1
  O  O144  1  0.37476872  0.00774210  0.15708534  1
  O  O145  1  0.37134804  -0.00576587  0.41505662  1
  O  O146  1  0.38147554  -0.00386779  0.67150984  1
  O  O147  1  0.37739536  0.00732664  0.91125470  1
  O  O148  1  0.37303931  0.25444895  0.16811348  1
  O  O149  1  0.37220960  0.24363946  0.41936444  1
  O  O150  1  0.38061967  0.23744952  0.65523258  1
  O  O151  1  0.37573999  0.25297819  0.91324655  1
  O  O152  1  0.37429643  0.49581090  0.16965150  1
  O  O153  1  0.37246932  0.50484741  0.41608768  1
  O  O154  1  0.38012362  0.50260373  0.65404781  1
  O  O155  1  0.37646033  0.49929945  0.91385682  1
  O  O156  1  0.37469880  0.74209534  0.15761127  1
  O  O157  1  0.37236722  0.75850805  0.41684178  1
  O  O158  1  0.38047123  0.75984046  0.66438309  1
  O  O159  1  0.37597171  0.74669856  0.91272665  1
  O  O160  1  0.61732681  0.01216178  0.15803191  1
  O  O161  1  0.62665097  0.00502034  0.41355731  1
  O  O162  1  0.62330339  -0.00105013  0.67052447  1
  O  O163  1  0.61957195  0.00185524  0.91338868  1
  O  O164  1  0.61861680  0.24364207  0.16774672  1
  O  O165  1  0.62786396  0.23776429  0.40930832  1
  O  O166  1  0.62351008  0.24000090  0.65973488  1
  O  O167  1  0.62355771  0.25837756  0.91525078  1
  O  O168  1  0.62162170  0.50085862  0.17214745  1
  O  O169  1  0.62188705  0.51034590  0.40839336  1
  O  O170  1  0.62697427  0.50967403  0.65749327  1
  O  O171  1  0.62410147  0.50007633  0.92009972  1
  O  O172  1  0.62122381  0.74638143  0.16115483  1
  O  O173  1  0.62162451  0.74747598  0.41026074  1
  O  O174  1  0.62609712  0.75041070  0.66829040  1
  O  O175  1  0.62308935  0.73884556  0.91567777  1
  O  O176  1  0.87469206  0.00404429  0.15069356  1
  O  O177  1  0.87761641  0.00428193  0.41223925  1
  O  O178  1  0.86955903  -0.00933994  0.66874216  1
  O  O179  1  0.87553299  0.00104519  0.91550921  1
  O  O180  1  0.87593938  0.25003946  0.16491506  1
  O  O181  1  0.87869017  0.23995831  0.41304655  1
  O  O182  1  0.86954549  0.24685085  0.66088083  1
  O  O183  1  0.87575528  0.26146055  0.90921426  1
  O  O184  1  0.87837173  0.50190701  0.16341799  1
  O  O185  1  0.87802486  0.50331527  0.41405281  1
  O  O186  1  0.86811228  0.51108206  0.66033506  1
  O  O187  1  0.87782118  0.50322276  0.91977782  1
  O  O188  1  0.87631925  0.74326465  0.15581678  1
  O  O189  1  0.87749785  0.75071475  0.41401235  1
  O  O190  1  0.86957152  0.75215297  0.67011774  1
  O  O191  1  0.87614259  0.73408372  0.91704908  1
  O  O192  1  0.00324953  0.13039574  0.15693567  1
  O  O193  1  0.00111595  0.12227252  0.41493554  1
  O  O194  1  -0.00267893  0.11862034  0.66767916  1
  O  O195  1  0.00820091  0.12799462  0.90554397  1
  O  O196  1  0.00867457  0.37529666  0.16068578  1
  O  O197  1  0.00579602  0.37383142  0.41788119  1
  O  O198  1  -0.00564085  0.37650551  0.65976642  1
  O  O199  1  -0.00333895  0.38045700  0.90963836  1
  O  O200  1  -0.00249802  0.62164687  0.16137984  1
  O  O201  1  0.00879672  0.62610293  0.41394921  1
  O  O202  1  -0.01156281  0.63081819  0.66257249  1
  O  O203  1  0.00471672  0.62115720  0.91074305  1
  O  O204  1  0.00180691  0.87401621  0.15155852  1
  O  O205  1  0.00571163  0.87478169  0.40944647  1
  O  O206  1  -0.00955355  0.87352910  0.66585313  1
  O  O207  1  0.00281161  0.87050092  0.91590538  1
  O  O208  1  0.25737130  0.13079009  0.16366819  1
  O  O209  1  0.24098336  0.12383724  0.41393085  1
  O  O210  1  0.26022561  0.11664419  0.65934826  1
  O  O211  1  0.25783210  0.12929489  0.91619555  1
  O  O212  1  0.25325332  0.37643386  0.16974858  1
  O  O213  1  0.24040206  0.37301415  0.41867886  1
  O  O214  1  0.25385720  0.37326883  0.65678440  1
  O  O215  1  0.25484109  0.37693327  0.91021183  1
  O  O216  1  0.25908401  0.61843531  0.16933719  1
  O  O217  1  0.24575204  0.62632163  0.41803099  1
  O  O218  1  0.25204735  0.63082464  0.65905770  1
  O  O219  1  0.25204746  0.62148171  0.91321509  1
  O  O220  1  0.25344449  0.87460696  0.16151096  1
  O  O221  1  0.25003290  0.87580666  0.41496727  1
  O  O222  1  0.25957927  0.87676291  0.66389487  1
  O  O223  1  0.25971241  0.87648928  0.91643810  1
  O  O224  1  0.49377034  0.13101458  0.16611703  1
  O  O225  1  0.50556897  0.12041940  0.40783431  1
  O  O226  1  0.50075291  0.11835973  0.66795023  1
  O  O227  1  0.49242978  0.13230407  0.91510362  1
  O  O228  1  0.49122603  0.37362306  0.16924003  1
  O  O229  1  0.50183846  0.37322491  0.41282383  1
  O  O230  1  0.50298909  0.37317121  0.65982175  1
  O  O231  1  0.49934765  0.37787325  0.91420875  1
  O  O232  1  0.48988086  0.61904128  0.16575073  1
  O  O233  1  0.50180638  0.62974205  0.41565678  1
  O  O234  1  0.50939475  0.63081976  0.66077864  1
  O  O235  1  0.49991912  0.62046643  0.91528863  1
  O  O236  1  0.49635397  0.87700311  0.16512103  1
  O  O237  1  0.49287746  0.87706413  0.41031629  1
  O  O238  1  0.50119395  0.87559376  0.66946505  1
  O  O239  1  0.49312121  0.87282300  0.91690257  1
  O  O240  1  0.74309786  0.12935540  0.14981773  1
  O  O241  1  0.75273982  0.12102000  0.40909161  1
  O  O242  1  0.74247001  0.11834264  0.66363752  1
  O  O243  1  0.74603173  0.13040945  0.91673672  1
  O  O244  1  0.75026886  0.37504122  0.16369619  1
  O  O245  1  0.75001198  0.37270853  0.41172634  1
  O  O246  1  0.74727969  0.37642151  0.66634401  1
  O  O247  1  0.75274084  0.38143113  0.91377009  1
  O  O248  1  0.75728259  0.62134643  0.15894620  1
  O  O249  1  0.74309561  0.62974746  0.40492032  1
  O  O250  1  0.74689551  0.63128923  0.66828599  1
  O  O251  1  0.74994663  0.61790505  0.91253430  1
  O  O252  1  0.74916582  0.87527623  0.15466800  1
  O  O253  1  0.75034528  0.87694476  0.41139255  1
  O  O254  1  0.75010292  0.87291006  0.66998786  1
  O  O255  1  0.74667398  0.86878136  0.91739205  1
  O  O256  1  0.13679642  0.13171954  0.03055004  1
  O  O257  1  0.12301537  0.12495433  0.30080661  1
  O  O258  1  0.11707109  0.11605252  0.53520863  1
  O  O259  1  0.13430854  0.12478692  0.80006191  1
  O  O260  1  0.12934843  0.37887078  0.04891057  1
  O  O261  1  0.12348826  0.37565556  0.30510863  1
  O  O262  1  0.12489731  0.37480721  0.53297212  1
  O  O263  1  0.12812279  0.37641900  0.78103043  1
  O  O264  1  0.13520073  0.61918074  0.03729545  1
  O  O265  1  0.12742771  0.62430885  0.30228564  1
  O  O266  1  0.12434100  0.63560464  0.53312564  1
  O  O267  1  0.12391986  0.62432687  0.79867033  1
  O  O268  1  0.13356512  0.86936014  0.02502960  1
  O  O269  1  0.12843760  0.87549333  0.29534706  1
  O  O270  1  0.12782876  0.87515925  0.53879604  1
  O  O271  1  0.13048868  0.87173194  0.79469998  1
  O  O272  1  0.37795083  0.13283702  0.05037058  1
  O  O273  1  0.37007229  0.12917267  0.28601566  1
  O  O274  1  0.38055595  0.11166362  0.54776811  1
  O  O275  1  0.37461568  0.12611974  0.79814573  1
  O  O276  1  0.37278688  0.37627719  0.05461133  1
  O  O277  1  0.36642138  0.36995270  0.29550037  1
  O  O278  1  0.37581006  0.37243858  0.52592700  1
  O  O279  1  0.37834413  0.37614076  0.79390265  1
  O  O280  1  0.37318081  0.61825016  0.04889429  1
  O  O281  1  0.37486717  0.63154089  0.30530120  1
  O  O282  1  0.37973265  0.63659729  0.52994813  1
  O  O283  1  0.37643983  0.62221796  0.79601162  1
  O  O284  1  0.38397112  0.87269471  0.03013884  1
  O  O285  1  0.37124120  0.87588763  0.29812676  1
  O  O286  1  0.37961016  0.88162152  0.55119401  1
  O  O287  1  0.37629110  0.87093365  0.80416102  1
  O  O288  1  0.61631462  0.13622608  0.04505794  1
  O  O289  1  0.62704243  0.11993811  0.29373282  1
  O  O290  1  0.62098486  0.11487175  0.55193473  1
  O  O291  1  0.61921428  0.12927788  0.78583572  1
  O  O292  1  0.61988084  0.38261523  0.04351344  1
  O  O293  1  0.62391485  0.37496343  0.28426225  1
  O  O294  1  0.63148756  0.37145588  0.52978939  1
  O  O295  1  0.62503944  0.37878206  0.79740327  1
  O  O296  1  0.62325665  0.61195330  0.03531545  1
  O  O297  1  0.62110107  0.62891378  0.29349299  1
  O  O298  1  0.63111374  0.63224500  0.54746561  1
  O  O299  1  0.61999394  0.61968743  0.80465628  1
  O  O300  1  0.61487684  0.86872788  0.03323346  1
  O  O301  1  0.62267334  0.87876442  0.28055813  1
  O  O302  1  0.62531665  0.87683567  0.55227035  1
  O  O303  1  0.62061115  0.86756796  0.79104762  1
  O  O304  1  0.88087933  0.13984316  0.02313973  1
  O  O305  1  0.87702608  0.12381072  0.29818552  1
  O  O306  1  0.87750108  0.11496933  0.53575290  1
  O  O307  1  0.86662014  0.12226676  0.79069455  1
  O  O308  1  0.88354296  0.37230327  0.03439568  1
  O  O309  1  0.87905335  0.37202560  0.28872303  1
  O  O310  1  0.86711586  0.37707749  0.52989262  1
  O  O311  1  0.87146655  0.38565679  0.80000583  1
  O  O312  1  0.87854826  0.61804373  0.04612192  1
  O  O313  1  0.88407297  0.62677188  0.28267997  1
  O  O314  1  0.87104163  0.63269640  0.54945675  1
  O  O315  1  0.86976057  0.61985934  0.80097872  1
  O  O316  1  0.87529846  0.86781621  0.02481404  1
  O  O317  1  0.87011609  0.87629439  0.27927118  1
  O  O318  1  0.87024692  0.87208991  0.55307478  1
  O  O319  1  0.87027268  0.87012153  0.79534469  1
