# generated using pymatgen
data_VFe(PbO3)2
_symmetry_space_group_name_H-M   'P 1'
_cell_length_a   15.37713702
_cell_length_b   15.38103574
_cell_length_c   18.55309304
_cell_angle_alpha   90.00115576
_cell_angle_beta   89.98918613
_cell_angle_gamma   90.00254606
_symmetry_Int_Tables_number   1
_chemical_formula_structural   VFe(PbO3)2
_chemical_formula_sum   'V32 Fe32 Pb64 O192'
_cell_volume   4388.10872689
_cell_formula_units_Z   32
loop_
 _symmetry_equiv_pos_site_id
 _symmetry_equiv_pos_as_xyz
  1  'x, y, z'
loop_
 _atom_site_type_symbol
 _atom_site_label
 _atom_site_symmetry_multiplicity
 _atom_site_fract_x
 _atom_site_fract_y
 _atom_site_fract_z
 _atom_site_occupancy
  V  V0  1  0.62448117  0.37480530  0.14025340  1
  V  V1  1  0.87398653  0.12285422  0.63977681  1
  V  V2  1  0.12691305  0.37367476  0.13922841  1
  V  V3  1  0.87150888  0.86690927  0.63931865  1
  V  V4  1  0.87494439  0.62827945  0.38518122  1
  V  V5  1  0.37273266  0.87344899  0.13183105  1
  V  V6  1  0.87413302  0.62688175  0.89190847  1
  V  V7  1  0.37273676  0.87293023  0.39621891  1
  V  V8  1  0.62762868  0.12643790  0.63865020  1
  V  V9  1  0.37421807  0.62685936  0.64383600  1
  V  V10  1  0.37442453  0.37111237  0.13970039  1
  V  V11  1  0.62609323  0.37678416  0.89170496  1
  V  V12  1  0.62524423  0.62454392  0.64272072  1
  V  V13  1  0.12182637  0.37886068  0.63972354  1
  V  V14  1  0.87485978  0.12693377  0.89101136  1
  V  V15  1  0.62367961  0.37635429  0.63679444  1
  V  V16  1  0.87712509  0.12020719  0.38794267  1
  V  V17  1  0.37434674  0.12245598  0.13733548  1
  V  V18  1  0.87860508  0.37335442  0.39057820  1
  V  V19  1  0.12489679  0.87630138  0.39509690  1
  V  V20  1  0.87359631  0.87936713  0.89109212  1
  V  V21  1  0.37292914  0.37193858  0.88842687  1
  V  V22  1  0.12560631  0.12286557  0.39411189  1
  V  V23  1  0.62233843  0.62641079  0.38471033  1
  V  V24  1  0.37380572  0.12305780  0.39373920  1
  V  V25  1  0.12330550  0.62183787  0.88596427  1
  V  V26  1  0.12567941  0.62549292  0.39231442  1
  V  V27  1  0.87696185  0.87497000  0.13511549  1
  V  V28  1  0.12701257  0.62677204  0.13694332  1
  V  V29  1  0.87350658  0.61932960  0.63823995  1
  V  V30  1  0.37523080  0.37804608  0.63816889  1
  V  V31  1  0.62554663  0.12679172  0.89098052  1
  Fe  Fe32  1  0.87591804  0.62310297  0.13533873  1
  Fe  Fe33  1  0.62656901  0.62249436  0.89069715  1
  Fe  Fe34  1  0.87928541  0.87402342  0.38488812  1
  Fe  Fe35  1  0.62362366  0.62508108  0.13051431  1
  Fe  Fe36  1  0.37758341  0.12814989  0.64363577  1
  Fe  Fe37  1  0.12149824  0.87367405  0.88650561  1
  Fe  Fe38  1  0.62419377  0.12393820  0.14028247  1
  Fe  Fe39  1  0.87606192  0.12633386  0.13352577  1
  Fe  Fe40  1  0.37881292  0.87484043  0.64565272  1
  Fe  Fe41  1  0.37595768  0.87613972  0.87651439  1
  Fe  Fe42  1  0.37768325  0.12801259  0.87591424  1
  Fe  Fe43  1  0.37480913  0.62284879  0.88341733  1
  Fe  Fe44  1  0.87126468  0.37382621  0.63236205  1
  Fe  Fe45  1  0.62524562  0.12375755  0.38172661  1
  Fe  Fe46  1  0.12678541  0.37209619  0.38729978  1
  Fe  Fe47  1  0.12298634  0.87297680  0.64221194  1
  Fe  Fe48  1  0.12275440  0.12712788  0.64441289  1
  Fe  Fe49  1  0.12150762  0.37672536  0.88327151  1
  Fe  Fe50  1  0.87559866  0.37570302  0.13187387  1
  Fe  Fe51  1  0.62370336  0.37393299  0.38256317  1
  Fe  Fe52  1  0.37341381  0.62146080  0.13591664  1
  Fe  Fe53  1  0.62881915  0.87447462  0.63777471  1
  Fe  Fe54  1  0.62819980  0.87609445  0.89341235  1
  Fe  Fe55  1  0.12761134  0.87439114  0.12728364  1
  Fe  Fe56  1  0.12222074  0.62380925  0.63730793  1
  Fe  Fe57  1  0.12369599  0.12851326  0.87638124  1
  Fe  Fe58  1  0.62416279  0.87642951  0.38728929  1
  Fe  Fe59  1  0.37382701  0.63029280  0.38322339  1
  Fe  Fe60  1  0.12739086  0.12440285  0.13265458  1
  Fe  Fe61  1  0.37139375  0.37600291  0.38650915  1
  Fe  Fe62  1  0.87304416  0.37514026  0.89209931  1
  Fe  Fe63  1  0.62145860  0.87505611  0.12761131  1
  Pb  Pb64  1  0.01306234  0.00421588  -0.00056722  1
  Pb  Pb65  1  0.00056724  -0.00315394  0.24308026  1
  Pb  Pb66  1  0.01322743  -0.00101382  0.50885316  1
  Pb  Pb67  1  0.00783509  0.00165860  0.75202110  1
  Pb  Pb68  1  -0.00037957  0.24961000  -0.00264616  1
  Pb  Pb69  1  -0.00124741  0.24650157  0.24440184  1
  Pb  Pb70  1  0.00449325  0.24406067  0.50369317  1
  Pb  Pb71  1  0.00187864  0.25653987  0.75343542  1
  Pb  Pb72  1  -0.00756626  0.49690704  0.00173223  1
  Pb  Pb73  1  0.00538132  0.49597006  0.24767379  1
  Pb  Pb74  1  -0.00220861  0.49970969  0.49864742  1
  Pb  Pb75  1  -0.00508262  0.48650665  0.75506037  1
  Pb  Pb76  1  -0.00176369  0.74937038  0.00079586  1
  Pb  Pb77  1  -0.00598462  0.75759233  0.24882105  1
  Pb  Pb78  1  0.00781043  0.74879059  0.50593131  1
  Pb  Pb79  1  0.00563826  0.75266409  0.75325244  1
  Pb  Pb80  1  0.24728420  0.00225369  -0.01802852  1
  Pb  Pb81  1  0.24829479  -0.00047592  0.24365357  1
  Pb  Pb82  1  0.25907827  0.00120156  0.51576527  1
  Pb  Pb83  1  0.25188149  -0.00049104  0.74475073  1
  Pb  Pb84  1  0.24129245  0.24102698  -0.00780509  1
  Pb  Pb85  1  0.25080020  0.25714848  0.25433177  1
  Pb  Pb86  1  0.24957451  0.23976210  0.50656703  1
  Pb  Pb87  1  0.24702632  0.24401877  0.75026239  1
  Pb  Pb88  1  0.25507678  0.50598667  -0.00022475  1
  Pb  Pb89  1  0.25253463  0.49188661  0.25484250  1
  Pb  Pb90  1  0.25101754  0.50008543  0.49678066  1
  Pb  Pb91  1  0.25492773  0.50198929  0.75131978  1
  Pb  Pb92  1  0.25426601  0.75450562  -0.01047219  1
  Pb  Pb93  1  0.25359370  0.74374935  0.24852130  1
  Pb  Pb94  1  0.24156969  0.75331403  0.50989914  1
  Pb  Pb95  1  0.24677366  0.76030511  0.75302821  1
  Pb  Pb96  1  0.50052802  -0.00537296  -0.00694061  1
  Pb  Pb97  1  0.51109500  -0.00459852  0.25167209  1
  Pb  Pb98  1  0.49362844  -0.00047028  0.50740766  1
  Pb  Pb99  1  0.49506620  -0.00543939  0.75090736  1
  Pb  Pb100  1  0.50637289  0.24705633  0.00199555  1
  Pb  Pb101  1  0.50467375  0.25225456  0.25408355  1
  Pb  Pb102  1  0.50151437  0.24894948  0.49488572  1
  Pb  Pb103  1  0.49956122  0.25121652  0.75013320  1
  Pb  Pb104  1  0.49854876  0.51110165  0.00263118  1
  Pb  Pb105  1  0.49572429  0.49603480  0.24829337  1
  Pb  Pb106  1  0.49784550  0.50083789  0.49183470  1
  Pb  Pb107  1  0.50140513  0.51099683  0.75546086  1
  Pb  Pb108  1  0.50121698  0.74822747  -0.00969188  1
  Pb  Pb109  1  0.50012439  0.74577131  0.24170329  1
  Pb  Pb110  1  0.49867115  0.76457357  0.50844862  1
  Pb  Pb111  1  0.50224942  0.75845723  0.75672345  1
  Pb  Pb112  1  0.74855783  0.00885539  0.00766174  1
  Pb  Pb113  1  0.74403942  -0.00327476  0.24663525  1
  Pb  Pb114  1  0.74297688  -0.00584357  0.49479411  1
  Pb  Pb115  1  0.74440923  -0.00258339  0.75381242  1
  Pb  Pb116  1  0.75243516  0.24218292  0.00788262  1
  Pb  Pb117  1  0.74639876  0.24685604  0.24695356  1
  Pb  Pb118  1  0.75461335  0.25377296  0.49460049  1
  Pb  Pb119  1  0.75628774  0.25961567  0.74972736  1
  Pb  Pb120  1  0.75721139  0.50223551  0.00515515  1
  Pb  Pb121  1  0.75081750  0.50240776  0.24420696  1
  Pb  Pb122  1  0.75417475  0.49790994  0.49529979  1
  Pb  Pb123  1  0.74732382  0.50320033  0.75275643  1
  Pb  Pb124  1  0.74048093  0.74749936  0.00351437  1
  Pb  Pb125  1  0.74573378  0.75629981  0.24247862  1
  Pb  Pb126  1  0.74577663  0.75403068  0.49538108  1
  Pb  Pb127  1  0.73496512  0.74950657  0.76140020  1
  O  O128  1  0.12804291  -0.00189065  0.16179676  1
  O  O129  1  0.12600427  0.00000380  0.42312261  1
  O  O130  1  0.11952241  -0.00073965  0.66456852  1
  O  O131  1  0.11941731  0.00258824  0.90444225  1
  O  O132  1  0.12807415  0.25586790  0.16127419  1
  O  O133  1  0.12532377  0.24389785  0.41816345  1
  O  O134  1  0.12421604  0.26243080  0.66273021  1
  O  O135  1  0.12154145  0.25156227  0.91180024  1
  O  O136  1  0.12935598  0.49765321  0.16402200  1
  O  O137  1  0.12510970  0.50742976  0.41181802  1
  O  O138  1  0.12428044  0.49608155  0.66469298  1
  O  O139  1  0.12231302  0.50590269  0.91262419  1
  O  O140  1  0.12765252  0.74409987  0.15692150  1
  O  O141  1  0.12419435  0.74975439  0.41961230  1
  O  O142  1  0.12018663  0.74580375  0.67004020  1
  O  O143  1  0.12126133  0.73925710  0.91155711  1
  O  O144  1  0.37024935  0.00123236  0.15825070  1
  O  O145  1  0.37164249  -0.00172191  0.42251956  1
  O  O146  1  0.37937762  0.00259230  0.66612115  1
  O  O147  1  0.37770141  0.00380526  0.90294226  1
  O  O148  1  0.37344615  0.24788236  0.16517628  1
  O  O149  1  0.37119796  0.24098679  0.41320237  1
  O  O150  1  0.37950929  0.26246974  0.66175737  1
  O  O151  1  0.38126152  0.25640515  0.91396214  1
  O  O152  1  0.37271908  0.49181744  0.16317543  1
  O  O153  1  0.37257668  0.50547424  0.41368362  1
  O  O154  1  0.37738105  0.49701659  0.66712413  1
  O  O155  1  0.37823289  0.48826544  0.91578161  1
  O  O156  1  0.37172893  0.75591044  0.15561870  1
  O  O157  1  0.37303216  0.75620823  0.41804165  1
  O  O158  1  0.37930522  0.74056132  0.66435876  1
  O  O159  1  0.37425321  0.74865927  0.90566849  1
  O  O160  1  0.62259222  -0.00342286  0.16331965  1
  O  O161  1  0.62458387  0.00212763  0.41597836  1
  O  O162  1  0.62946435  0.00885141  0.66110165  1
  O  O163  1  0.62962830  0.00946215  0.91207039  1
  O  O164  1  0.62105152  0.25429098  0.16493852  1
  O  O165  1  0.62395319  0.24750515  0.41401545  1
  O  O166  1  0.62726950  0.25226709  0.66361504  1
  O  O167  1  0.62819756  0.24826268  0.91794513  1
  O  O168  1  0.62092941  0.49302089  0.16159047  1
  O  O169  1  0.62612689  0.50711053  0.41005648  1
  O  O170  1  0.62785899  0.50039032  0.66783367  1
  O  O171  1  0.62726063  0.49165602  0.91301344  1
  O  O172  1  0.62341198  0.75246235  0.15868908  1
  O  O173  1  0.62630382  0.74343199  0.41249019  1
  O  O174  1  0.62960830  0.74460649  0.66741355  1
  O  O175  1  0.62947422  0.74853597  0.91355167  1
  O  O176  1  0.87906139  -0.00786363  0.15902185  1
  O  O177  1  0.87830852  0.00594177  0.41169271  1
  O  O178  1  0.86927395  0.00708680  0.66550723  1
  O  O179  1  0.87310040  -0.00002185  0.91260726  1
  O  O180  1  0.87690334  0.25362007  0.16495133  1
  O  O181  1  0.87878149  0.24625053  0.41430733  1
  O  O182  1  0.87013772  0.24594797  0.66237305  1
  O  O183  1  0.87101373  0.24330363  0.91214013  1
  O  O184  1  0.87747617  0.49760993  0.16836175  1
  O  O185  1  0.87663725  0.50308005  0.41458806  1
  O  O186  1  0.87209645  0.50330630  0.66108633  1
  O  O187  1  0.87475372  0.50660533  0.91387496  1
  O  O188  1  0.87899125  0.75323201  0.16165213  1
  O  O189  1  0.87754645  0.74483548  0.41344008  1
  O  O190  1  0.87054614  0.75210750  0.65641599  1
  O  O191  1  0.87637314  0.74845252  0.91392158  1
  O  O192  1  0.00208005  0.12542230  0.16433070  1
  O  O193  1  -0.00156500  0.12442224  0.41894528  1
  O  O194  1  -0.01095572  0.12788720  0.66316792  1
  O  O195  1  -0.00821497  0.12565271  0.90841214  1
  O  O196  1  0.00877065  0.37710887  0.16029497  1
  O  O197  1  -0.00012164  0.37625379  0.41664650  1
  O  O198  1  0.00133890  0.37779066  0.65860798  1
  O  O199  1  -0.00173916  0.37605576  0.91679863  1
  O  O200  1  0.01080944  0.62096123  0.16311460  1
  O  O201  1  0.00277544  0.62591600  0.41387977  1
  O  O202  1  -0.01190475  0.62635269  0.66233841  1
  O  O203  1  -0.00113943  0.62415998  0.91343563  1
  O  O204  1  -0.00042583  0.87208745  0.16011161  1
  O  O205  1  0.00496605  0.87575131  0.41760784  1
  O  O206  1  -0.01469083  0.87774686  0.66725668  1
  O  O207  1  -0.00954158  0.87303646  0.91532487  1
  O  O208  1  0.25645932  0.12677271  0.16545518  1
  O  O209  1  0.25149316  0.12058981  0.42220151  1
  O  O210  1  0.24979354  0.13116515  0.66400606  1
  O  O211  1  0.25131533  0.13072495  0.90108684  1
  O  O212  1  0.24801432  0.37353187  0.16619922  1
  O  O213  1  0.24885043  0.37446083  0.42184318  1
  O  O214  1  0.25459757  0.37906520  0.65987715  1
  O  O215  1  0.25595964  0.37362692  0.90649714  1
  O  O216  1  0.24396323  0.62284673  0.16579450  1
  O  O217  1  0.24336711  0.63081059  0.41514803  1
  O  O218  1  0.25594360  0.61997928  0.66248894  1
  O  O219  1  0.24319398  0.62023067  0.90847066  1
  O  O220  1  0.25593346  0.87522477  0.16062854  1
  O  O221  1  0.25153117  0.87588692  0.42255660  1
  O  O222  1  0.25000822  0.87200735  0.66396887  1
  O  O223  1  0.24870136  0.87339194  0.90415176  1
  O  O224  1  0.48913581  0.12489551  0.16343321  1
  O  O225  1  0.49148261  0.12132996  0.41272538  1
  O  O226  1  0.51205851  0.13079823  0.66292963  1
  O  O227  1  0.50783159  0.12937083  0.90998065  1
  O  O228  1  0.49925632  0.37263483  0.16446524  1
  O  O229  1  0.49781162  0.37506572  0.41539875  1
  O  O230  1  0.50008136  0.37951762  0.66466006  1
  O  O231  1  0.50648981  0.37090330  0.91641268  1
  O  O232  1  0.49839157  0.62321404  0.16237533  1
  O  O233  1  0.50588470  0.62639793  0.40756798  1
  O  O234  1  0.49972757  0.62003349  0.66656525  1
  O  O235  1  0.49981517  0.61911861  0.91148096  1
  O  O236  1  0.48835228  0.87744165  0.15721562  1
  O  O237  1  0.49285876  0.87614508  0.41686049  1
  O  O238  1  0.50729906  0.87254426  0.66818852  1
  O  O239  1  0.50070646  0.87715252  0.90950419  1
  O  O240  1  0.75176529  0.12402784  0.16599885  1
  O  O241  1  0.75952462  0.12626739  0.40777707  1
  O  O242  1  0.74735994  0.12959816  0.66743600  1
  O  O243  1  0.75026563  0.12528240  0.91781526  1
  O  O244  1  0.74285219  0.37434211  0.15888951  1
  O  O245  1  0.75366406  0.37538839  0.41232441  1
  O  O246  1  0.74513069  0.37705125  0.66449129  1
  O  O247  1  0.74280336  0.37177599  0.91687037  1
  O  O248  1  0.74905679  0.62301785  0.16329529  1
  O  O249  1  0.74886089  0.62478317  0.40936861  1
  O  O250  1  0.75527358  0.62401335  0.66754705  1
  O  O251  1  0.75757166  0.62490695  0.91444461  1
  O  O252  1  0.75687546  0.87401852  0.15474520  1
  O  O253  1  0.75272768  0.87396714  0.41415536  1
  O  O254  1  0.75652525  0.87878807  0.66846509  1
  O  O255  1  0.76015174  0.87485821  0.91918448  1
  O  O256  1  0.12648686  0.12622218  0.03292987  1
  O  O257  1  0.12725987  0.12105805  0.30338610  1
  O  O258  1  0.11797473  0.12923422  0.54265129  1
  O  O259  1  0.11695436  0.13500787  0.77493530  1
  O  O260  1  0.13026312  0.37572654  0.04856130  1
  O  O261  1  0.13251634  0.37554766  0.28791787  1
  O  O262  1  0.12475367  0.37917571  0.54875686  1
  O  O263  1  0.11294803  0.37704955  0.78349864  1
  O  O264  1  0.12949816  0.62143504  0.04620174  1
  O  O265  1  0.12546095  0.63090164  0.30155602  1
  O  O266  1  0.12131756  0.63203566  0.53804502  1
  O  O267  1  0.11987391  0.62240315  0.79497110  1
  O  O268  1  0.12281125  0.87566396  0.02765852  1
  O  O269  1  0.12883045  0.87478262  0.30423317  1
  O  O270  1  0.11818879  0.86695811  0.54099955  1
  O  O271  1  0.11391696  0.86607071  0.78512877  1
  O  O272  1  0.37396753  0.12538414  0.04673098  1
  O  O273  1  0.36858271  0.11692016  0.30360541  1
  O  O274  1  0.37391910  0.12206543  0.54199658  1
  O  O275  1  0.38336551  0.13818435  0.77570270  1
  O  O276  1  0.37218198  0.36935792  0.04910439  1
  O  O277  1  0.36657745  0.37319242  0.28613026  1
  O  O278  1  0.37793844  0.38119105  0.54746238  1
  O  O279  1  0.37920088  0.37334391  0.79740683  1
  O  O280  1  0.36961118  0.61398009  0.03549148  1
  O  O281  1  0.36939438  0.63567432  0.28377549  1
  O  O282  1  0.37755483  0.62431330  0.55297326  1
  O  O283  1  0.37395049  0.61128185  0.78365522  1
  O  O284  1  0.37128144  0.87635596  0.04101050  1
  O  O285  1  0.37096428  0.87670049  0.30584399  1
  O  O286  1  0.38518003  0.87650672  0.54340256  1
  O  O287  1  0.38078216  0.87226524  0.77459635  1
  O  O288  1  0.62903266  0.12816037  0.03961592  1
  O  O289  1  0.62088239  0.12202473  0.28119635  1
  O  O290  1  0.62940167  0.12809650  0.54789969  1
  O  O291  1  0.63015964  0.13085784  0.80005055  1
  O  O292  1  0.61981367  0.37189977  0.04937412  1
  O  O293  1  0.61887116  0.37151199  0.28364623  1
  O  O294  1  0.62352196  0.37729703  0.54600651  1
  O  O295  1  0.62562272  0.37341130  0.80048540  1
  O  O296  1  0.62578661  0.62246159  0.02977570  1
  O  O297  1  0.62422478  0.62751912  0.29371655  1
  O  O298  1  0.62548095  0.62413047  0.55211432  1
  O  O299  1  0.63326601  0.62134431  0.78901555  1
  O  O300  1  0.62278547  0.87812501  0.02717406  1
  O  O301  1  0.62188755  0.87983762  0.28735845  1
  O  O302  1  0.62856818  0.86860381  0.53745422  1
  O  O303  1  0.63666075  0.87400783  0.79150387  1
  O  O304  1  0.86975712  0.12637960  0.03344706  1
  O  O305  1  0.88378421  0.12334082  0.29730881  1
  O  O306  1  0.87180237  0.12167538  0.54897253  1
  O  O307  1  0.86973306  0.12497158  0.80013990  1
  O  O308  1  0.87463767  0.38153851  0.03151739  1
  O  O309  1  0.87868107  0.37405556  0.29965128  1
  O  O310  1  0.86913089  0.37785762  0.53321449  1
  O  O311  1  0.87671937  0.37560585  0.79064947  1
  O  O312  1  0.87852126  0.61916754  0.03599873  1
  O  O313  1  0.87726598  0.62708733  0.29397965  1
  O  O314  1  0.87079467  0.62045529  0.54720936  1
  O  O315  1  0.87443268  0.62608632  0.80087833  1
  O  O316  1  0.88050859  0.87280008  0.04455332  1
  O  O317  1  0.88311543  0.87113481  0.28571380  1
  O  O318  1  0.87229744  0.87569270  0.54866783  1
  O  O319  1  0.87129317  0.87779199  0.80015869  1
