# generated using pymatgen
data_VFe(PbO3)2
_symmetry_space_group_name_H-M   'P 1'
_cell_length_a   15.38296081
_cell_length_b   15.37341073
_cell_length_c   18.54558279
_cell_angle_alpha   89.99256246
_cell_angle_beta   90.02015800
_cell_angle_gamma   89.99292621
_symmetry_Int_Tables_number   1
_chemical_formula_structural   VFe(PbO3)2
_chemical_formula_sum   'V32 Fe32 Pb64 O192'
_cell_volume   4385.81810052
_cell_formula_units_Z   32
loop_
 _symmetry_equiv_pos_site_id
 _symmetry_equiv_pos_as_xyz
  1  'x, y, z'
loop_
 _atom_site_type_symbol
 _atom_site_label
 _atom_site_symmetry_multiplicity
 _atom_site_fract_x
 _atom_site_fract_y
 _atom_site_fract_z
 _atom_site_occupancy
  V  V0  1  0.62108072  0.12330308  0.88467414  1
  V  V1  1  0.62764521  0.87548478  0.13811379  1
  V  V2  1  0.62527002  0.62679005  0.38977245  1
  V  V3  1  0.87631579  0.87241395  0.65070103  1
  V  V4  1  0.37159715  0.87061255  0.63783712  1
  V  V5  1  0.37297273  0.62146386  0.63796935  1
  V  V6  1  0.87790606  0.12419173  0.38842362  1
  V  V7  1  0.37291822  0.37490357  0.63677408  1
  V  V8  1  0.87691616  0.62531850  0.64273728  1
  V  V9  1  0.87376436  0.12490138  0.64533831  1
  V  V10  1  0.62434631  0.37591801  0.88857791  1
  V  V11  1  0.87574796  0.87445616  0.39041057  1
  V  V12  1  0.62493302  0.37653669  0.14009572  1
  V  V13  1  0.12885237  0.12397107  0.88875985  1
  V  V14  1  0.12650943  0.87616569  0.38816197  1
  V  V15  1  0.87373343  0.62331622  0.88674229  1
  V  V16  1  0.62768648  0.62569969  0.13922756  1
  V  V17  1  0.37681727  0.62303768  0.89133032  1
  V  V18  1  0.37653531  0.37210771  0.88995718  1
  V  V19  1  0.37310054  0.12432989  0.38814422  1
  V  V20  1  0.37518695  0.37260214  0.13909035  1
  V  V21  1  0.62275363  0.87646556  0.64220683  1
  V  V22  1  0.12791732  0.87522542  0.13292376  1
  V  V23  1  0.12570519  0.37394342  0.64116779  1
  V  V24  1  0.87656334  0.87645022  0.13572618  1
  V  V25  1  0.87678132  0.37629527  0.64212754  1
  V  V26  1  0.87506292  0.37510250  0.13594032  1
  V  V27  1  0.37455442  0.37984527  0.38614952  1
  V  V28  1  0.12337792  0.12356099  0.64304403  1
  V  V29  1  0.37530960  0.87615474  0.88999425  1
  V  V30  1  0.87700949  0.62716788  0.38904588  1
  V  V31  1  0.62686047  0.12590215  0.14072158  1
  Fe  Fe32  1  0.62204503  0.62393217  0.88135426  1
  Fe  Fe33  1  0.37840658  0.12676653  0.13632108  1
  Fe  Fe34  1  0.12733212  0.62674389  0.89225858  1
  Fe  Fe35  1  0.87026816  0.62496737  0.13331390  1
  Fe  Fe36  1  0.12243202  0.62665077  0.13123801  1
  Fe  Fe37  1  0.12416149  0.87489624  0.64500929  1
  Fe  Fe38  1  0.62276978  0.87244179  0.88345485  1
  Fe  Fe39  1  0.12362509  0.12386599  0.13577516  1
  Fe  Fe40  1  0.87556588  0.37581701  0.88287428  1
  Fe  Fe41  1  0.12407859  0.37226753  0.38157085  1
  Fe  Fe42  1  0.37640739  0.87421159  0.38109715  1
  Fe  Fe43  1  0.37479283  0.62591916  0.37931861  1
  Fe  Fe44  1  0.62475182  0.12581131  0.63167035  1
  Fe  Fe45  1  0.37930470  0.87699440  0.14076899  1
  Fe  Fe46  1  0.62493982  0.37403750  0.63169920  1
  Fe  Fe47  1  0.62789615  0.87474373  0.38603909  1
  Fe  Fe48  1  0.12643866  0.87570850  0.88283936  1
  Fe  Fe49  1  0.12795206  0.37535354  0.89535367  1
  Fe  Fe50  1  0.87347477  0.87556243  0.87865915  1
  Fe  Fe51  1  0.62726238  0.12247032  0.39204257  1
  Fe  Fe52  1  0.87451024  0.37676767  0.38409351  1
  Fe  Fe53  1  0.12517018  0.37431923  0.12859345  1
  Fe  Fe54  1  0.37059712  0.12387436  0.63819743  1
  Fe  Fe55  1  0.12484855  0.62359555  0.63958252  1
  Fe  Fe56  1  0.12276273  0.62514883  0.38186827  1
  Fe  Fe57  1  0.62561247  0.62409393  0.64257052  1
  Fe  Fe58  1  0.12239390  0.12363630  0.38211981  1
  Fe  Fe59  1  0.37660629  0.12547784  0.88484234  1
  Fe  Fe60  1  0.37861976  0.62324732  0.14181421  1
  Fe  Fe61  1  0.87328211  0.12900018  0.88526879  1
  Fe  Fe62  1  0.87092979  0.12548319  0.13126534  1
  Fe  Fe63  1  0.62547590  0.37466339  0.39208247  1
  Pb  Pb64  1  -0.00357919  0.00521774  -0.00765410  1
  Pb  Pb65  1  -0.00095889  0.00778203  0.24462340  1
  Pb  Pb66  1  0.00547774  -0.00938401  0.50423838  1
  Pb  Pb67  1  -0.00709056  0.00025504  0.75729960  1
  Pb  Pb68  1  0.00185744  0.24928758  -0.00281506  1
  Pb  Pb69  1  0.00673547  0.25129878  0.24540564  1
  Pb  Pb70  1  0.00296063  0.25285813  0.49429925  1
  Pb  Pb71  1  -0.00568612  0.25313932  0.75866019  1
  Pb  Pb72  1  0.00543021  0.50016938  -0.00246692  1
  Pb  Pb73  1  0.00797736  0.50002647  0.24433977  1
  Pb  Pb74  1  0.00550327  0.50204654  0.49528307  1
  Pb  Pb75  1  0.00466279  0.49360818  0.75597948  1
  Pb  Pb76  1  0.00323382  0.74838547  -0.00695107  1
  Pb  Pb77  1  0.00179880  0.74333486  0.24428418  1
  Pb  Pb78  1  0.01315314  0.75256642  0.50787212  1
  Pb  Pb79  1  0.00898103  0.74917265  0.75607055  1
  Pb  Pb80  1  0.25240533  0.00823885  0.00313582  1
  Pb  Pb81  1  0.25545204  0.00244365  0.24394318  1
  Pb  Pb82  1  0.25460807  0.00190671  0.50050835  1
  Pb  Pb83  1  0.25104990  -0.00023590  0.75259606  1
  Pb  Pb84  1  0.24019210  0.24446382  0.00696593  1
  Pb  Pb85  1  0.23972555  0.24930427  0.24612853  1
  Pb  Pb86  1  0.25330664  0.24452619  0.49689999  1
  Pb  Pb87  1  0.24489066  0.25495942  0.75387903  1
  Pb  Pb88  1  0.24389127  0.50269661  0.00507138  1
  Pb  Pb89  1  0.24098850  0.50873162  0.24442217  1
  Pb  Pb90  1  0.24339552  0.50655538  0.49254508  1
  Pb  Pb91  1  0.23716276  0.49895995  0.75908276  1
  Pb  Pb92  1  0.25203779  0.74744751  0.00297500  1
  Pb  Pb93  1  0.25945379  0.74471967  0.24673238  1
  Pb  Pb94  1  0.24607848  0.74546190  0.49541736  1
  Pb  Pb95  1  0.23917598  0.74699376  0.75582818  1
  Pb  Pb96  1  0.48705045  -0.00360526  0.00634617  1
  Pb  Pb97  1  0.50465994  -0.00192869  0.25285323  1
  Pb  Pb98  1  0.50113943  0.00305547  0.49770470  1
  Pb  Pb99  1  0.49445239  0.00516160  0.74784849  1
  Pb  Pb100  1  0.49633289  0.24636661  0.00087293  1
  Pb  Pb101  1  0.51313096  0.24846600  0.25591533  1
  Pb  Pb102  1  0.50345266  0.24600581  0.49977714  1
  Pb  Pb103  1  0.49857526  0.24336304  0.74276661  1
  Pb  Pb104  1  0.49366531  0.50571987  0.00371927  1
  Pb  Pb105  1  0.50299136  0.49648730  0.25192573  1
  Pb  Pb106  1  0.51214070  0.50322006  0.50427144  1
  Pb  Pb107  1  0.50406494  0.50249690  0.74806383  1
  Pb  Pb108  1  0.49231814  0.75085415  0.00348139  1
  Pb  Pb109  1  0.49221891  0.75325331  0.25280554  1
  Pb  Pb110  1  0.49671465  0.75209974  0.49467116  1
  Pb  Pb111  1  0.50610318  0.75110261  0.75180645  1
  Pb  Pb112  1  0.75453173  0.00221526  -0.00760196  1
  Pb  Pb113  1  0.74001982  0.00207795  0.25439952  1
  Pb  Pb114  1  0.74769679  0.00151931  0.50135872  1
  Pb  Pb115  1  0.74779912  -0.00665265  0.75485579  1
  Pb  Pb116  1  0.75522125  0.24886040  -0.00211290  1
  Pb  Pb117  1  0.75205758  0.25755724  0.25447803  1
  Pb  Pb118  1  0.74450206  0.25237131  0.49845296  1
  Pb  Pb119  1  0.75556325  0.25116420  0.74935604  1
  Pb  Pb120  1  0.75533243  0.50679180  -0.00006592  1
  Pb  Pb121  1  0.75300179  0.49049047  0.25428000  1
  Pb  Pb122  1  0.74526958  0.49897896  0.50283433  1
  Pb  Pb123  1  0.74894071  0.49890290  0.74851935  1
  Pb  Pb124  1  0.74816194  0.74976646  -0.00852894  1
  Pb  Pb125  1  0.74556909  0.75650298  0.24905949  1
  Pb  Pb126  1  0.75016098  0.74562806  0.50279999  1
  Pb  Pb127  1  0.74477727  0.75391785  0.75500663  1
  O  O128  1  0.12072224  -0.00909768  0.16123208  1
  O  O129  1  0.12082361  -0.00576701  0.41391074  1
  O  O130  1  0.12319729  0.00701101  0.66674892  1
  O  O131  1  0.12883298  0.00499406  0.91112699  1
  O  O132  1  0.12350248  0.25188711  0.16063517  1
  O  O133  1  0.12416531  0.24722459  0.41449267  1
  O  O134  1  0.12583281  0.24896204  0.66858421  1
  O  O135  1  0.13069980  0.24348587  0.91384746  1
  O  O136  1  0.12301890  0.49820239  0.15655739  1
  O  O137  1  0.12413338  0.49869975  0.41236551  1
  O  O138  1  0.12620540  0.49665376  0.66815254  1
  O  O139  1  0.13051644  0.50225823  0.91767410  1
  O  O140  1  0.11952670  0.75967544  0.15890638  1
  O  O141  1  0.12072996  0.75621034  0.41277267  1
  O  O142  1  0.12461046  0.74758185  0.66938968  1
  O  O143  1  0.12816946  0.75242374  0.91552894  1
  O  O144  1  0.37947005  0.00245002  0.16780294  1
  O  O145  1  0.37151526  0.00327821  0.41170430  1
  O  O146  1  0.37492951  -0.00945084  0.66427922  1
  O  O147  1  0.37732712  -0.00415921  0.91177183  1
  O  O148  1  0.38319079  0.25648582  0.16509264  1
  O  O149  1  0.37282730  0.24559449  0.41212193  1
  O  O150  1  0.36972552  0.25743014  0.65995583  1
  O  O151  1  0.37951808  0.25522683  0.91031750  1
  O  O152  1  0.38207325  0.49048220  0.16528036  1
  O  O153  1  0.37419490  0.49633942  0.40546019  1
  O  O154  1  0.37284247  0.50138496  0.66031389  1
  O  O155  1  0.37785929  0.50191414  0.91435293  1
  O  O156  1  0.37946163  0.75108664  0.16496024  1
  O  O157  1  0.37545256  0.74946475  0.41359878  1
  O  O158  1  0.37828455  0.75324877  0.66135355  1
  O  O159  1  0.37802489  0.74934398  0.91355586  1
  O  O160  1  0.62820639  0.00349593  0.16306416  1
  O  O161  1  0.62836547  -0.00233531  0.41982834  1
  O  O162  1  0.62569516  -0.00445713  0.66241329  1
  O  O163  1  0.62492242  0.00842010  0.90372283  1
  O  O164  1  0.62609751  0.24813315  0.16455098  1
  O  O165  1  0.62461974  0.24833720  0.41667219  1
  O  O166  1  0.62351295  0.25083585  0.66105437  1
  O  O167  1  0.61859806  0.25575274  0.91438966  1
  O  O168  1  0.62701650  0.50136356  0.16518587  1
  O  O169  1  0.62701860  0.50701837  0.41464042  1
  O  O170  1  0.62303669  0.49668544  0.66695423  1
  O  O171  1  0.61865246  0.49353062  0.91155483  1
  O  O172  1  0.62953223  0.74631328  0.15959075  1
  O  O173  1  0.62864210  0.74456508  0.41580562  1
  O  O174  1  0.62404976  0.75453889  0.66497075  1
  O  O175  1  0.62286214  0.74713703  0.91287703  1
  O  O176  1  0.86952342  -0.00732092  0.16169781  1
  O  O177  1  0.87685149  -0.00170367  0.41657782  1
  O  O178  1  0.87758430  0.00552383  0.66805343  1
  O  O179  1  0.87159445  0.00337150  0.90896356  1
  O  O180  1  0.86784494  0.25687730  0.15886654  1
  O  O181  1  0.87642001  0.24140093  0.41060267  1
  O  O182  1  0.87926439  0.24779769  0.66613864  1
  O  O183  1  0.87226879  0.25263638  0.91571138  1
  O  O184  1  0.86833781  0.49309736  0.16116090  1
  O  O185  1  0.87375746  0.51036147  0.41245393  1
  O  O186  1  0.87706174  0.50257534  0.66636010  1
  O  O187  1  0.87228933  0.50301203  0.91304805  1
  O  O188  1  0.87006466  0.75841458  0.16240494  1
  O  O189  1  0.87376180  0.74642929  0.41872310  1
  O  O190  1  0.87440057  0.74497067  0.66858820  1
  O  O191  1  0.87156727  0.74327396  0.90595569  1
  O  O192  1  -0.00513064  0.12277039  0.16047999  1
  O  O193  1  -0.00571915  0.12051415  0.41549040  1
  O  O194  1  0.00397347  0.12738351  0.67016737  1
  O  O195  1  0.00764812  0.12647985  0.90860723  1
  O  O196  1  -0.00829876  0.37429051  0.14877384  1
  O  O197  1  -0.00220375  0.37524115  0.41563929  1
  O  O198  1  0.00210085  0.37536948  0.66925818  1
  O  O199  1  0.00003799  0.37519546  0.91298848  1
  O  O200  1  -0.00490563  0.62693998  0.16147957  1
  O  O201  1  -0.00601476  0.62771639  0.41200166  1
  O  O202  1  -0.00617507  0.62366388  0.66817582  1
  O  O203  1  -0.00683068  0.62378540  0.90915835  1
  O  O204  1  -0.00559151  0.87584510  0.15722144  1
  O  O205  1  -0.00024349  0.87356621  0.41935427  1
  O  O206  1  -0.00305537  0.87561246  0.67224826  1
  O  O207  1  -0.00124648  0.87634433  0.90632233  1
  O  O208  1  0.25175719  0.12543942  0.16205518  1
  O  O209  1  0.25189503  0.12224789  0.41217627  1
  O  O210  1  0.24191894  0.12528909  0.66727746  1
  O  O211  1  0.24947204  0.12385827  0.91333541  1
  O  O212  1  0.25857074  0.37319453  0.15502595  1
  O  O213  1  0.25759829  0.37196302  0.41200098  1
  O  O214  1  0.25212559  0.37706080  0.66682960  1
  O  O215  1  0.26333107  0.37705748  0.91692485  1
  O  O216  1  0.24936665  0.62504560  0.15909694  1
  O  O217  1  0.24897562  0.62669651  0.41053145  1
  O  O218  1  0.25875359  0.62759962  0.66402264  1
  O  O219  1  0.26091716  0.62677854  0.91675286  1
  O  O220  1  0.24339589  0.87606793  0.15438633  1
  O  O221  1  0.24283597  0.87476458  0.40884470  1
  O  O222  1  0.25672173  0.87394235  0.66189589  1
  O  O223  1  0.25926714  0.87425735  0.91494087  1
  O  O224  1  0.50954124  0.12554849  0.16704584  1
  O  O225  1  0.49172551  0.12316439  0.41236940  1
  O  O226  1  0.49775456  0.12367675  0.66129029  1
  O  O227  1  0.50586176  0.12910619  0.91309552  1
  O  O228  1  0.50394668  0.37458750  0.16902552  1
  O  O229  1  0.49052981  0.37250503  0.41402889  1
  O  O230  1  0.48929843  0.37693429  0.65895929  1
  O  O231  1  0.49603191  0.37710480  0.91784537  1
  O  O232  1  0.51247061  0.62352712  0.16609032  1
  O  O233  1  0.50677943  0.62513073  0.40924766  1
  O  O234  1  0.49017977  0.62527206  0.66515804  1
  O  O235  1  0.49467665  0.62409326  0.91526312  1
  O  O236  1  0.51068367  0.87623790  0.16459069  1
  O  O237  1  0.50127312  0.87440415  0.41355677  1
  O  O238  1  0.50030078  0.87480306  0.66177752  1
  O  O239  1  0.49440149  0.87450254  0.91336405  1
  O  O240  1  0.74443339  0.12591058  0.16434597  1
  O  O241  1  0.76074350  0.12127726  0.41576287  1
  O  O242  1  0.75635590  0.12631011  0.66129316  1
  O  O243  1  0.73809796  0.13287759  0.90938620  1
  O  O244  1  0.74719893  0.37449035  0.16761036  1
  O  O245  1  0.75288207  0.37619492  0.41851305  1
  O  O246  1  0.75496011  0.37462965  0.66149832  1
  O  O247  1  0.74030691  0.37497676  0.90856809  1
  O  O248  1  0.74402363  0.62377732  0.16727852  1
  O  O249  1  0.75073206  0.62688621  0.41616284  1
  O  O250  1  0.75721023  0.62317484  0.66628092  1
  O  O251  1  0.75138410  0.62106167  0.90865152  1
  O  O252  1  0.74992097  0.87529803  0.16460231  1
  O  O253  1  0.75594911  0.87204044  0.42025719  1
  O  O254  1  0.74504937  0.87506440  0.66690132  1
  O  O255  1  0.74893838  0.87539801  0.91202616  1
  O  O256  1  0.13035979  0.12456116  0.03506882  1
  O  O257  1  0.11806425  0.12718283  0.28246697  1
  O  O258  1  0.12237207  0.12465310  0.55218277  1
  O  O259  1  0.13147905  0.12567500  0.79763615  1
  O  O260  1  0.13139656  0.37062114  0.02706486  1
  O  O261  1  0.12191503  0.37084271  0.28144702  1
  O  O262  1  0.12534562  0.37359700  0.55045301  1
  O  O263  1  0.13589770  0.37800284  0.79343960  1
  O  O264  1  0.12441397  0.62969622  0.03036217  1
  O  O265  1  0.11833181  0.62137552  0.28182901  1
  O  O266  1  0.12473949  0.62599676  0.53931680  1
  O  O267  1  0.13272640  0.62544694  0.79018490  1
  O  O268  1  0.12383582  0.87592863  0.04192708  1
  O  O269  1  0.12180082  0.87667991  0.29787172  1
  O  O270  1  0.11709289  0.87444410  0.54429408  1
  O  O271  1  0.13352598  0.87199262  0.78215729  1
  O  O272  1  0.38286586  0.12089497  0.03554044  1
  O  O273  1  0.37338631  0.12515870  0.29732480  1
  O  O274  1  0.36364072  0.12037947  0.53854429  1
  O  O275  1  0.37774839  0.12079953  0.78489655  1
  O  O276  1  0.38339912  0.37316396  0.04807541  1
  O  O277  1  0.37601554  0.37404195  0.29561169  1
  O  O278  1  0.36977732  0.37669810  0.54635808  1
  O  O279  1  0.37664741  0.37582634  0.79896426  1
  O  O280  1  0.38594829  0.62501968  0.04129812  1
  O  O281  1  0.37565536  0.62995956  0.27876422  1
  O  O282  1  0.37331843  0.62408441  0.54693351  1
  O  O283  1  0.37584406  0.62334641  0.80059781  1
  O  O284  1  0.38642429  0.87826712  0.03978754  1
  O  O285  1  0.37685834  0.87106549  0.28074647  1
  O  O286  1  0.37290877  0.87287061  0.54675404  1
  O  O287  1  0.37427602  0.87451163  0.79879402  1
  O  O288  1  0.62428887  0.12568318  0.04998292  1
  O  O289  1  0.62631882  0.11902087  0.29158044  1
  O  O290  1  0.62493931  0.12367124  0.53152372  1
  O  O291  1  0.61929151  0.12996394  0.79327649  1
  O  O292  1  0.62485868  0.37638055  0.04938526  1
  O  O293  1  0.62675171  0.37373070  0.29116682  1
  O  O294  1  0.62179265  0.38242490  0.53094433  1
  O  O295  1  0.61896680  0.37382554  0.79764664  1
  O  O296  1  0.62782874  0.62199500  0.04812063  1
  O  O297  1  0.62944402  0.62772766  0.29935112  1
  O  O298  1  0.62372607  0.61827679  0.54249110  1
  O  O299  1  0.61781603  0.62469548  0.78094140  1
  O  O300  1  0.62783233  0.87693617  0.04705914  1
  O  O301  1  0.63432016  0.87777274  0.28602555  1
  O  O302  1  0.62554315  0.87373645  0.55137618  1
  O  O303  1  0.62554546  0.87119602  0.78342923  1
  O  O304  1  0.86859675  0.12379256  0.03118635  1
  O  O305  1  0.87808399  0.12121144  0.29735682  1
  O  O306  1  0.88112369  0.12431360  0.55525475  1
  O  O307  1  0.87608724  0.13359059  0.78474726  1
  O  O308  1  0.86336489  0.37704263  0.04483968  1
  O  O309  1  0.86764825  0.37559537  0.28440695  1
  O  O310  1  0.88082346  0.37538437  0.55139052  1
  O  O311  1  0.87558478  0.37151012  0.78256518  1
  O  O312  1  0.86481530  0.62310368  0.03435865  1
  O  O313  1  0.87429038  0.63024121  0.29835085  1
  O  O314  1  0.87723601  0.62636353  0.55193900  1
  O  O315  1  0.87365893  0.61907608  0.79607898  1
  O  O316  1  0.87250228  0.87643008  0.04480821  1
  O  O317  1  0.87618481  0.87397933  0.29977487  1
  O  O318  1  0.87498960  0.87428678  0.55939613  1
  O  O319  1  0.86570525  0.88047469  0.77744652  1
