# generated using pymatgen
data_VFe(PbO3)2
_symmetry_space_group_name_H-M   'P 1'
_cell_length_a   15.38063828
_cell_length_b   15.38722994
_cell_length_c   18.52514984
_cell_angle_alpha   90.02612640
_cell_angle_beta   89.98315412
_cell_angle_gamma   89.99290886
_symmetry_Int_Tables_number   1
_chemical_formula_structural   VFe(PbO3)2
_chemical_formula_sum   'V32 Fe32 Pb64 O192'
_cell_volume   4384.26164713
_cell_formula_units_Z   32
loop_
 _symmetry_equiv_pos_site_id
 _symmetry_equiv_pos_as_xyz
  1  'x, y, z'
loop_
 _atom_site_type_symbol
 _atom_site_label
 _atom_site_symmetry_multiplicity
 _atom_site_fract_x
 _atom_site_fract_y
 _atom_site_fract_z
 _atom_site_occupancy
  V  V0  1  0.87567765  0.12557575  0.63872857  1
  V  V1  1  0.87628002  0.62801578  0.39194370  1
  V  V2  1  0.37240510  0.87728697  0.14127999  1
  V  V3  1  0.37371771  0.12996984  0.15207762  1
  V  V4  1  0.87532501  0.87237162  0.39226206  1
  V  V5  1  0.37168636  0.12461674  0.89403266  1
  V  V6  1  0.63000604  0.62595832  0.38680497  1
  V  V7  1  0.37739323  0.87584608  0.63960858  1
  V  V8  1  0.12461097  0.62305510  0.64140320  1
  V  V9  1  0.37564456  0.87693978  0.89146842  1
  V  V10  1  0.12490341  0.62787315  0.13625694  1
  V  V11  1  0.87709165  0.62605808  0.13112227  1
  V  V12  1  0.12197413  0.62689402  0.38988890  1
  V  V13  1  0.37947669  0.12472632  0.63472240  1
  V  V14  1  0.37764196  0.37483765  0.63734190  1
  V  V15  1  0.12407191  0.12715892  0.88859959  1
  V  V16  1  0.61585596  0.62344326  0.64255161  1
  V  V17  1  0.37493954  0.62640068  0.13918266  1
  V  V18  1  0.62729614  0.87210795  0.38557035  1
  V  V19  1  0.62325005  0.12699999  0.63971932  1
  V  V20  1  0.37278649  0.62448896  0.63862088  1
  V  V21  1  0.62243276  0.12621607  0.89682628  1
  V  V22  1  0.87389713  0.87562717  0.88663297  1
  V  V23  1  0.62744237  0.62773942  0.13411834  1
  V  V24  1  0.86265210  0.62385902  0.64941966  1
  V  V25  1  0.87783932  0.87486388  0.13205934  1
  V  V26  1  0.12559800  0.12179916  0.14043544  1
  V  V27  1  0.12263803  0.87123979  0.39050921  1
  V  V28  1  0.37492370  0.62413375  0.89262688  1
  V  V29  1  0.62762773  0.62426225  0.89091661  1
  V  V30  1  0.12684492  0.62284307  0.88761146  1
  V  V31  1  0.87506265  0.37527373  0.89055776  1
  Fe  Fe32  1  0.87922049  0.12386825  0.12658305  1
  Fe  Fe33  1  0.37355649  0.87057469  0.38213421  1
  Fe  Fe34  1  0.87409877  0.12262115  0.38148543  1
  Fe  Fe35  1  0.62244985  0.87555436  0.89630546  1
  Fe  Fe36  1  0.87453839  0.37620531  0.38123751  1
  Fe  Fe37  1  0.62276818  0.37613560  0.89759069  1
  Fe  Fe38  1  0.62911349  0.12335217  0.37191728  1
  Fe  Fe39  1  0.12722266  0.37240246  0.88705874  1
  Fe  Fe40  1  0.62553472  0.37350837  0.63666064  1
  Fe  Fe41  1  0.62611580  0.37738848  0.13601159  1
  Fe  Fe42  1  0.12537556  0.87353925  0.13363540  1
  Fe  Fe43  1  0.62700428  0.37763702  0.37690298  1
  Fe  Fe44  1  0.12733254  0.87731320  0.88584837  1
  Fe  Fe45  1  0.12416240  0.87480417  0.64167534  1
  Fe  Fe46  1  0.12189126  0.12299039  0.38785956  1
  Fe  Fe47  1  0.37616472  0.62910418  0.38502088  1
  Fe  Fe48  1  0.12238189  0.37774345  0.38127001  1
  Fe  Fe49  1  0.87729335  0.37764932  0.13648610  1
  Fe  Fe50  1  0.12511499  0.37615505  0.14153817  1
  Fe  Fe51  1  0.37481958  0.37909001  0.37486133  1
  Fe  Fe52  1  0.87242362  0.12565783  0.89552303  1
  Fe  Fe53  1  0.13096963  0.12509656  0.62873351  1
  Fe  Fe54  1  0.37549185  0.12166010  0.37338081  1
  Fe  Fe55  1  0.87745339  0.62455845  0.88203345  1
  Fe  Fe56  1  0.62518736  0.12074308  0.14351914  1
  Fe  Fe57  1  0.87225737  0.37511597  0.63680548  1
  Fe  Fe58  1  0.37490812  0.37235154  0.89269882  1
  Fe  Fe59  1  0.87207959  0.87526565  0.63811093  1
  Fe  Fe60  1  0.62514154  0.87707742  0.64000985  1
  Fe  Fe61  1  0.12386393  0.37501309  0.63518815  1
  Fe  Fe62  1  0.62510870  0.87068371  0.13034575  1
  Fe  Fe63  1  0.37362475  0.37723551  0.14635463  1
  Pb  Pb64  1  -0.00327814  0.00244222  -0.00233564  1
  Pb  Pb65  1  0.00255830  0.01302200  0.25585955  1
  Pb  Pb66  1  0.00355163  0.00315486  0.50218796  1
  Pb  Pb67  1  0.00220411  -0.00064642  0.74688273  1
  Pb  Pb68  1  -0.00876167  0.25346966  0.00385116  1
  Pb  Pb69  1  -0.00702388  0.24893785  0.24643731  1
  Pb  Pb70  1  0.00066330  0.25294443  0.48964404  1
  Pb  Pb71  1  0.00498782  0.25320033  0.74487264  1
  Pb  Pb72  1  0.00214703  0.48863987  0.00226978  1
  Pb  Pb73  1  -0.00070010  0.48929318  0.25143968  1
  Pb  Pb74  1  -0.00270922  0.48704166  0.50426855  1
  Pb  Pb75  1  -0.00201130  0.49946593  0.75166821  1
  Pb  Pb76  1  0.00599113  0.75506886  -0.00535383  1
  Pb  Pb77  1  0.00039861  0.74907297  0.24615003  1
  Pb  Pb78  1  -0.00307632  0.75858229  0.51069826  1
  Pb  Pb79  1  -0.00272374  0.74877593  0.75227260  1
  Pb  Pb80  1  0.24512347  -0.00123093  0.00384987  1
  Pb  Pb81  1  0.24688346  0.00429311  0.25539923  1
  Pb  Pb82  1  0.24739150  0.00489688  0.49548647  1
  Pb  Pb83  1  0.24496319  -0.00082665  0.74847792  1
  Pb  Pb84  1  0.24985544  0.26169572  0.00936284  1
  Pb  Pb85  1  0.24417046  0.25855186  0.25515562  1
  Pb  Pb86  1  0.24721940  0.24866008  0.48412821  1
  Pb  Pb87  1  0.24817543  0.25499003  0.74687259  1
  Pb  Pb88  1  0.24957266  0.48812264  0.00745322  1
  Pb  Pb89  1  0.24951233  0.49646412  0.25243818  1
  Pb  Pb90  1  0.24769946  0.49329850  0.49345175  1
  Pb  Pb91  1  0.25132384  0.48978992  0.75303755  1
  Pb  Pb92  1  0.24576395  0.75317758  0.00078282  1
  Pb  Pb93  1  0.25785109  0.74886395  0.25309520  1
  Pb  Pb94  1  0.24377813  0.75462755  0.50243667  1
  Pb  Pb95  1  0.24742971  0.75344381  0.75226291  1
  Pb  Pb96  1  0.50397618  0.00610829  0.00996555  1
  Pb  Pb97  1  0.50132944  -0.00159533  0.24863367  1
  Pb  Pb98  1  0.49912339  0.00225713  0.48741606  1
  Pb  Pb99  1  0.50565729  -0.00330054  0.75345320  1
  Pb  Pb100  1  0.50040979  0.25307641  0.01008054  1
  Pb  Pb101  1  0.51425958  0.25814945  0.24819060  1
  Pb  Pb102  1  0.50261607  0.25085645  0.47913390  1
  Pb  Pb103  1  0.49860064  0.25866418  0.75437015  1
  Pb  Pb104  1  0.49640308  0.48965163  0.00752612  1
  Pb  Pb105  1  0.50073693  0.49609120  0.24925031  1
  Pb  Pb106  1  0.50062660  0.49360140  0.49195598  1
  Pb  Pb107  1  0.49707812  0.48710472  0.75895300  1
  Pb  Pb108  1  0.49940424  0.75193164  0.00257240  1
  Pb  Pb109  1  0.49104843  0.74842868  0.25156252  1
  Pb  Pb110  1  0.50303646  0.75371855  0.49804723  1
  Pb  Pb111  1  0.50363240  0.75441958  0.75588068  1
  Pb  Pb112  1  0.73887158  0.00760015  0.00886658  1
  Pb  Pb113  1  0.75258943  0.00693683  0.24339013  1
  Pb  Pb114  1  0.74952123  -0.00326883  0.49686067  1
  Pb  Pb115  1  0.75402453  0.00589535  0.75521218  1
  Pb  Pb116  1  0.74209578  0.25131881  0.00946372  1
  Pb  Pb117  1  0.75521460  0.24512178  0.23818510  1
  Pb  Pb118  1  0.74911458  0.25348497  0.48592058  1
  Pb  Pb119  1  0.75371443  0.24538710  0.75426924  1
  Pb  Pb120  1  0.75456774  0.48819180  0.00517527  1
  Pb  Pb121  1  0.75255842  0.48773216  0.24939743  1
  Pb  Pb122  1  0.74879410  0.48698687  0.50259155  1
  Pb  Pb123  1  0.74166870  0.48841775  0.75645511  1
  Pb  Pb124  1  0.74996524  0.75442148  -0.00276280  1
  Pb  Pb125  1  0.75132754  0.74916299  0.24462938  1
  Pb  Pb126  1  0.74808810  0.75799934  0.50797109  1
  Pb  Pb127  1  0.74436150  0.75862199  0.75577155  1
  O  O128  1  0.12631515  0.00031457  0.16230310  1
  O  O129  1  0.12186569  -0.01299316  0.41199887  1
  O  O130  1  0.12738833  0.00344657  0.66584611  1
  O  O131  1  0.12830365  0.00777157  0.91459384  1
  O  O132  1  0.12635666  0.24018283  0.16295897  1
  O  O133  1  0.12298381  0.25122280  0.40524544  1
  O  O134  1  0.12774166  0.24774989  0.66238803  1
  O  O135  1  0.12866855  0.24176297  0.91526954  1
  O  O136  1  0.12742720  0.51372331  0.16177636  1
  O  O137  1  0.11961464  0.51183851  0.41190411  1
  O  O138  1  0.13090134  0.50551800  0.66605267  1
  O  O139  1  0.12983196  0.50678426  0.91112350  1
  O  O140  1  0.12613326  0.74510676  0.16511421  1
  O  O141  1  0.11901854  0.74850106  0.42045262  1
  O  O142  1  0.13107890  0.74271511  0.66805405  1
  O  O143  1  0.13046445  0.74548562  0.91143772  1
  O  O144  1  0.37234835  -0.00786647  0.16299406  1
  O  O145  1  0.37622618  -0.00563841  0.40983234  1
  O  O146  1  0.38089352  -0.00374601  0.66272897  1
  O  O147  1  0.37571111  0.00479492  0.92003351  1
  O  O148  1  0.37161273  0.24524675  0.16582136  1
  O  O149  1  0.37561335  0.25011975  0.40044190  1
  O  O150  1  0.38032028  0.25396649  0.65965918  1
  O  O151  1  0.37549719  0.24036154  0.92040271  1
  O  O152  1  0.37287546  0.51186896  0.16131348  1
  O  O153  1  0.37506251  0.50538875  0.41191225  1
  O  O154  1  0.37657687  0.49673515  0.66336668  1
  O  O155  1  0.37431195  0.50818444  0.91595549  1
  O  O156  1  0.37348796  0.74825651  0.16393051  1
  O  O157  1  0.37561785  0.75036671  0.42091067  1
  O  O158  1  0.37608820  0.75279369  0.66409532  1
  O  O159  1  0.37334566  0.74996805  0.91588633  1
  O  O160  1  0.62419502  -0.00909122  0.16130424  1
  O  O161  1  0.62852281  -0.01083888  0.40440764  1
  O  O162  1  0.62219814  0.00764688  0.66706885  1
  O  O163  1  0.62174950  0.00525514  0.91872187  1
  O  O164  1  0.62443758  0.24977428  0.15853238  1
  O  O165  1  0.62641186  0.25027016  0.39886133  1
  O  O166  1  0.62272918  0.24381467  0.66546305  1
  O  O167  1  0.62178195  0.24491216  0.92084909  1
  O  O168  1  0.62403059  0.51393368  0.15919495  1
  O  O169  1  0.62871636  0.51058709  0.40814830  1
  O  O170  1  0.62307269  0.50770731  0.66826112  1
  O  O171  1  0.62042966  0.51024355  0.91796907  1
  O  O172  1  0.62390672  0.74473915  0.16304031  1
  O  O173  1  0.62899941  0.75089020  0.41592451  1
  O  O174  1  0.62266845  0.74182198  0.67005438  1
  O  O175  1  0.62020081  0.74226051  0.91707328  1
  O  O176  1  0.87753613  -0.01058743  0.14889115  1
  O  O177  1  0.87361122  -0.00929234  0.41410039  1
  O  O178  1  0.86890247  0.00783071  0.66587572  1
  O  O179  1  0.87561361  -0.00838090  0.91334953  1
  O  O180  1  0.88021171  0.24837751  0.15436620  1
  O  O181  1  0.87472265  0.25018066  0.40629022  1
  O  O182  1  0.86934566  0.24302355  0.66525001  1
  O  O183  1  0.87535488  0.25763117  0.91583116  1
  O  O184  1  0.87627038  0.51190838  0.15970305  1
  O  O185  1  0.87301706  0.51385224  0.41262718  1
  O  O186  1  0.87630414  0.50672591  0.67021576  1
  O  O187  1  0.87694789  0.49661097  0.91152929  1
  O  O188  1  0.87621027  0.74662510  0.16368381  1
  O  O189  1  0.87306097  0.74772505  0.42329109  1
  O  O190  1  0.87654973  0.74230920  0.66891848  1
  O  O191  1  0.87712310  0.75428195  0.91017812  1
  O  O192  1  0.00575105  0.11963143  0.15988770  1
  O  O193  1  -0.00299461  0.11835680  0.41678412  1
  O  O194  1  -0.00740732  0.12480650  0.65664402  1
  O  O195  1  0.00739388  0.12480485  0.90967358  1
  O  O196  1  0.00144523  0.37968868  0.16390339  1
  O  O197  1  -0.00204630  0.38255511  0.41135565  1
  O  O198  1  -0.00233422  0.37528381  0.66579536  1
  O  O199  1  -0.00184807  0.37570255  0.91173611  1
  O  O200  1  0.00434632  0.63025921  0.15721845  1
  O  O201  1  -0.00429217  0.63163356  0.41662898  1
  O  O202  1  0.00916898  0.62437395  0.66488791  1
  O  O203  1  0.00956358  0.62682798  0.90809388  1
  O  O204  1  -0.00572936  0.86585231  0.15825117  1
  O  O205  1  0.00076499  0.86849629  0.41845407  1
  O  O206  1  -0.00282569  0.87552309  0.66708118  1
  O  O207  1  -0.00268005  0.87428590  0.90861614  1
  O  O208  1  0.24741984  0.11930136  0.16783924  1
  O  O209  1  0.25045303  0.11950943  0.40874737  1
  O  O210  1  0.26088809  0.12484925  0.65972473  1
  O  O211  1  0.25274512  0.12285462  0.91528154  1
  O  O212  1  0.24765111  0.37680897  0.16867786  1
  O  O213  1  0.24874021  0.38099730  0.40692759  1
  O  O214  1  0.25896739  0.37470211  0.66124044  1
  O  O215  1  0.25065004  0.37391351  0.92020782  1
  O  O216  1  0.25037589  0.63040019  0.16033098  1
  O  O217  1  0.23849070  0.63063170  0.41094979  1
  O  O218  1  0.25291667  0.62428514  0.66787730  1
  O  O219  1  0.25230836  0.62780330  0.91516843  1
  O  O220  1  0.25360602  0.86990818  0.16364652  1
  O  O221  1  0.24074882  0.86730238  0.40937254  1
  O  O222  1  0.26024836  0.87593454  0.66502820  1
  O  O223  1  0.25500903  0.87828918  0.91711499  1
  O  O224  1  0.49163631  0.11909321  0.16467980  1
  O  O225  1  0.50349026  0.11914295  0.40243601  1
  O  O226  1  0.50175580  0.12571438  0.66834086  1
  O  O227  1  0.49798819  0.12427316  0.92153064  1
  O  O228  1  0.50071241  0.38095563  0.16029323  1
  O  O229  1  0.50153329  0.38108581  0.40530997  1
  O  O230  1  0.49712737  0.37644843  0.66637431  1
  O  O231  1  0.49731693  0.37459362  0.92439241  1
  O  O232  1  0.49775477  0.62977234  0.15771014  1
  O  O233  1  0.51173314  0.63081846  0.41028208  1
  O  O234  1  0.49889943  0.62543935  0.66636491  1
  O  O235  1  0.49353865  0.62832500  0.91685922  1
  O  O236  1  0.49301929  0.86921337  0.15871540  1
  O  O237  1  0.50905041  0.86932847  0.40664609  1
  O  O238  1  0.49628658  0.87316867  0.66884683  1
  O  O239  1  0.49335621  0.87610165  0.92105562  1
  O  O240  1  0.75600763  0.11943623  0.15531442  1
  O  O241  1  0.74910781  0.11908279  0.41037270  1
  O  O242  1  0.74387020  0.12547406  0.66572761  1
  O  O243  1  0.74131913  0.12570696  0.91837988  1
  O  O244  1  0.75147771  0.38065580  0.15931015  1
  O  O245  1  0.75016365  0.38214007  0.40925972  1
  O  O246  1  0.74851265  0.37676082  0.67091768  1
  O  O247  1  0.75452518  0.37717608  0.91429653  1
  O  O248  1  0.74757299  0.63111832  0.15310210  1
  O  O249  1  0.74931726  0.63198671  0.41528681  1
  O  O250  1  0.74642258  0.62478111  0.66654370  1
  O  O251  1  0.74507037  0.62754872  0.90606954  1
  O  O252  1  0.75918663  0.86676595  0.15783490  1
  O  O253  1  0.74764881  0.86953134  0.41565592  1
  O  O254  1  0.74863889  0.87296501  0.67163754  1
  O  O255  1  0.75536939  0.87192243  0.91101796  1
  O  O256  1  0.12841569  0.12118295  0.04921245  1
  O  O257  1  0.11757168  0.11042727  0.28668824  1
  O  O258  1  0.12962459  0.11648221  0.52866366  1
  O  O259  1  0.12944226  0.12664441  0.79735591  1
  O  O260  1  0.12857710  0.37993504  0.03905731  1
  O  O261  1  0.12442972  0.38399183  0.27987756  1
  O  O262  1  0.12281595  0.38374482  0.53555863  1
  O  O263  1  0.13535540  0.37043110  0.78695654  1
  O  O264  1  0.12650947  0.62925371  0.04494158  1
  O  O265  1  0.11766162  0.63068706  0.29901311  1
  O  O266  1  0.12670157  0.62479035  0.55050419  1
  O  O267  1  0.13197077  0.62400515  0.79651880  1
  O  O268  1  0.12769883  0.87105957  0.03370202  1
  O  O269  1  0.11686947  0.86684907  0.29960100  1
  O  O270  1  0.12640098  0.86705574  0.54197694  1
  O  O271  1  0.13488109  0.87861118  0.78575341  1
  O  O272  1  0.36928547  0.12328563  0.06033430  1
  O  O273  1  0.36967982  0.11221870  0.27217351  1
  O  O274  1  0.38420790  0.12211725  0.54412788  1
  O  O275  1  0.37549490  0.12478833  0.80349381  1
  O  O276  1  0.36704756  0.37739091  0.04323128  1
  O  O277  1  0.37345899  0.38482659  0.27348273  1
  O  O278  1  0.38050200  0.37771526  0.54675150  1
  O  O279  1  0.38067669  0.37430350  0.79202405  1
  O  O280  1  0.37323021  0.62874328  0.04804456  1
  O  O281  1  0.37554519  0.63705148  0.28474174  1
  O  O282  1  0.37390114  0.62396712  0.54831196  1
  O  O283  1  0.37461374  0.62486129  0.80166236  1
  O  O284  1  0.37012238  0.87500689  0.04970039  1
  O  O285  1  0.37495720  0.86239287  0.28230462  1
  O  O286  1  0.37911074  0.87519673  0.54892937  1
  O  O287  1  0.37783854  0.87868268  0.80007263  1
  O  O288  1  0.62223035  0.11794698  0.04054145  1
  O  O289  1  0.63081602  0.11786287  0.27032925  1
  O  O290  1  0.62287921  0.12584207  0.54934296  1
  O  O291  1  0.61959104  0.12603577  0.80572334  1
  O  O292  1  0.63102293  0.37875204  0.03216515  1
  O  O293  1  0.62399381  0.38578365  0.27571811  1
  O  O294  1  0.62717983  0.38131424  0.53733260  1
  O  O295  1  0.61637345  0.38031066  0.79617545  1
  O  O296  1  0.62398000  0.62908495  0.04321359  1
  O  O297  1  0.63302121  0.62958159  0.29578863  1
  O  O298  1  0.61901917  0.62492192  0.55192004  1
  O  O299  1  0.61850799  0.62484291  0.79988497  1
  O  O300  1  0.62913156  0.87084108  0.02894613  1
  O  O301  1  0.63305618  0.86620817  0.29479129  1
  O  O302  1  0.62662527  0.87182231  0.54073624  1
  O  O303  1  0.61593826  0.87096192  0.79554083  1
  O  O304  1  0.88462676  0.12323074  0.02391752  1
  O  O305  1  0.88085833  0.11609157  0.28045460  1
  O  O306  1  0.86865962  0.12390332  0.54838244  1
  O  O307  1  0.86488822  0.12488622  0.79520975  1
  O  O308  1  0.88053683  0.38367762  0.03464566  1
  O  O309  1  0.87635578  0.38576595  0.27982802  1
  O  O310  1  0.87014727  0.38300086  0.53693168  1
  O  O311  1  0.87394640  0.37367282  0.79895203  1
  O  O312  1  0.87870112  0.62789372  0.03974300  1
  O  O313  1  0.87610075  0.63323251  0.30109936  1
  O  O314  1  0.87042567  0.62328813  0.55885530  1
  O  O315  1  0.88305590  0.62518955  0.78274626  1
  O  O316  1  0.87763361  0.86655931  0.04077392  1
  O  O317  1  0.87536140  0.86659067  0.30134976  1
  O  O318  1  0.86899281  0.87066731  0.53813485  1
  O  O319  1  0.87331455  0.87672095  0.79498673  1
