# generated using pymatgen
data_VFe(PbO3)2
_symmetry_space_group_name_H-M   'P 1'
_cell_length_a   15.41757524
_cell_length_b   15.42616233
_cell_length_c   18.45704434
_cell_angle_alpha   90.04230705
_cell_angle_beta   89.98766910
_cell_angle_gamma   90.00659671
_symmetry_Int_Tables_number   1
_chemical_formula_structural   VFe(PbO3)2
_chemical_formula_sum   'V32 Fe32 Pb64 O192'
_cell_volume   4389.71169672
_cell_formula_units_Z   32
loop_
 _symmetry_equiv_pos_site_id
 _symmetry_equiv_pos_as_xyz
  1  'x, y, z'
loop_
 _atom_site_type_symbol
 _atom_site_label
 _atom_site_symmetry_multiplicity
 _atom_site_fract_x
 _atom_site_fract_y
 _atom_site_fract_z
 _atom_site_occupancy
  V  V0  1  0.37554810  0.12568701  0.64643121  1
  V  V1  1  0.62497682  0.62467440  0.88121303  1
  V  V2  1  0.62275945  0.37742865  0.65694411  1
  V  V3  1  0.87554015  0.37723373  0.39538693  1
  V  V4  1  0.87795757  0.37782426  0.13600515  1
  V  V5  1  0.63294082  0.13368385  0.65924734  1
  V  V6  1  0.87600282  0.87787346  0.64625721  1
  V  V7  1  0.12603228  0.12327763  0.88942769  1
  V  V8  1  0.87193853  0.12906254  0.38970079  1
  V  V9  1  0.62478258  0.12427782  0.39363921  1
  V  V10  1  0.87211001  0.62539480  0.39371833  1
  V  V11  1  0.87503286  0.62969122  0.64255455  1
  V  V12  1  0.62386390  0.62399657  0.39465696  1
  V  V13  1  0.62566096  0.37552274  0.39504603  1
  V  V14  1  0.87585597  0.37634197  0.64903444  1
  V  V15  1  0.36414713  0.62707125  0.65488455  1
  V  V16  1  0.12692665  0.12410341  0.64483367  1
  V  V17  1  0.88291463  0.12489310  0.65576939  1
  V  V18  1  0.87631596  0.62388419  0.88258966  1
  V  V19  1  0.12540829  0.87635897  0.64275997  1
  V  V20  1  0.87194932  0.62941377  0.13657290  1
  V  V21  1  0.62384583  0.86564417  0.13443570  1
  V  V22  1  0.62402257  0.62441207  0.64404947  1
  V  V23  1  0.62425228  0.88480173  0.65590070  1
  V  V24  1  0.13267212  0.37792738  0.13275590  1
  V  V25  1  0.12573900  0.37163837  0.64897700  1
  V  V26  1  0.37848153  0.62629334  0.13543790  1
  V  V27  1  0.62514392  0.37605477  0.13315698  1
  V  V28  1  0.37643799  0.62092153  0.39434793  1
  V  V29  1  0.37409834  0.37513313  0.64851574  1
  V  V30  1  0.62539239  0.11235748  0.13243360  1
  V  V31  1  0.12751734  0.37626520  0.39228828  1
  Fe  Fe32  1  0.37613012  0.87147080  0.87551538  1
  Fe  Fe33  1  0.37408306  0.62525220  0.86971762  1
  Fe  Fe34  1  0.12492227  0.87374623  0.12400136  1
  Fe  Fe35  1  0.12306176  0.87493912  0.38281522  1
  Fe  Fe36  1  0.37342403  0.37582464  0.88695992  1
  Fe  Fe37  1  0.62420253  0.62223455  0.13123878  1
  Fe  Fe38  1  0.62511941  0.12375150  0.87287847  1
  Fe  Fe39  1  0.12427643  0.87459735  0.89508058  1
  Fe  Fe40  1  0.62789026  0.37477171  0.87459443  1
  Fe  Fe41  1  0.37749425  0.37725830  0.38903734  1
  Fe  Fe42  1  0.37473440  0.12375853  0.89287334  1
  Fe  Fe43  1  0.37452602  0.87657627  0.64892445  1
  Fe  Fe44  1  0.87683222  0.37764004  0.88296480  1
  Fe  Fe45  1  0.37737549  0.87356764  0.13144023  1
  Fe  Fe46  1  0.37686924  0.12660401  0.12480599  1
  Fe  Fe47  1  0.12608813  0.62300056  0.13671716  1
  Fe  Fe48  1  0.62639353  0.87343716  0.87203397  1
  Fe  Fe49  1  0.37767074  0.87593866  0.38709824  1
  Fe  Fe50  1  0.87082640  0.87730498  0.38753394  1
  Fe  Fe51  1  0.87074019  0.87728390  0.12691874  1
  Fe  Fe52  1  0.12287544  0.12809227  0.12860056  1
  Fe  Fe53  1  0.87651525  0.12504832  0.88086184  1
  Fe  Fe54  1  0.62580852  0.87229341  0.39057051  1
  Fe  Fe55  1  0.12401509  0.62367418  0.87436840  1
  Fe  Fe56  1  0.12276855  0.37359392  0.88288899  1
  Fe  Fe57  1  0.37810748  0.37873243  0.12555098  1
  Fe  Fe58  1  0.87534707  0.87041816  0.88858310  1
  Fe  Fe59  1  0.37564952  0.12938877  0.38624058  1
  Fe  Fe60  1  0.11974430  0.62651381  0.65031026  1
  Fe  Fe61  1  0.12517313  0.62159966  0.38637719  1
  Fe  Fe62  1  0.12392087  0.12762566  0.38222617  1
  Fe  Fe63  1  0.87037017  0.12791538  0.12925614  1
  Pb  Pb64  1  -0.00480565  -0.00395068  -0.00378074  1
  Pb  Pb65  1  0.00262818  -0.00088663  0.23463140  1
  Pb  Pb66  1  0.00152318  0.00066448  0.49301017  1
  Pb  Pb67  1  0.00481078  -0.00796238  0.76187841  1
  Pb  Pb68  1  -0.00220033  0.24242410  -0.00470849  1
  Pb  Pb69  1  0.00437108  0.24361734  0.24613834  1
  Pb  Pb70  1  -0.00110872  0.25136267  0.50243072  1
  Pb  Pb71  1  0.00009357  0.25386934  0.76004710  1
  Pb  Pb72  1  0.00949179  0.50359994  -0.00569420  1
  Pb  Pb73  1  0.00235321  0.50547577  0.25116685  1
  Pb  Pb74  1  0.00542108  0.50720418  0.50945187  1
  Pb  Pb75  1  0.00493509  0.49704824  0.75644922  1
  Pb  Pb76  1  0.01203156  0.74930368  -0.00176804  1
  Pb  Pb77  1  0.00651364  0.76428372  0.24365407  1
  Pb  Pb78  1  0.00595158  0.74950104  0.49774455  1
  Pb  Pb79  1  0.00433520  0.76197201  0.76190850  1
  Pb  Pb80  1  0.25871079  -0.00986458  -0.00371814  1
  Pb  Pb81  1  0.24421221  0.00039280  0.23526748  1
  Pb  Pb82  1  0.25091802  -0.00140673  0.49147006  1
  Pb  Pb83  1  0.25458685  0.00408860  0.75906818  1
  Pb  Pb84  1  0.25108172  0.24571232  -0.00358545  1
  Pb  Pb85  1  0.25821661  0.23695131  0.24541240  1
  Pb  Pb86  1  0.25388993  0.24732853  0.49861614  1
  Pb  Pb87  1  0.25358970  0.25190275  0.76187162  1
  Pb  Pb88  1  0.25113132  0.50396326  -0.01547282  1
  Pb  Pb89  1  0.25027694  0.50541231  0.24787340  1
  Pb  Pb90  1  0.24360687  0.51085981  0.51118582  1
  Pb  Pb91  1  0.24260472  0.49326770  0.75964210  1
  Pb  Pb92  1  0.24940960  0.74888058  -0.01260070  1
  Pb  Pb93  1  0.24229477  0.76105478  0.24361158  1
  Pb  Pb94  1  0.24680483  0.75394361  0.49815697  1
  Pb  Pb95  1  0.24029758  0.76646647  0.76179782  1
  Pb  Pb96  1  0.49873545  -0.00421722  -0.01574188  1
  Pb  Pb97  1  0.48208693  0.00090356  0.25115179  1
  Pb  Pb98  1  0.48857258  -0.00929411  0.50655603  1
  Pb  Pb99  1  0.49333910  0.01534718  0.76323504  1
  Pb  Pb100  1  0.49830260  0.24998144  -0.01338011  1
  Pb  Pb101  1  0.48762054  0.25411708  0.24563067  1
  Pb  Pb102  1  0.50066829  0.25141903  0.50488349  1
  Pb  Pb103  1  0.48634481  0.25198196  0.76497041  1
  Pb  Pb104  1  0.49600503  0.49562451  -0.01140385  1
  Pb  Pb105  1  0.49483336  0.49693165  0.24704667  1
  Pb  Pb106  1  0.49824012  0.50198653  0.50947737  1
  Pb  Pb107  1  0.49026374  0.49732451  0.75837764  1
  Pb  Pb108  1  0.49343509  0.75293759  -0.01153986  1
  Pb  Pb109  1  0.50019317  0.75954072  0.25300764  1
  Pb  Pb110  1  0.49076607  0.75733932  0.51010890  1
  Pb  Pb111  1  0.49752148  0.75373575  0.75341116  1
  Pb  Pb112  1  0.75524735  -0.00257397  -0.01473124  1
  Pb  Pb113  1  0.75452770  -0.00817311  0.24766225  1
  Pb  Pb114  1  0.74894480  0.00102803  0.50504656  1
  Pb  Pb115  1  0.76525498  -0.00029588  0.76488109  1
  Pb  Pb116  1  0.75145734  0.24556015  -0.01651243  1
  Pb  Pb117  1  0.74574553  0.25328630  0.24379582  1
  Pb  Pb118  1  0.74899929  0.25158624  0.50921992  1
  Pb  Pb119  1  0.76229453  0.25479871  0.76373858  1
  Pb  Pb120  1  0.74362096  0.50359077  -0.00555013  1
  Pb  Pb121  1  0.74881573  0.50105861  0.24661764  1
  Pb  Pb122  1  0.74907211  0.50016691  0.50747458  1
  Pb  Pb123  1  0.75189234  0.49532395  0.75608461  1
  Pb  Pb124  1  0.74803756  0.75032678  -0.00636192  1
  Pb  Pb125  1  0.74905099  0.75999809  0.25388739  1
  Pb  Pb126  1  0.74473259  0.75490463  0.50672343  1
  Pb  Pb127  1  0.75341667  0.75592240  0.75510234  1
  O  O128  1  0.12250377  0.00078484  0.15144563  1
  O  O129  1  0.12241878  0.00212272  0.41189164  1
  O  O130  1  0.12496999  -0.00238971  0.66923576  1
  O  O131  1  0.12600616  0.00598149  0.91326833  1
  O  O132  1  0.12146435  0.26584132  0.16122481  1
  O  O133  1  0.12061927  0.25972314  0.41750540  1
  O  O134  1  0.12515112  0.24983880  0.67106777  1
  O  O135  1  0.12419493  0.24418253  0.90735699  1
  O  O136  1  0.11976423  0.49238792  0.16569170  1
  O  O137  1  0.12171272  0.49476740  0.42204576  1
  O  O138  1  0.12322072  0.48999999  0.66582634  1
  O  O139  1  0.12219205  0.50151769  0.90746286  1
  O  O140  1  0.12270117  0.74736118  0.16058559  1
  O  O141  1  0.12355616  0.74613733  0.41567510  1
  O  O142  1  0.12042117  0.75821499  0.66441872  1
  O  O143  1  0.12113031  0.74433883  0.90803050  1
  O  O144  1  0.38021307  0.00198999  0.15902053  1
  O  O145  1  0.37956721  0.00384343  0.41562852  1
  O  O146  1  0.37244951  0.00709391  0.66673170  1
  O  O147  1  0.37490448  -0.00438526  0.90540043  1
  O  O148  1  0.38087208  0.25345377  0.15531824  1
  O  O149  1  0.37785865  0.25388369  0.42230926  1
  O  O150  1  0.37131120  0.24793519  0.67095016  1
  O  O151  1  0.37605769  0.25036993  0.90921071  1
  O  O152  1  0.37817306  0.50507257  0.16236437  1
  O  O153  1  0.37663916  0.50357587  0.42419356  1
  O  O154  1  0.37433261  0.49608647  0.67125404  1
  O  O155  1  0.37692445  0.50438798  0.90324312  1
  O  O156  1  0.37820517  0.74244822  0.16145446  1
  O  O157  1  0.37774408  0.73902037  0.41888110  1
  O  O158  1  0.37789775  0.74254081  0.66083924  1
  O  O159  1  0.37911171  0.74548079  0.90213962  1
  O  O160  1  0.62805190  -0.00080308  0.15038009  1
  O  O161  1  0.62877347  0.00892361  0.41590886  1
  O  O162  1  0.62422915  -0.00281694  0.66676329  1
  O  O163  1  0.62701629  -0.00304575  0.89690160  1
  O  O164  1  0.62813944  0.26277560  0.15830921  1
  O  O165  1  0.62891401  0.25130154  0.42458419  1
  O  O166  1  0.62478707  0.24768161  0.67053335  1
  O  O167  1  0.62445370  0.24999037  0.89762323  1
  O  O168  1  0.62708624  0.49591472  0.16440493  1
  O  O169  1  0.62708269  0.49976807  0.42477060  1
  O  O170  1  0.63418789  0.50343029  0.66899639  1
  O  O171  1  0.63062400  0.50629919  0.90517619  1
  O  O172  1  0.62581360  0.75097910  0.15881932  1
  O  O173  1  0.62589959  0.74283761  0.42379996  1
  O  O174  1  0.63454934  0.73746317  0.66533356  1
  O  O175  1  0.62780288  0.74133563  0.90454426  1
  O  O176  1  0.86761149  0.00261035  0.16022948  1
  O  O177  1  0.86938732  0.00796193  0.41654079  1
  O  O178  1  0.87630738  -0.00120958  0.67325685  1
  O  O179  1  0.87396706  -0.00018424  0.90377074  1
  O  O180  1  0.86695043  0.26045878  0.16080715  1
  O  O181  1  0.87201969  0.25268554  0.42496070  1
  O  O182  1  0.87860769  0.25228764  0.67145796  1
  O  O183  1  0.87577109  0.25022250  0.90519863  1
  O  O184  1  0.87110614  0.49638591  0.16567487  1
  O  O185  1  0.87199097  0.50079470  0.42362177  1
  O  O186  1  0.87682717  0.49490679  0.66493081  1
  O  O187  1  0.87188286  0.50820280  0.90897299  1
  O  O188  1  0.86892160  0.74441373  0.15405493  1
  O  O189  1  0.87090737  0.74060677  0.41577317  1
  O  O190  1  0.87510895  0.74670169  0.66184044  1
  O  O191  1  0.87337721  0.73873180  0.91050669  1
  O  O192  1  -0.00452288  0.13256345  0.16031642  1
  O  O193  1  -0.00599071  0.13089694  0.41407826  1
  O  O194  1  0.00616403  0.12436850  0.67350417  1
  O  O195  1  0.00487694  0.12366458  0.90710598  1
  O  O196  1  -0.00796072  0.37776679  0.15948355  1
  O  O197  1  -0.00106712  0.37639332  0.42229349  1
  O  O198  1  0.00094871  0.37074742  0.66839214  1
  O  O199  1  -0.00075229  0.37636992  0.91200074  1
  O  O200  1  -0.01249518  0.62031315  0.16444137  1
  O  O201  1  -0.00849183  0.62026303  0.41573503  1
  O  O202  1  -0.01089200  0.61972980  0.66547719  1
  O  O203  1  -0.00739385  0.62283642  0.90366908  1
  O  O204  1  -0.00380960  0.87368175  0.15373740  1
  O  O205  1  -0.00496812  0.87392886  0.41616975  1
  O  O206  1  0.00162376  0.87746679  0.67002893  1
  O  O207  1  -0.00169960  0.87384431  0.91339269  1
  O  O208  1  0.25053283  0.13044891  0.15561211  1
  O  O209  1  0.24881545  0.13059854  0.41476836  1
  O  O210  1  0.24987390  0.12551880  0.67210695  1
  O  O211  1  0.24423269  0.12479075  0.91304092  1
  O  O212  1  0.24671531  0.38169743  0.14796760  1
  O  O213  1  0.24312944  0.37745255  0.41382217  1
  O  O214  1  0.24593917  0.37233110  0.66849656  1
  O  O215  1  0.24688708  0.37551656  0.90999130  1
  O  O216  1  0.25761792  0.62110299  0.16181959  1
  O  O217  1  0.25610807  0.62087243  0.41857976  1
  O  O218  1  0.25055362  0.62170665  0.66396890  1
  O  O219  1  0.25021423  0.62477035  0.89481302  1
  O  O220  1  0.25121517  0.87373066  0.15645336  1
  O  O221  1  0.25143191  0.87255239  0.41370049  1
  O  O222  1  0.24216274  0.87454580  0.66346474  1
  O  O223  1  0.25181861  0.87055338  0.90611944  1
  O  O224  1  0.51420402  0.12952096  0.16018615  1
  O  O225  1  0.51033647  0.13167797  0.41719373  1
  O  O226  1  0.49068628  0.12683127  0.66745842  1
  O  O227  1  0.50324654  0.12256161  0.90667275  1
  O  O228  1  0.50794353  0.38082421  0.15604300  1
  O  O229  1  0.50580379  0.37638323  0.42388634  1
  O  O230  1  0.49832290  0.37422268  0.67038128  1
  O  O231  1  0.50414827  0.37968944  0.90266723  1
  O  O232  1  0.49608630  0.62352467  0.16215976  1
  O  O233  1  0.49815464  0.62010861  0.42255566  1
  O  O234  1  0.51130292  0.61916686  0.66438187  1
  O  O235  1  0.50808380  0.62217953  0.89774268  1
  O  O236  1  0.50961301  0.87445255  0.16281948  1
  O  O237  1  0.50255131  0.87319901  0.42411832  1
  O  O238  1  0.50743958  0.86790119  0.66477107  1
  O  O239  1  0.50306135  0.86953473  0.89969827  1
  O  O240  1  0.73815257  0.13157712  0.16387266  1
  O  O241  1  0.74684805  0.13065459  0.42496626  1
  O  O242  1  0.74826357  0.12449242  0.67071975  1
  O  O243  1  0.74889266  0.12590678  0.89952655  1
  O  O244  1  0.74878112  0.38054651  0.16282544  1
  O  O245  1  0.75032467  0.37573777  0.42613909  1
  O  O246  1  0.75810033  0.37110463  0.66681754  1
  O  O247  1  0.75078436  0.37745285  0.90813060  1
  O  O248  1  0.75504164  0.62008532  0.16472299  1
  O  O249  1  0.75148427  0.62040449  0.42137840  1
  O  O250  1  0.75862880  0.61957149  0.66807397  1
  O  O251  1  0.75089878  0.62466757  0.90808126  1
  O  O252  1  0.74119620  0.87370250  0.16176626  1
  O  O253  1  0.74877395  0.87547233  0.42671061  1
  O  O254  1  0.75387828  0.87412563  0.67038513  1
  O  O255  1  0.74793992  0.86842385  0.90553113  1
  O  O256  1  0.11978929  0.13872355  0.02967780  1
  O  O257  1  0.12467768  0.13885834  0.28254673  1
  O  O258  1  0.12639272  0.12538153  0.55382647  1
  O  O259  1  0.12947599  0.12029588  0.79703861  1
  O  O260  1  0.12092313  0.37977264  0.04184436  1
  O  O261  1  0.12190692  0.37933790  0.30156016  1
  O  O262  1  0.12432705  0.36957743  0.55736436  1
  O  O263  1  0.12344085  0.37671613  0.78084395  1
  O  O264  1  0.11883769  0.62019897  0.03696785  1
  O  O265  1  0.12722350  0.61095891  0.28651901  1
  O  O266  1  0.12158922  0.61858975  0.54750411  1
  O  O267  1  0.11833167  0.61955622  0.77122284  1
  O  O268  1  0.12611065  0.86723563  0.02227422  1
  O  O269  1  0.12213815  0.86937013  0.28242186  1
  O  O270  1  0.11998600  0.87863953  0.55142653  1
  O  O271  1  0.12106088  0.87207166  0.79017921  1
  O  O272  1  0.37790730  0.12416922  0.02388625  1
  O  O273  1  0.38158101  0.13482045  0.28544082  1
  O  O274  1  0.37151158  0.12988469  0.55483459  1
  O  O275  1  0.37379657  0.12513593  0.78845231  1
  O  O276  1  0.38260209  0.38348812  0.02568253  1
  O  O277  1  0.38395456  0.37694368  0.28934426  1
  O  O278  1  0.37358948  0.37445830  0.55683896  1
  O  O279  1  0.37149507  0.36953979  0.78261114  1
  O  O280  1  0.37895031  0.62545253  0.04408750  1
  O  O281  1  0.37865401  0.61694146  0.30364695  1
  O  O282  1  0.37781173  0.61407439  0.56252351  1
  O  O283  1  0.38446441  0.62341228  0.76643621  1
  O  O284  1  0.38278094  0.86843619  0.03164398  1
  O  O285  1  0.39050172  0.87370814  0.28667269  1
  O  O286  1  0.38121275  0.87713393  0.54668669  1
  O  O287  1  0.37019528  0.86884948  0.77127360  1
  O  O288  1  0.62658386  0.12241016  0.04153868  1
  O  O289  1  0.62910925  0.12863584  0.30312202  1
  O  O290  1  0.62274095  0.12494203  0.56734428  1
  O  O291  1  0.61427110  0.11831127  0.76907875  1
  O  O292  1  0.62878537  0.37857461  0.04181886  1
  O  O293  1  0.62561198  0.37508754  0.30403497  1
  O  O294  1  0.62680282  0.37489302  0.56424479  1
  O  O295  1  0.63440082  0.37988830  0.77198754  1
  O  O296  1  0.62970457  0.62192783  0.03287713  1
  O  O297  1  0.62315926  0.62426639  0.30361138  1
  O  O298  1  0.62865547  0.62124546  0.55170417  1
  O  O299  1  0.63211946  0.62349571  0.78956825  1
  O  O300  1  0.62348476  0.86612185  0.04324224  1
  O  O301  1  0.62881331  0.86413059  0.29088409  1
  O  O302  1  0.63284973  0.87218537  0.56328733  1
  O  O303  1  0.62971551  0.86235938  0.76885455  1
  O  O304  1  0.87045143  0.12889456  0.02955226  1
  O  O305  1  0.86515766  0.13379043  0.29893957  1
  O  O306  1  0.87750515  0.12451047  0.56398136  1
  O  O307  1  0.87300625  0.12613294  0.77676637  1
  O  O308  1  0.87558840  0.37992858  0.04515899  1
  O  O309  1  0.87397187  0.37609141  0.30449536  1
  O  O310  1  0.87923459  0.37240342  0.55712142  1
  O  O311  1  0.87667800  0.37405021  0.78065136  1
  O  O312  1  0.87190593  0.62119714  0.04558152  1
  O  O313  1  0.86840516  0.62088295  0.30299753  1
  O  O314  1  0.87346623  0.62490977  0.55077718  1
  O  O315  1  0.87370972  0.62444327  0.79070228  1
  O  O316  1  0.86483504  0.87897609  0.02677873  1
  O  O317  1  0.85764497  0.87354264  0.28762179  1
  O  O318  1  0.87687997  0.87954334  0.55492093  1
  O  O319  1  0.88005506  0.86889889  0.78443740  1
