# generated using pymatgen
data_VFe(PbO3)2
_symmetry_space_group_name_H-M   'P 1'
_cell_length_a   15.37276750
_cell_length_b   15.38442204
_cell_length_c   18.41180050
_cell_angle_alpha   89.97106982
_cell_angle_beta   90.01260194
_cell_angle_gamma   90.00725333
_symmetry_Int_Tables_number   1
_chemical_formula_structural   VFe(PbO3)2
_chemical_formula_sum   'V32 Fe32 Pb64 O192'
_cell_volume   4354.41116969
_cell_formula_units_Z   32
loop_
 _symmetry_equiv_pos_site_id
 _symmetry_equiv_pos_as_xyz
  1  'x, y, z'
loop_
 _atom_site_type_symbol
 _atom_site_label
 _atom_site_symmetry_multiplicity
 _atom_site_fract_x
 _atom_site_fract_y
 _atom_site_fract_z
 _atom_site_occupancy
  V  V0  1  0.62370543  0.62592778  0.39257751  1
  V  V1  1  0.12508987  0.12381457  0.14502574  1
  V  V2  1  0.87429621  0.62478125  0.39525367  1
  V  V3  1  0.37517111  0.62326634  0.88553594  1
  V  V4  1  0.37445831  0.62375186  0.14276831  1
  V  V5  1  0.87485508  0.87589373  0.63412928  1
  V  V6  1  0.87531540  0.87507872  0.88541896  1
  V  V7  1  0.62309326  0.62171006  0.63639731  1
  V  V8  1  0.62625125  0.12374968  0.14194810  1
  V  V9  1  0.37651682  0.12040531  0.38552588  1
  V  V10  1  0.87761885  0.62349053  0.14251558  1
  V  V11  1  0.37466755  0.37394341  0.38838067  1
  V  V12  1  0.62636979  0.87315721  0.14052324  1
  V  V13  1  0.37407210  0.37481700  0.63648846  1
  V  V14  1  0.62580952  0.62747554  0.14004108  1
  V  V15  1  0.87501674  0.11923423  0.38967938  1
  V  V16  1  0.62641725  0.37582928  0.14070493  1
  V  V17  1  0.37333499  0.12413568  0.63597636  1
  V  V18  1  0.37575323  0.62433060  0.39670909  1
  V  V19  1  0.62344741  0.37386530  0.88726080  1
  V  V20  1  0.62792571  0.87625660  0.39359350  1
  V  V21  1  0.12478961  0.62465031  0.39494568  1
  V  V22  1  0.12326500  0.37636968  0.14202170  1
  V  V23  1  0.87415298  0.37318749  0.39054425  1
  V  V24  1  0.12384065  0.87301213  0.14283497  1
  V  V25  1  0.62634371  0.62510022  0.88934035  1
  V  V26  1  0.12450158  0.12891525  0.63601297  1
  V  V27  1  0.12615769  0.62606490  0.14029470  1
  V  V28  1  0.12599559  0.37432626  0.88689780  1
  V  V29  1  0.87722041  0.12619754  0.14374966  1
  V  V30  1  0.87464577  0.37341322  0.63480908  1
  V  V31  1  0.12330565  0.12284745  0.88917696  1
  Fe  Fe32  1  0.87394368  0.87697119  0.14479365  1
  Fe  Fe33  1  0.12606875  0.62390878  0.87863251  1
  Fe  Fe34  1  0.12562111  0.87579822  0.87791424  1
  Fe  Fe35  1  0.62596090  0.87427803  0.63844253  1
  Fe  Fe36  1  0.62471501  0.87291835  0.87871082  1
  Fe  Fe37  1  0.62348879  0.12533385  0.39243791  1
  Fe  Fe38  1  0.37562358  0.12747217  0.88391297  1
  Fe  Fe39  1  0.37593981  0.87216671  0.39318826  1
  Fe  Fe40  1  0.62387586  0.12739590  0.63180519  1
  Fe  Fe41  1  0.62666013  0.37798795  0.39850610  1
  Fe  Fe42  1  0.87503315  0.37602883  0.88446505  1
  Fe  Fe43  1  0.87647546  0.12657114  0.88125669  1
  Fe  Fe44  1  0.62486587  0.37563027  0.62735403  1
  Fe  Fe45  1  0.12385107  0.87903112  0.63730678  1
  Fe  Fe46  1  0.37599943  0.37565175  0.88697956  1
  Fe  Fe47  1  0.87587636  0.12370131  0.63479875  1
  Fe  Fe48  1  0.37511988  0.87566258  0.88012163  1
  Fe  Fe49  1  0.37505372  0.87318977  0.13960728  1
  Fe  Fe50  1  0.37698746  0.62389341  0.62925317  1
  Fe  Fe51  1  0.12728601  0.12569433  0.38236602  1
  Fe  Fe52  1  0.37449624  0.37590779  0.13809877  1
  Fe  Fe53  1  0.87436678  0.37359543  0.13945465  1
  Fe  Fe54  1  0.87421589  0.62466523  0.87812702  1
  Fe  Fe55  1  0.87397576  0.87141597  0.38438332  1
  Fe  Fe56  1  0.62664337  0.12477629  0.88109609  1
  Fe  Fe57  1  0.12342721  0.37662160  0.39685129  1
  Fe  Fe58  1  0.12385486  0.87493749  0.39080401  1
  Fe  Fe59  1  0.87306873  0.62604914  0.63850246  1
  Fe  Fe60  1  0.37526242  0.87524919  0.63132609  1
  Fe  Fe61  1  0.12621498  0.62240349  0.63600019  1
  Fe  Fe62  1  0.12449648  0.37005939  0.62891459  1
  Fe  Fe63  1  0.37510404  0.12556455  0.13789841  1
  Pb  Pb64  1  -0.00512587  -0.00617653  -0.00073154  1
  Pb  Pb65  1  0.00732863  -0.00346463  0.25810572  1
  Pb  Pb66  1  0.00512055  -0.00635518  0.49833943  1
  Pb  Pb67  1  -0.00089483  0.00104581  0.74671885  1
  Pb  Pb68  1  -0.00420180  0.25492834  -0.00037050  1
  Pb  Pb69  1  0.01007682  0.25125151  0.25784626  1
  Pb  Pb70  1  0.00094851  0.25120456  0.49907839  1
  Pb  Pb71  1  -0.01236252  0.25246045  0.75027682  1
  Pb  Pb72  1  -0.00388656  0.50145068  -0.00621090  1
  Pb  Pb73  1  0.00477323  0.49524299  0.25665955  1
  Pb  Pb74  1  0.00291156  0.50951946  0.50917541  1
  Pb  Pb75  1  -0.00038857  0.50239665  0.74397611  1
  Pb  Pb76  1  0.00303659  0.74746571  -0.00837232  1
  Pb  Pb77  1  -0.00003503  0.75807834  0.25721416  1
  Pb  Pb78  1  0.00468185  0.75088417  0.50526499  1
  Pb  Pb79  1  0.00966115  0.74448432  0.74339471  1
  Pb  Pb80  1  0.26143594  -0.00421236  -0.00220105  1
  Pb  Pb81  1  0.25017872  -0.00584905  0.25342534  1
  Pb  Pb82  1  0.24597424  -0.01189134  0.49967369  1
  Pb  Pb83  1  0.25356700  -0.00900127  0.74868820  1
  Pb  Pb84  1  0.25657923  0.24764676  0.00228675  1
  Pb  Pb85  1  0.24805232  0.24860187  0.25053090  1
  Pb  Pb86  1  0.24600582  0.25258417  0.49668785  1
  Pb  Pb87  1  0.26011050  0.24795045  0.75176511  1
  Pb  Pb88  1  0.25402990  0.49471657  -0.00093738  1
  Pb  Pb89  1  0.24514386  0.49673069  0.25514638  1
  Pb  Pb90  1  0.24792132  0.50894267  0.50720779  1
  Pb  Pb91  1  0.24405335  0.50240034  0.74313282  1
  Pb  Pb92  1  0.25089199  0.75646748  -0.00690877  1
  Pb  Pb93  1  0.25122471  0.75841167  0.25857680  1
  Pb  Pb94  1  0.24935645  0.75020941  0.50538443  1
  Pb  Pb95  1  0.24909503  0.75204261  0.73786025  1
  Pb  Pb96  1  0.49755613  0.00131893  -0.00920795  1
  Pb  Pb97  1  0.49436752  -0.00235435  0.25098666  1
  Pb  Pb98  1  0.50505658  -0.01108797  0.50748254  1
  Pb  Pb99  1  0.50208041  -0.00254863  0.74616918  1
  Pb  Pb100  1  0.49007442  0.24248847  0.00091700  1
  Pb  Pb101  1  0.50460018  0.24885428  0.25192569  1
  Pb  Pb102  1  0.50822124  0.25031976  0.49934172  1
  Pb  Pb103  1  0.49720035  0.24509551  0.74763077  1
  Pb  Pb104  1  0.49800056  0.49762491  0.00195574  1
  Pb  Pb105  1  0.50572378  0.49510916  0.25379382  1
  Pb  Pb106  1  0.49805328  0.49978505  0.50298546  1
  Pb  Pb107  1  0.49646864  0.49134455  0.74746694  1
  Pb  Pb108  1  0.49547725  0.75739976  -0.00294196  1
  Pb  Pb109  1  0.49337787  0.75302045  0.25546105  1
  Pb  Pb110  1  0.49966808  0.75900664  0.50851008  1
  Pb  Pb111  1  0.49510957  0.76053461  0.74505427  1
  Pb  Pb112  1  0.74718948  0.00259007  -0.00659576  1
  Pb  Pb113  1  0.74642555  0.00624098  0.25574281  1
  Pb  Pb114  1  0.74938493  0.01043642  0.50763792  1
  Pb  Pb115  1  0.73916999  0.00760605  0.74573556  1
  Pb  Pb116  1  0.75557462  0.25174739  -0.00424806  1
  Pb  Pb117  1  0.73839248  0.24944077  0.25912424  1
  Pb  Pb118  1  0.74836285  0.24095734  0.50470306  1
  Pb  Pb119  1  0.74506377  0.24365068  0.74358875  1
  Pb  Pb120  1  0.75617651  0.49812954  -0.00091274  1
  Pb  Pb121  1  0.74453603  0.49402929  0.25540361  1
  Pb  Pb122  1  0.75579950  0.50370633  0.50610085  1
  Pb  Pb123  1  0.75928956  0.49676969  0.74882937  1
  Pb  Pb124  1  0.75933634  0.75851619  0.00085950  1
  Pb  Pb125  1  0.75549036  0.75146023  0.25426766  1
  Pb  Pb126  1  0.75131106  0.74931078  0.50520044  1
  Pb  Pb127  1  0.74957267  0.74964186  0.74637724  1
  O  O128  1  0.12326060  -0.00542055  0.16652151  1
  O  O129  1  0.12479095  0.00414950  0.41358331  1
  O  O130  1  0.12672904  0.01218695  0.66231226  1
  O  O131  1  0.12207173  0.00554318  0.91192013  1
  O  O132  1  0.12230415  0.25124723  0.16729544  1
  O  O133  1  0.12307457  0.24842667  0.41366604  1
  O  O134  1  0.12713240  0.24439386  0.66331866  1
  O  O135  1  0.12355762  0.25239874  0.91424466  1
  O  O136  1  0.12306389  0.50258256  0.16988851  1
  O  O137  1  0.12378787  0.50633291  0.41700760  1
  O  O138  1  0.12640956  0.49274414  0.65874201  1
  O  O139  1  0.12669534  0.49343099  0.91045593  1
  O  O140  1  0.12394653  0.75189262  0.16613133  1
  O  O141  1  0.12436991  0.74318762  0.41653976  1
  O  O142  1  0.12455015  0.75141542  0.65654941  1
  O  O143  1  0.12468051  0.74993483  0.90961629  1
  O  O144  1  0.37582084  -0.00150570  0.16781961  1
  O  O145  1  0.37667888  0.00595043  0.40549021  1
  O  O146  1  0.37391556  0.00854219  0.65583066  1
  O  O147  1  0.37345983  0.00194462  0.91023283  1
  O  O148  1  0.37544700  0.25119276  0.16833198  1
  O  O149  1  0.37703857  0.25542169  0.40913941  1
  O  O150  1  0.37428249  0.25072841  0.66180780  1
  O  O151  1  0.37335125  0.25204144  0.91736727  1
  O  O152  1  0.37438228  0.50454323  0.17013067  1
  O  O153  1  0.37438971  0.49849805  0.41562754  1
  O  O154  1  0.37620703  0.49252826  0.65823793  1
  O  O155  1  0.37764475  0.50485683  0.91605657  1
  O  O156  1  0.37443279  0.74508846  0.17106889  1
  O  O157  1  0.37581977  0.74383554  0.41753872  1
  O  O158  1  0.37678244  0.74848130  0.65334881  1
  O  O159  1  0.37665198  0.74095788  0.90916450  1
  O  O160  1  0.62622444  -0.00596862  0.16424291  1
  O  O161  1  0.62620569  -0.00647294  0.41143521  1
  O  O162  1  0.62459959  0.00191010  0.65864264  1
  O  O163  1  0.62739127  -0.00270244  0.91131800  1
  O  O164  1  0.62724719  0.25052295  0.16697368  1
  O  O165  1  0.62464406  0.25118041  0.41414881  1
  O  O166  1  0.62343417  0.25275795  0.65628269  1
  O  O167  1  0.62698280  0.25939510  0.90832250  1
  O  O168  1  0.62632035  0.50270222  0.16758907  1
  O  O169  1  0.62653057  0.50990463  0.41663469  1
  O  O170  1  0.62501833  0.50213619  0.66053542  1
  O  O171  1  0.62324739  0.50363312  0.91702550  1
  O  O172  1  0.62604523  0.75204796  0.16803078  1
  O  O173  1  0.62480181  0.74645340  0.41788611  1
  O  O174  1  0.62449789  0.74109618  0.66094503  1
  O  O175  1  0.62427307  0.74244580  0.91232426  1
  O  O176  1  0.87335925  0.00740845  0.16922174  1
  O  O177  1  0.87095197  0.00282348  0.40654507  1
  O  O178  1  0.87500341  -0.00620798  0.65927029  1
  O  O179  1  0.87641982  -0.00516664  0.91074581  1
  O  O180  1  0.87327231  0.24260870  0.16789914  1
  O  O181  1  0.87396243  0.25470449  0.40973923  1
  O  O182  1  0.87600089  0.25474331  0.65864308  1
  O  O183  1  0.87624007  0.25165731  0.91544133  1
  O  O184  1  0.87471103  0.50700488  0.16741960  1
  O  O185  1  0.87468515  0.50162448  0.41835087  1
  O  O186  1  0.87329946  0.49320697  0.65915454  1
  O  O187  1  0.87347277  0.50109786  0.91457362  1
  O  O188  1  0.87455329  0.74178562  0.16886197  1
  O  O189  1  0.87388790  0.74530753  0.41800011  1
  O  O190  1  0.87487756  0.75684850  0.65991156  1
  O  O191  1  0.87513369  0.75402384  0.90992560  1
  O  O192  1  -0.00405494  0.12408807  0.16762491  1
  O  O193  1  -0.00830416  0.12774981  0.40995690  1
  O  O194  1  0.00631223  0.12709847  0.65749003  1
  O  O195  1  0.00497354  0.12647089  0.91770846  1
  O  O196  1  0.00143603  0.37675962  0.16872098  1
  O  O197  1  -0.00985069  0.37848767  0.41684008  1
  O  O198  1  -0.00526019  0.37334705  0.65708532  1
  O  O199  1  0.00725591  0.37531039  0.91349460  1
  O  O200  1  -0.00194223  0.62550480  0.16596742  1
  O  O201  1  0.00203556  0.62452942  0.41706817  1
  O  O202  1  -0.00128685  0.62247139  0.65873526  1
  O  O203  1  -0.00011539  0.62369656  0.91039779  1
  O  O204  1  0.00473621  0.87343397  0.16669898  1
  O  O205  1  -0.00317941  0.87397977  0.41598846  1
  O  O206  1  -0.00648774  0.87766337  0.66012108  1
  O  O207  1  -0.00482928  0.87556197  0.91134837  1
  O  O208  1  0.24569705  0.12403397  0.16715748  1
  O  O209  1  0.25950908  0.13082136  0.40804158  1
  O  O210  1  0.25112234  0.12909712  0.66205521  1
  O  O211  1  0.23987074  0.12795573  0.91417868  1
  O  O212  1  0.24438205  0.37773819  0.16839909  1
  O  O213  1  0.25768552  0.37703329  0.41316644  1
  O  O214  1  0.25619809  0.37054998  0.65807587  1
  O  O215  1  0.24405412  0.37482563  0.91378073  1
  O  O216  1  0.24714858  0.62520038  0.17007922  1
  O  O217  1  0.24646181  0.62392381  0.41491356  1
  O  O218  1  0.25359740  0.62121142  0.66029077  1
  O  O219  1  0.25800123  0.62168089  0.90802772  1
  O  O220  1  0.24356870  0.87268080  0.16719864  1
  O  O221  1  0.25015497  0.87300676  0.41514409  1
  O  O222  1  0.25079191  0.88060552  0.65703650  1
  O  O223  1  0.24967783  0.87488153  0.91137458  1
  O  O224  1  0.50658544  0.12445250  0.16610105  1
  O  O225  1  0.49194264  0.12839735  0.41322491  1
  O  O226  1  0.49182551  0.12896887  0.65461315  1
  O  O227  1  0.50288292  0.12801077  0.91369873  1
  O  O228  1  0.50530623  0.37783393  0.16662501  1
  O  O229  1  0.49178762  0.37998833  0.41482041  1
  O  O230  1  0.49432439  0.37360984  0.66018555  1
  O  O231  1  0.50736197  0.37999556  0.91535664  1
  O  O232  1  0.50172690  0.62546893  0.16760853  1
  O  O233  1  0.50484028  0.62416639  0.41476259  1
  O  O234  1  0.50553511  0.62010717  0.65943774  1
  O  O235  1  0.49941381  0.62330231  0.91557039  1
  O  O236  1  0.50793717  0.87167976  0.16548292  1
  O  O237  1  0.50741997  0.87186361  0.41618660  1
  O  O238  1  0.49913517  0.87700687  0.66156553  1
  O  O239  1  0.50024885  0.87100075  0.91159120  1
  O  O240  1  0.75029052  0.12399010  0.16950850  1
  O  O241  1  0.75630913  0.12752562  0.41504978  1
  O  O242  1  0.75095096  0.12673746  0.66009039  1
  O  O243  1  0.75197700  0.12595676  0.91426297  1
  O  O244  1  0.74739217  0.37693998  0.16939595  1
  O  O245  1  0.75922085  0.38019436  0.41640226  1
  O  O246  1  0.75455847  0.37461424  0.65583439  1
  O  O247  1  0.74191723  0.38099017  0.91277895  1
  O  O248  1  0.75154487  0.62564805  0.16665170  1
  O  O249  1  0.74604002  0.62679240  0.41748107  1
  O  O250  1  0.74253975  0.62324689  0.66322949  1
  O  O251  1  0.74401981  0.62439515  0.91152158  1
  O  O252  1  0.74309417  0.87271864  0.16845522  1
  O  O253  1  0.74516999  0.86936224  0.41433696  1
  O  O254  1  0.75645224  0.87315408  0.65882211  1
  O  O255  1  0.75582169  0.87210894  0.91058485  1
  O  O256  1  0.12105996  0.12364240  0.05375483  1
  O  O257  1  0.11991017  0.12529197  0.28118208  1
  O  O258  1  0.12809136  0.12975841  0.54404504  1
  O  O259  1  0.12125777  0.12562556  0.79803592  1
  O  O260  1  0.12434987  0.37772428  0.05049632  1
  O  O261  1  0.11859693  0.37997530  0.29454189  1
  O  O262  1  0.12380663  0.36756632  0.52723681  1
  O  O263  1  0.12569776  0.37215877  0.79568565  1
  O  O264  1  0.12716251  0.62486832  0.04915424  1
  O  O265  1  0.12378746  0.62385062  0.30287013  1
  O  O266  1  0.12660906  0.62146956  0.53321062  1
  O  O267  1  0.12577699  0.62168854  0.77808004  1
  O  O268  1  0.12453368  0.87413570  0.05130416  1
  O  O269  1  0.12213566  0.87307688  0.28860278  1
  O  O270  1  0.12229494  0.88367993  0.53420363  1
  O  O271  1  0.12452217  0.88154993  0.77726330  1
  O  O272  1  0.37422095  0.12972035  0.03701061  1
  O  O273  1  0.37934498  0.12508689  0.29330714  1
  O  O274  1  0.36871087  0.12806616  0.54469437  1
  O  O275  1  0.37473401  0.13518593  0.78308921  1
  O  O276  1  0.37174818  0.38123169  0.03753433  1
  O  O277  1  0.37545608  0.37806381  0.29647907  1
  O  O278  1  0.37601471  0.37229906  0.54480454  1
  O  O279  1  0.37892779  0.37331503  0.78706318  1
  O  O280  1  0.37319607  0.62482499  0.05128342  1
  O  O281  1  0.37582215  0.62319287  0.30446978  1
  O  O282  1  0.37213846  0.61644821  0.52828729  1
  O  O283  1  0.38000764  0.61899920  0.79440583  1
  O  O284  1  0.37077967  0.86866876  0.03914757  1
  O  O285  1  0.37731335  0.86782806  0.29043739  1
  O  O286  1  0.38278050  0.87964921  0.52753600  1
  O  O287  1  0.37644927  0.87712627  0.77918146  1
  O  O288  1  0.62978991  0.12431032  0.05049986  1
  O  O289  1  0.63084965  0.12558463  0.29059311  1
  O  O290  1  0.63224517  0.12458743  0.52780266  1
  O  O291  1  0.62800815  0.12626941  0.78002665  1
  O  O292  1  0.62711055  0.37621982  0.04931030  1
  O  O293  1  0.62789252  0.38241114  0.29569761  1
  O  O294  1  0.61917612  0.38004135  0.52584358  1
  O  O295  1  0.62129367  0.37929796  0.79561220  1
  O  O296  1  0.62664905  0.62897765  0.04913353  1
  O  O297  1  0.62571885  0.62692105  0.30081108  1
  O  O298  1  0.62609920  0.62256909  0.54435316  1
  O  O299  1  0.62326790  0.62178439  0.79844630  1
  O  O300  1  0.62853139  0.87002350  0.04915938  1
  O  O301  1  0.62509468  0.87095754  0.30181313  1
  O  O302  1  0.61822929  0.87282595  0.53615288  1
  O  O303  1  0.62446279  0.87186836  0.77779830  1
  O  O304  1  0.87596840  0.12524490  0.05204578  1
  O  O305  1  0.87115810  0.12542105  0.29794765  1
  O  O306  1  0.86802595  0.12340296  0.53339500  1
  O  O307  1  0.88146934  0.13000930  0.78082403  1
  O  O308  1  0.87332592  0.37482257  0.03951670  1
  O  O309  1  0.87431742  0.37836480  0.29837855  1
  O  O310  1  0.87539949  0.37432976  0.54296760  1
  O  O311  1  0.87715526  0.37484118  0.78446500  1
  O  O312  1  0.87621609  0.62503074  0.05079015  1
  O  O313  1  0.87396183  0.62385562  0.30335528  1
  O  O314  1  0.86877962  0.62202125  0.53661922  1
  O  O315  1  0.86908126  0.61985706  0.77757429  1
  O  O316  1  0.87290816  0.87221689  0.04447494  1
  O  O317  1  0.87582379  0.86605813  0.28275479  1
  O  O318  1  0.87557471  0.87478979  0.54195644  1
  O  O319  1  0.87586733  0.87578047  0.79462930  1
