# generated using pymatgen
data_VFe(PbO3)2
_symmetry_space_group_name_H-M   'P 1'
_cell_length_a   15.39777089
_cell_length_b   15.38384146
_cell_length_c   18.51002899
_cell_angle_alpha   90.00666966
_cell_angle_beta   89.98149677
_cell_angle_gamma   90.01633545
_symmetry_Int_Tables_number   1
_chemical_formula_structural   VFe(PbO3)2
_chemical_formula_sum   'V32 Fe32 Pb64 O192'
_cell_volume   4384.59722523
_cell_formula_units_Z   32
loop_
 _symmetry_equiv_pos_site_id
 _symmetry_equiv_pos_as_xyz
  1  'x, y, z'
loop_
 _atom_site_type_symbol
 _atom_site_label
 _atom_site_symmetry_multiplicity
 _atom_site_fract_x
 _atom_site_fract_y
 _atom_site_fract_z
 _atom_site_occupancy
  V  V0  1  0.86985936  0.87311413  0.38805925  1
  V  V1  1  0.12493870  0.12736126  0.89111455  1
  V  V2  1  0.87297345  0.12127343  0.89464042  1
  V  V3  1  0.37171835  0.12634367  0.13601648  1
  V  V4  1  0.88743974  0.61590381  0.88632052  1
  V  V5  1  0.12286687  0.62612978  0.63652539  1
  V  V6  1  0.87733894  0.87424637  0.89009629  1
  V  V7  1  0.88084718  0.62505212  0.13648042  1
  V  V8  1  0.61328583  0.12369591  0.90420579  1
  V  V9  1  0.62747091  0.37476147  0.38311896  1
  V  V10  1  0.87369067  0.62293989  0.39197721  1
  V  V11  1  0.12551846  0.87923767  0.88979480  1
  V  V12  1  0.87865253  0.87522166  0.13760425  1
  V  V13  1  0.62386528  0.87609904  0.64314175  1
  V  V14  1  0.62661646  0.62336126  0.38540890  1
  V  V15  1  0.12172656  0.12556940  0.38591788  1
  V  V16  1  0.12466405  0.38078461  0.88546376  1
  V  V17  1  0.36842760  0.12195111  0.89374501  1
  V  V18  1  0.87352587  0.37286093  0.64261388  1
  V  V19  1  0.62397511  0.37316811  0.64552977  1
  V  V20  1  0.62366757  0.12637496  0.64370311  1
  V  V21  1  0.12665622  0.12648860  0.14296624  1
  V  V22  1  0.12031026  0.12524448  0.63697249  1
  V  V23  1  0.37818227  0.12320405  0.64040455  1
  V  V24  1  0.37486430  0.87640109  0.63907844  1
  V  V25  1  0.37445409  0.87514206  0.89546350  1
  V  V26  1  0.37539166  0.12439256  0.38566763  1
  V  V27  1  0.12568045  0.37767799  0.14141957  1
  V  V28  1  0.12419458  0.62702669  0.14367445  1
  V  V29  1  0.60872558  0.62737489  0.89933219  1
  V  V30  1  0.87406930  0.87681765  0.64113412  1
  V  V31  1  0.62539736  0.87219489  0.38489614  1
  Fe  Fe32  1  0.62675652  0.62410679  0.64031853  1
  Fe  Fe33  1  0.37768386  0.62606602  0.37864948  1
  Fe  Fe34  1  0.86995227  0.37582924  0.38093757  1
  Fe  Fe35  1  0.87868014  0.36919447  0.89681217  1
  Fe  Fe36  1  0.37272455  0.37389334  0.14079479  1
  Fe  Fe37  1  0.12432385  0.87474939  0.38725348  1
  Fe  Fe38  1  0.37304784  0.87607025  0.14091178  1
  Fe  Fe39  1  0.12487574  0.87709589  0.63081262  1
  Fe  Fe40  1  0.12499003  0.62528526  0.38278473  1
  Fe  Fe41  1  0.37806980  0.62564721  0.63803917  1
  Fe  Fe42  1  0.37802790  0.87523274  0.37838541  1
  Fe  Fe43  1  0.62773505  0.87289517  0.12505134  1
  Fe  Fe44  1  0.37874475  0.37457840  0.37982901  1
  Fe  Fe45  1  0.36593243  0.62601012  0.88629712  1
  Fe  Fe46  1  0.87938250  0.37735650  0.12947389  1
  Fe  Fe47  1  0.12316566  0.87605632  0.14320245  1
  Fe  Fe48  1  0.12299458  0.37287955  0.63002342  1
  Fe  Fe49  1  0.12348049  0.63051092  0.88378032  1
  Fe  Fe50  1  0.62548283  0.37702247  0.12528254  1
  Fe  Fe51  1  0.88059720  0.12484119  0.13957609  1
  Fe  Fe52  1  0.62609011  0.37518121  0.89722412  1
  Fe  Fe53  1  0.37121467  0.62446164  0.13703919  1
  Fe  Fe54  1  0.12374455  0.37562841  0.39081838  1
  Fe  Fe55  1  0.62575290  0.87467030  0.90057095  1
  Fe  Fe56  1  0.87081541  0.12378829  0.37855353  1
  Fe  Fe57  1  0.37476444  0.37233553  0.63758328  1
  Fe  Fe58  1  0.62282618  0.12504072  0.37824368  1
  Fe  Fe59  1  0.86956981  0.62491719  0.63878766  1
  Fe  Fe60  1  0.62502901  0.62511077  0.12149904  1
  Fe  Fe61  1  0.37137222  0.37285759  0.88511394  1
  Fe  Fe62  1  0.62601510  0.12572842  0.12716615  1
  Fe  Fe63  1  0.86688860  0.12480462  0.63799622  1
  Pb  Pb64  1  0.00165720  0.00343530  0.00701890  1
  Pb  Pb65  1  0.00176310  -0.00134160  0.25321715  1
  Pb  Pb66  1  -0.00034024  -0.00158736  0.49840697  1
  Pb  Pb67  1  -0.00328469  0.00104889  0.74778767  1
  Pb  Pb68  1  -0.00773090  0.24503966  0.01070786  1
  Pb  Pb69  1  -0.00519247  0.26058275  0.25269424  1
  Pb  Pb70  1  -0.00454208  0.25220525  0.49457429  1
  Pb  Pb71  1  -0.01054123  0.25764044  0.75543914  1
  Pb  Pb72  1  0.00168562  0.49479482  0.00192148  1
  Pb  Pb73  1  0.00834556  0.49581116  0.25676850  1
  Pb  Pb74  1  0.00363915  0.49389675  0.49737208  1
  Pb  Pb75  1  0.00090901  0.50183751  0.74728466  1
  Pb  Pb76  1  0.00820618  0.76108358  0.00280956  1
  Pb  Pb77  1  0.00907335  0.74767797  0.25685346  1
  Pb  Pb78  1  0.00314459  0.75219663  0.49901479  1
  Pb  Pb79  1  0.00416834  0.74592659  0.74889645  1
  Pb  Pb80  1  0.24514449  -0.01171648  0.00916845  1
  Pb  Pb81  1  0.25019445  -0.01095459  0.25314659  1
  Pb  Pb82  1  0.24785281  -0.00481304  0.49494293  1
  Pb  Pb83  1  0.24900359  0.00151230  0.74651998  1
  Pb  Pb84  1  0.25294473  0.25396253  0.00246428  1
  Pb  Pb85  1  0.24782057  0.26022044  0.25605895  1
  Pb  Pb86  1  0.25405529  0.26344731  0.49987992  1
  Pb  Pb87  1  0.25263785  0.25491229  0.74571467  1
  Pb  Pb88  1  0.25894311  0.50742050  0.00035277  1
  Pb  Pb89  1  0.25753082  0.50281800  0.25518727  1
  Pb  Pb90  1  0.25718565  0.50215258  0.49108763  1
  Pb  Pb91  1  0.25456942  0.50000203  0.74433740  1
  Pb  Pb92  1  0.25214062  0.74955485  0.00662570  1
  Pb  Pb93  1  0.25909167  0.75190491  0.25326451  1
  Pb  Pb94  1  0.25551856  0.74754696  0.48918063  1
  Pb  Pb95  1  0.24675561  0.73924810  0.75137480  1
  Pb  Pb96  1  0.49777151  -0.01114437  0.00989256  1
  Pb  Pb97  1  0.50881500  0.00110515  0.23913744  1
  Pb  Pb98  1  0.50203756  0.00072801  0.49307075  1
  Pb  Pb99  1  0.50700442  -0.00518589  0.75930961  1
  Pb  Pb100  1  0.49563103  0.26055861  0.00495787  1
  Pb  Pb101  1  0.50554983  0.25427059  0.23989245  1
  Pb  Pb102  1  0.49836407  0.25731010  0.49706723  1
  Pb  Pb103  1  0.50006180  0.25853713  0.75874778  1
  Pb  Pb104  1  0.48607857  0.48725011  0.00349260  1
  Pb  Pb105  1  0.49751170  0.50322686  0.23620961  1
  Pb  Pb106  1  0.49104752  0.50376866  0.49790242  1
  Pb  Pb107  1  0.49115154  0.50036296  0.75231264  1
  Pb  Pb108  1  0.48127371  0.74888451  0.01411437  1
  Pb  Pb109  1  0.49731777  0.74855143  0.23660302  1
  Pb  Pb110  1  0.49704141  0.74041672  0.49787818  1
  Pb  Pb111  1  0.49863874  0.74687566  0.75275426  1
  Pb  Pb112  1  0.74818767  0.00557289  0.00824614  1
  Pb  Pb113  1  0.74632315  0.01384023  0.24501943  1
  Pb  Pb114  1  0.75259171  0.00587349  0.49726121  1
  Pb  Pb115  1  0.74124166  -0.00423685  0.75878545  1
  Pb  Pb116  1  0.74654048  0.25027492  0.00625977  1
  Pb  Pb117  1  0.75503258  0.24960589  0.23530589  1
  Pb  Pb118  1  0.75476726  0.24273909  0.49305429  1
  Pb  Pb119  1  0.74710694  0.25875268  0.76344167  1
  Pb  Pb120  1  0.74078796  0.49635256  0.00286824  1
  Pb  Pb121  1  0.75291848  0.49254614  0.23754044  1
  Pb  Pb122  1  0.74546147  0.50827190  0.50421738  1
  Pb  Pb123  1  0.74453908  0.49277970  0.75903465  1
  Pb  Pb124  1  0.74717363  0.74638759  0.00118218  1
  Pb  Pb125  1  0.74707096  0.74845879  0.24039422  1
  Pb  Pb126  1  0.74760867  0.74171428  0.50632223  1
  Pb  Pb127  1  0.74405901  0.75006384  0.75514670  1
  O  O128  1  0.12378941  0.00809452  0.16620371  1
  O  O129  1  0.12506140  0.00783936  0.41380683  1
  O  O130  1  0.12584040  0.00458095  0.66559206  1
  O  O131  1  0.12712843  0.00195419  0.91882468  1
  O  O132  1  0.12596318  0.25196581  0.16418979  1
  O  O133  1  0.12696463  0.23907156  0.41403577  1
  O  O134  1  0.12545973  0.24029484  0.66005586  1
  O  O135  1  0.12994356  0.24137551  0.91188257  1
  O  O136  1  0.12180607  0.49735036  0.16477297  1
  O  O137  1  0.12161626  0.50256184  0.41606782  1
  O  O138  1  0.12062989  0.50564870  0.65763063  1
  O  O139  1  0.11991994  0.49577011  0.90247331  1
  O  O140  1  0.12017351  0.74385574  0.16155811  1
  O  O141  1  0.11976218  0.75006818  0.41434105  1
  O  O142  1  0.12180241  0.74895550  0.65876267  1
  O  O143  1  0.12369160  0.76002585  0.91313957  1
  O  O144  1  0.36979403  0.01030542  0.16083931  1
  O  O145  1  0.37955958  0.00442421  0.41181051  1
  O  O146  1  0.37813289  -0.00277628  0.67005327  1
  O  O147  1  0.37493098  -0.00269016  0.92235673  1
  O  O148  1  0.36926122  0.24227303  0.16374368  1
  O  O149  1  0.37852466  0.24254815  0.41160463  1
  O  O150  1  0.37709654  0.24305065  0.66697341  1
  O  O151  1  0.36939131  0.24391461  0.91717540  1
  O  O152  1  0.36997497  0.49969054  0.16101644  1
  O  O153  1  0.38032229  0.49987909  0.40895480  1
  O  O154  1  0.37524396  0.49926669  0.66429827  1
  O  O155  1  0.36978121  0.49931979  0.91192108  1
  O  O156  1  0.36917113  0.74917014  0.16248115  1
  O  O157  1  0.37938563  0.75195678  0.41048519  1
  O  O158  1  0.37624229  0.76022809  0.66288620  1
  O  O159  1  0.36957416  0.75730894  0.91648985  1
  O  O160  1  0.62548847  -0.00134978  0.15233432  1
  O  O161  1  0.62657090  -0.00924601  0.40955158  1
  O  O162  1  0.62270778  0.00042412  0.67278224  1
  O  O163  1  0.62636839  0.00563445  0.92194759  1
  O  O164  1  0.62538562  0.25050911  0.15267326  1
  O  O165  1  0.62536938  0.25640390  0.40433958  1
  O  O166  1  0.62465134  0.25199502  0.67209714  1
  O  O167  1  0.62917516  0.24135440  0.91762584  1
  O  O168  1  0.62798841  0.50325518  0.15270068  1
  O  O169  1  0.62633564  0.49993556  0.41081301  1
  O  O170  1  0.62782474  0.49097867  0.66838348  1
  O  O171  1  0.63022274  0.51051379  0.91400682  1
  O  O172  1  0.63188327  0.74819919  0.15512047  1
  O  O173  1  0.62890700  0.75306166  0.41153332  1
  O  O174  1  0.62560093  0.75565161  0.67026936  1
  O  O175  1  0.63842275  0.74333620  0.91199500  1
  O  O176  1  0.88098468  -0.00908724  0.15887442  1
  O  O177  1  0.86992160  -0.00685597  0.41061320  1
  O  O178  1  0.87145531  -0.00385370  0.66916582  1
  O  O179  1  0.88263855  0.00262690  0.91955851  1
  O  O180  1  0.88012857  0.25271963  0.15716915  1
  O  O181  1  0.87013057  0.24893878  0.40918810  1
  O  O182  1  0.87227458  0.25284913  0.66777021  1
  O  O183  1  0.88327219  0.23800158  0.91856500  1
  O  O184  1  0.88287123  0.50718055  0.15815265  1
  O  O185  1  0.86937274  0.50663660  0.41276356  1
  O  O186  1  0.87233466  0.49111752  0.66703558  1
  O  O187  1  0.89707662  0.50109200  0.89933489  1
  O  O188  1  0.88135389  0.74692521  0.16413555  1
  O  O189  1  0.87034450  0.75196986  0.41566026  1
  O  O190  1  0.87093096  0.75980596  0.66547283  1
  O  O191  1  0.88436621  0.76112104  0.90954853  1
  O  O192  1  0.01016057  0.12777007  0.16736308  1
  O  O193  1  0.00364202  0.12301554  0.40533455  1
  O  O194  1  0.00335891  0.12112657  0.65976527  1
  O  O195  1  0.00807496  0.12151433  0.91632366  1
  O  O196  1  0.00746576  0.37481733  0.16366450  1
  O  O197  1  -0.00548612  0.37361873  0.41462081  1
  O  O198  1  -0.00568977  0.37161571  0.66265744  1
  O  O199  1  0.01444286  0.36476462  0.91764308  1
  O  O200  1  0.00078518  0.62373751  0.17004289  1
  O  O201  1  -0.01077641  0.62758316  0.41304730  1
  O  O202  1  0.00021920  0.62709503  0.66284552  1
  O  O203  1  0.00008283  0.63286069  0.91950469  1
  O  O204  1  -0.00531966  0.87162014  0.16926513  1
  O  O205  1  -0.01132680  0.87586941  0.41270201  1
  O  O206  1  -0.00662219  0.87929558  0.66128450  1
  O  O207  1  0.00044098  0.88318787  0.91605054  1
  O  O208  1  0.24575679  0.12767405  0.16796714  1
  O  O209  1  0.25491719  0.12226844  0.40920201  1
  O  O210  1  0.25041014  0.12111046  0.66324140  1
  O  O211  1  0.24660923  0.11900226  0.91945565  1
  O  O212  1  0.24206108  0.37430544  0.16594009  1
  O  O213  1  0.25298786  0.37186672  0.41132887  1
  O  O214  1  0.24623399  0.37112584  0.66024996  1
  O  O215  1  0.23880097  0.37141896  0.91335860  1
  O  O216  1  0.23903193  0.62141764  0.16184279  1
  O  O217  1  0.25163835  0.62577836  0.40912948  1
  O  O218  1  0.24274286  0.62823430  0.65895758  1
  O  O219  1  0.24301834  0.62790182  0.91727920  1
  O  O220  1  0.24685590  0.87798771  0.16563458  1
  O  O221  1  0.25205667  0.87849317  0.41039944  1
  O  O222  1  0.25603574  0.88053064  0.65659058  1
  O  O223  1  0.25134630  0.87974007  0.91735695  1
  O  O224  1  0.49119068  0.12584819  0.15183057  1
  O  O225  1  0.49737796  0.12356678  0.41209023  1
  O  O226  1  0.50216142  0.12414799  0.67331616  1
  O  O227  1  0.49584634  0.12351816  0.92008718  1
  O  O228  1  0.50050219  0.37399904  0.15781173  1
  O  O229  1  0.50897088  0.37506039  0.41065614  1
  O  O230  1  0.50633040  0.37217384  0.66685209  1
  O  O231  1  0.49687520  0.37260439  0.91444884  1
  O  O232  1  0.50067587  0.62802160  0.14895863  1
  O  O233  1  0.50695405  0.62741037  0.41020890  1
  O  O234  1  0.50278881  0.62646998  0.67132844  1
  O  O235  1  0.49533036  0.63219954  0.90939790  1
  O  O236  1  0.50187937  0.87404407  0.15489827  1
  O  O237  1  0.50872178  0.87402636  0.40712711  1
  O  O238  1  0.49768361  0.87752582  0.67008937  1
  O  O239  1  0.49315782  0.87411741  0.91765544  1
  O  O240  1  0.75267488  0.12237703  0.15522654  1
  O  O241  1  0.74533858  0.12167744  0.41140726  1
  O  O242  1  0.74179006  0.12453469  0.67176301  1
  O  O243  1  0.75866848  0.12097635  0.91291253  1
  O  O244  1  0.75332386  0.37915847  0.15029687  1
  O  O245  1  0.74194396  0.37816603  0.41182016  1
  O  O246  1  0.74982053  0.37130337  0.67163658  1
  O  O247  1  0.75444949  0.37552818  0.91667755  1
  O  O248  1  0.76275074  0.62581924  0.15323623  1
  O  O249  1  0.75010488  0.62776437  0.41818310  1
  O  O250  1  0.74890788  0.62485955  0.67675167  1
  O  O251  1  0.78024197  0.62445026  0.91753786  1
  O  O252  1  0.76115777  0.87001605  0.15648512  1
  O  O253  1  0.74988164  0.87309444  0.41491479  1
  O  O254  1  0.74980309  0.87860386  0.66955597  1
  O  O255  1  0.76287964  0.88195080  0.91446813  1
  O  O256  1  0.12805277  0.12628528  0.05151267  1
  O  O257  1  0.12525185  0.12587725  0.29506270  1
  O  O258  1  0.12280522  0.12166355  0.54611037  1
  O  O259  1  0.12570808  0.12379773  0.80009692  1
  O  O260  1  0.12591421  0.37921296  0.05008526  1
  O  O261  1  0.12011862  0.37205019  0.28968998  1
  O  O262  1  0.11920626  0.36737050  0.53023529  1
  O  O263  1  0.12182247  0.37134134  0.79385711  1
  O  O264  1  0.11860211  0.62207607  0.05225961  1
  O  O265  1  0.11829529  0.62347069  0.28277582  1
  O  O266  1  0.11943997  0.62810841  0.54577580  1
  O  O267  1  0.12238582  0.63432147  0.78362954  1
  O  O268  1  0.12048423  0.88005232  0.04212231  1
  O  O269  1  0.11835420  0.87951408  0.28607573  1
  O  O270  1  0.11669464  0.88539432  0.53170908  1
  O  O271  1  0.12665287  0.88075820  0.79832757  1
  O  O272  1  0.36361786  0.12768338  0.04487914  1
  O  O273  1  0.37758338  0.12474252  0.29538178  1
  O  O274  1  0.38212078  0.12013454  0.54976579  1
  O  O275  1  0.36986434  0.11958359  0.80289907  1
  O  O276  1  0.37318739  0.37206140  0.03790179  1
  O  O277  1  0.37468837  0.37172774  0.27931417  1
  O  O278  1  0.38283019  0.36657475  0.53703511  1
  O  O279  1  0.37278453  0.36880982  0.78450669  1
  O  O280  1  0.36390014  0.63128323  0.03392356  1
  O  O281  1  0.37274469  0.62493944  0.27761718  1
  O  O282  1  0.38534607  0.62666528  0.53776652  1
  O  O283  1  0.36399899  0.63042489  0.78492135  1
  O  O284  1  0.37296092  0.87132473  0.03802237  1
  O  O285  1  0.37265949  0.87445900  0.27802374  1
  O  O286  1  0.38334508  0.88066966  0.54857505  1
  O  O287  1  0.37260242  0.87750288  0.80458456  1
  O  O288  1  0.63408343  0.12548454  0.02483446  1
  O  O289  1  0.62351430  0.11656687  0.27861032  1
  O  O290  1  0.62172779  0.12577569  0.55261051  1
  O  O291  1  0.61949643  0.12124307  0.81209607  1
  O  O292  1  0.62313553  0.37735850  0.02262909  1
  O  O293  1  0.62810478  0.37869660  0.29202303  1
  O  O294  1  0.62784318  0.36950946  0.55514150  1
  O  O295  1  0.62969484  0.37022596  0.79472177  1
  O  O296  1  0.63466347  0.62793069  0.01873007  1
  O  O297  1  0.63138313  0.62493889  0.29468881  1
  O  O298  1  0.63253987  0.62526605  0.54004780  1
  O  O299  1  0.62461534  0.62597010  0.80771494  1
  O  O300  1  0.62938815  0.87293613  0.02330053  1
  O  O301  1  0.63070125  0.87095342  0.29409997  1
  O  O302  1  0.62352752  0.87777209  0.55247358  1
  O  O303  1  0.62492315  0.88384190  0.79917906  1
  O  O304  1  0.88730969  0.12188744  0.03810960  1
  O  O305  1  0.86862481  0.11933622  0.27814174  1
  O  O306  1  0.86253830  0.12330602  0.53875266  1
  O  O307  1  0.87944226  0.12038192  0.80299418  1
  O  O308  1  0.89061992  0.37773937  0.02685860  1
  O  O309  1  0.87389883  0.37855277  0.28113650  1
  O  O310  1  0.86889904  0.37236238  0.55197659  1
  O  O311  1  0.88054780  0.35970021  0.79489511  1
  O  O312  1  0.89119377  0.62811023  0.04613897  1
  O  O313  1  0.87003203  0.62566194  0.30131812  1
  O  O314  1  0.86025066  0.62581850  0.53944910  1
  O  O315  1  0.88778601  0.62929440  0.79431832  1
  O  O316  1  0.88420595  0.87175041  0.04611169  1
  O  O317  1  0.86879324  0.87060500  0.29756607  1
  O  O318  1  0.87049371  0.87924258  0.55015890  1
  O  O319  1  0.87877703  0.88016744  0.79864361  1
