# generated using pymatgen
data_VFe(PbO3)2
_symmetry_space_group_name_H-M   'P 1'
_cell_length_a   15.37778862
_cell_length_b   15.38688732
_cell_length_c   18.52972017
_cell_angle_alpha   89.97886911
_cell_angle_beta   89.99450472
_cell_angle_gamma   90.00436326
_symmetry_Int_Tables_number   1
_chemical_formula_structural   VFe(PbO3)2
_chemical_formula_sum   'V32 Fe32 Pb64 O192'
_cell_volume   4384.43350838
_cell_formula_units_Z   32
loop_
 _symmetry_equiv_pos_site_id
 _symmetry_equiv_pos_as_xyz
  1  'x, y, z'
loop_
 _atom_site_type_symbol
 _atom_site_label
 _atom_site_symmetry_multiplicity
 _atom_site_fract_x
 _atom_site_fract_y
 _atom_site_fract_z
 _atom_site_occupancy
  V  V0  1  0.12641387  0.62139792  0.38973126  1
  V  V1  1  0.62414498  0.37579021  0.64127588  1
  V  V2  1  0.62349958  0.87612872  0.14169339  1
  V  V3  1  0.62750600  0.12578292  0.89129501  1
  V  V4  1  0.12261378  0.37611720  0.89151082  1
  V  V5  1  0.62229982  0.37283250  0.13329330  1
  V  V6  1  0.62299468  0.12692123  0.38740804  1
  V  V7  1  0.87413522  0.12328719  0.63681330  1
  V  V8  1  0.62511533  0.87788910  0.63713075  1
  V  V9  1  0.12635484  0.87649958  0.13960262  1
  V  V10  1  0.37788149  0.87365946  0.64105885  1
  V  V11  1  0.62627354  0.87799829  0.89346894  1
  V  V12  1  0.87688856  0.62262307  0.38802979  1
  V  V13  1  0.87347296  0.62325070  0.89135521  1
  V  V14  1  0.37601730  0.62822550  0.64076654  1
  V  V15  1  0.12890527  0.12334005  0.88613104  1
  V  V16  1  0.62518180  0.12620179  0.63852201  1
  V  V17  1  0.62437404  0.61941796  0.38774587  1
  V  V18  1  0.12310655  0.12310614  0.13828285  1
  V  V19  1  0.62792622  0.38298796  0.88896285  1
  V  V20  1  0.62499345  0.37569619  0.39014077  1
  V  V21  1  0.62362646  0.12510043  0.14141713  1
  V  V22  1  0.87242673  0.87277105  0.63469474  1
  V  V23  1  0.87699742  0.12351949  0.89235115  1
  V  V24  1  0.37333011  0.12194241  0.14283064  1
  V  V25  1  0.37361414  0.37701281  0.39333937  1
  V  V26  1  0.87427553  0.87461025  0.89075309  1
  V  V27  1  0.37605550  0.12471307  0.64058699  1
  V  V28  1  0.12662544  0.12681918  0.39042271  1
  V  V29  1  0.37508464  0.62493366  0.88990946  1
  V  V30  1  0.37308657  0.62375446  0.38894957  1
  V  V31  1  0.12401996  0.37647673  0.39335912  1
  Fe  Fe32  1  0.12349503  0.62636076  0.63419429  1
  Fe  Fe33  1  0.62489757  0.62586282  0.12708679  1
  Fe  Fe34  1  0.87694624  0.12925382  0.38340781  1
  Fe  Fe35  1  0.37786960  0.37777681  0.64423440  1
  Fe  Fe36  1  0.87506884  0.87721990  0.14251921  1
  Fe  Fe37  1  0.37683206  0.12347362  0.88168309  1
  Fe  Fe38  1  0.62545170  0.63258611  0.89664567  1
  Fe  Fe39  1  0.12129765  0.87821108  0.88443658  1
  Fe  Fe40  1  0.37568009  0.37131463  0.12902309  1
  Fe  Fe41  1  0.87303957  0.62631391  0.63378975  1
  Fe  Fe42  1  0.12556835  0.87646530  0.63641303  1
  Fe  Fe43  1  0.87270913  0.37368169  0.89538411  1
  Fe  Fe44  1  0.12545812  0.62293032  0.12485303  1
  Fe  Fe45  1  0.62430446  0.87014097  0.38125865  1
  Fe  Fe46  1  0.87433556  0.12361162  0.14117325  1
  Fe  Fe47  1  0.12563329  0.37354177  0.63582380  1
  Fe  Fe48  1  0.37493451  0.62628624  0.13103651  1
  Fe  Fe49  1  0.12474441  0.12617390  0.63417720  1
  Fe  Fe50  1  0.12459777  0.62855789  0.89450324  1
  Fe  Fe51  1  0.87468888  0.62523278  0.13283597  1
  Fe  Fe52  1  0.87479370  0.87319778  0.38073723  1
  Fe  Fe53  1  0.37424935  0.12974413  0.38706280  1
  Fe  Fe54  1  0.62467037  0.62736454  0.63804202  1
  Fe  Fe55  1  0.87605546  0.37496112  0.39066993  1
  Fe  Fe56  1  0.87549602  0.37118029  0.12655472  1
  Fe  Fe57  1  0.37498304  0.87408781  0.38345388  1
  Fe  Fe58  1  0.12784192  0.36905023  0.12706636  1
  Fe  Fe59  1  0.37763468  0.37348769  0.88556861  1
  Fe  Fe60  1  0.37463138  0.87728295  0.88340474  1
  Fe  Fe61  1  0.12605322  0.87200511  0.38491546  1
  Fe  Fe62  1  0.87251529  0.37483564  0.63388726  1
  Fe  Fe63  1  0.37469917  0.87644000  0.14012977  1
  Pb  Pb64  1  -0.01015012  0.00041487  0.00520344  1
  Pb  Pb65  1  -0.00316119  -0.00411534  0.25400724  1
  Pb  Pb66  1  0.00241194  -0.00486928  0.49368164  1
  Pb  Pb67  1  0.00696038  -0.00402077  0.74636590  1
  Pb  Pb68  1  0.00015118  0.25403699  0.00332492  1
  Pb  Pb69  1  -0.01051598  0.25633956  0.24906436  1
  Pb  Pb70  1  0.00664103  0.25146112  0.50387842  1
  Pb  Pb71  1  -0.00411896  0.25834498  0.74811325  1
  Pb  Pb72  1  0.00100884  0.50624237  0.00287234  1
  Pb  Pb73  1  0.00097438  0.49509967  0.23452959  1
  Pb  Pb74  1  -0.00394002  0.50516545  0.50511191  1
  Pb  Pb75  1  -0.00207417  0.50073483  0.74294344  1
  Pb  Pb76  1  0.00045202  0.74833614  0.00078575  1
  Pb  Pb77  1  -0.00132789  0.75027101  0.24416169  1
  Pb  Pb78  1  0.00563827  0.75038928  0.49932081  1
  Pb  Pb79  1  0.01461600  0.74302812  0.75396489  1
  Pb  Pb80  1  0.25639537  -0.00973033  -0.00240569  1
  Pb  Pb81  1  0.25047449  -0.00761397  0.25808321  1
  Pb  Pb82  1  0.24648979  -0.00243604  0.49675409  1
  Pb  Pb83  1  0.25468288  -0.00448876  0.74912901  1
  Pb  Pb84  1  0.25234567  0.25530773  -0.00217725  1
  Pb  Pb85  1  0.25363189  0.24675077  0.24862126  1
  Pb  Pb86  1  0.24357385  0.25326048  0.50795437  1
  Pb  Pb87  1  0.25146324  0.25408345  0.74796131  1
  Pb  Pb88  1  0.25171914  0.49619575  -0.00106170  1
  Pb  Pb89  1  0.24839674  0.49804466  0.23403664  1
  Pb  Pb90  1  0.24501403  0.49553077  0.50682087  1
  Pb  Pb91  1  0.24430103  0.50215381  0.74841649  1
  Pb  Pb92  1  0.25062437  0.75101670  -0.00369195  1
  Pb  Pb93  1  0.25095451  0.75230705  0.24487088  1
  Pb  Pb94  1  0.23992305  0.75341484  0.50256620  1
  Pb  Pb95  1  0.24133994  0.75208319  0.75373955  1
  Pb  Pb96  1  0.49448637  -0.00415989  0.00174963  1
  Pb  Pb97  1  0.49879075  -0.00722151  0.25677201  1
  Pb  Pb98  1  0.49659195  -0.00316458  0.49294720  1
  Pb  Pb99  1  0.49299019  -0.00039312  0.75376021  1
  Pb  Pb100  1  0.49503666  0.25319379  -0.00279519  1
  Pb  Pb101  1  0.49584215  0.24405160  0.25129941  1
  Pb  Pb102  1  0.49395204  0.25756224  0.50481560  1
  Pb  Pb103  1  0.49368757  0.24777142  0.75483461  1
  Pb  Pb104  1  0.49514981  0.51158861  0.00335253  1
  Pb  Pb105  1  0.49671749  0.50288683  0.24004641  1
  Pb  Pb106  1  0.49600559  0.49698061  0.50581029  1
  Pb  Pb107  1  0.49873723  0.50124735  0.75527903  1
  Pb  Pb108  1  0.48886803  0.75166428  0.00411123  1
  Pb  Pb109  1  0.49858054  0.75265005  0.24650127  1
  Pb  Pb110  1  0.50522885  0.74312560  0.49693931  1
  Pb  Pb111  1  0.50540681  0.74716296  0.75462829  1
  Pb  Pb112  1  0.75867984  -0.00005424  0.00982977  1
  Pb  Pb113  1  0.75451388  -0.00202602  0.25373743  1
  Pb  Pb114  1  0.75318311  -0.00411060  0.48982434  1
  Pb  Pb115  1  0.74922549  0.00023276  0.74821402  1
  Pb  Pb116  1  0.75736002  0.24631894  0.00532781  1
  Pb  Pb117  1  0.76132776  0.25316054  0.25316300  1
  Pb  Pb118  1  0.75679079  0.25487764  0.49987365  1
  Pb  Pb119  1  0.75441685  0.25711318  0.75409941  1
  Pb  Pb120  1  0.75324945  0.51183849  0.00557074  1
  Pb  Pb121  1  0.75497833  0.49712717  0.24032240  1
  Pb  Pb122  1  0.75744118  0.50277125  0.50548384  1
  Pb  Pb123  1  0.75559577  0.50109132  0.75006224  1
  Pb  Pb124  1  0.75988970  0.75412451  0.00667423  1
  Pb  Pb125  1  0.75026924  0.75214935  0.24598113  1
  Pb  Pb126  1  0.74926026  0.74003987  0.49695342  1
  Pb  Pb127  1  0.74396202  0.74051802  0.75337691  1
  O  O128  1  0.12990601  0.00487327  0.16837078  1
  O  O129  1  0.12712886  0.00743733  0.40854424  1
  O  O130  1  0.12356948  0.00178052  0.66361309  1
  O  O131  1  0.11830793  0.00909525  0.91323819  1
  O  O132  1  0.13070838  0.23830479  0.16163561  1
  O  O133  1  0.12719507  0.25504522  0.41521205  1
  O  O134  1  0.12641261  0.24756116  0.66924301  1
  O  O135  1  0.12020016  0.24091208  0.91282227  1
  O  O136  1  0.12623812  0.49658132  0.15339087  1
  O  O137  1  0.12718354  0.49760715  0.41810777  1
  O  O138  1  0.12618622  0.50121917  0.66477095  1
  O  O139  1  0.12463047  0.49298934  0.90823331  1
  O  O140  1  0.12503619  0.75892124  0.15504380  1
  O  O141  1  0.12565212  0.74241809  0.41321222  1
  O  O142  1  0.12628209  0.75178421  0.66610552  1
  O  O143  1  0.12179994  0.75464955  0.91827359  1
  O  O144  1  0.37668075  0.00586006  0.16725314  1
  O  O145  1  0.37558893  0.00308755  0.41374649  1
  O  O146  1  0.38040908  0.00257887  0.66245801  1
  O  O147  1  0.37735666  0.00204335  0.91656728  1
  O  O148  1  0.37804013  0.24234320  0.16353723  1
  O  O149  1  0.37626311  0.25688412  0.41968227  1
  O  O150  1  0.38107261  0.24378350  0.66291368  1
  O  O151  1  0.37949296  0.24674454  0.91109442  1
  O  O152  1  0.37717322  0.49756673  0.15780335  1
  O  O153  1  0.37547150  0.50111597  0.42189809  1
  O  O154  1  0.38003446  0.50977426  0.66767181  1
  O  O155  1  0.37669436  0.50309489  0.91027235  1
  O  O156  1  0.37585856  0.75162893  0.16332317  1
  O  O157  1  0.37627498  0.73885860  0.40964876  1
  O  O158  1  0.37838293  0.74740154  0.66550036  1
  O  O159  1  0.37646592  0.74794045  0.91118201  1
  O  O160  1  0.62155325  0.00367481  0.16718663  1
  O  O161  1  0.62298399  0.00893718  0.40562686  1
  O  O162  1  0.62529215  0.00088200  0.66681495  1
  O  O163  1  0.62978285  -0.00266139  0.91959451  1
  O  O164  1  0.61918084  0.24572544  0.16125833  1
  O  O165  1  0.62140861  0.25652455  0.41493070  1
  O  O166  1  0.62445623  0.25010618  0.66592130  1
  O  O167  1  0.62896533  0.24014111  0.91311766  1
  O  O168  1  0.62396215  0.49007422  0.15548899  1
  O  O169  1  0.62287310  0.49616619  0.41652398  1
  O  O170  1  0.62545904  0.49357647  0.66349798  1
  O  O171  1  0.62647123  0.49714727  0.90423981  1
  O  O172  1  0.62395490  0.75698821  0.15653209  1
  O  O173  1  0.62313837  0.74089271  0.41076502  1
  O  O174  1  0.62639890  0.75852842  0.66737476  1
  O  O175  1  0.62811438  0.76265955  0.92021768  1
  O  O176  1  0.87328326  0.00142420  0.17079813  1
  O  O177  1  0.87379215  0.00340906  0.40954676  1
  O  O178  1  0.87087205  0.00385223  0.66448519  1
  O  O179  1  0.87228465  0.00235182  0.91750583  1
  O  O180  1  0.87214344  0.24935940  0.16363639  1
  O  O181  1  0.87458812  0.25052673  0.41936167  1
  O  O182  1  0.86898041  0.24219299  0.66087818  1
  O  O183  1  0.86997640  0.24010763  0.91491218  1
  O  O184  1  0.87197570  0.49564294  0.15702934  1
  O  O185  1  0.87361253  0.50366455  0.41516570  1
  O  O186  1  0.87054980  0.49920687  0.66509722  1
  O  O187  1  0.87264975  0.50488123  0.91109528  1
  O  O188  1  0.87454114  0.75102672  0.16377415  1
  O  O189  1  0.87538957  0.74001016  0.40876313  1
  O  O190  1  0.86769538  0.75981778  0.65314714  1
  O  O191  1  0.87387895  0.74959422  0.91595489  1
  O  O192  1  0.00801107  0.12152603  0.15933960  1
  O  O193  1  0.00803124  0.13029551  0.41263516  1
  O  O194  1  -0.01015788  0.12475205  0.65898040  1
  O  O195  1  -0.00668357  0.12375081  0.91383391  1
  O  O196  1  0.00183096  0.36860886  0.15443571  1
  O  O197  1  0.00743119  0.37735349  0.41401530  1
  O  O198  1  -0.00231572  0.37191379  0.66279355  1
  O  O199  1  0.00441202  0.36896968  0.91420579  1
  O  O200  1  0.00222725  0.62525902  0.16046276  1
  O  O201  1  -0.00221654  0.61979808  0.41180826  1
  O  O202  1  -0.00306026  0.62770205  0.66352007  1
  O  O203  1  -0.00812279  0.62532089  0.91364569  1
  O  O204  1  0.00852789  0.88214889  0.16306080  1
  O  O205  1  -0.00022451  0.87377230  0.41311459  1
  O  O206  1  -0.01200849  0.88056834  0.65789769  1
  O  O207  1  -0.00678745  0.87858203  0.91585188  1
  O  O208  1  0.25430737  0.12332393  0.16454939  1
  O  O209  1  0.24474716  0.13093509  0.41541301  1
  O  O210  1  0.25944479  0.12353918  0.66062687  1
  O  O211  1  0.24425875  0.12429778  0.90295512  1
  O  O212  1  0.25219092  0.36856585  0.16085810  1
  O  O213  1  0.24816822  0.37782968  0.41814492  1
  O  O214  1  0.25252698  0.37549841  0.66762916  1
  O  O215  1  0.24438971  0.36890962  0.90925600  1
  O  O216  1  0.24797139  0.62686896  0.15816010  1
  O  O217  1  0.25460882  0.61946126  0.41288317  1
  O  O218  1  0.25851650  0.62738629  0.66405984  1
  O  O219  1  0.25703381  0.62474890  0.91186103  1
  O  O220  1  0.24485530  0.88000412  0.16491568  1
  O  O221  1  0.25107872  0.87307967  0.41585530  1
  O  O222  1  0.25714491  0.87714858  0.66202461  1
  O  O223  1  0.24814059  0.87847570  0.91207659  1
  O  O224  1  0.49992517  0.12336308  0.16797263  1
  O  O225  1  0.50657299  0.13130950  0.41632829  1
  O  O226  1  0.50136220  0.12380929  0.66503657  1
  O  O227  1  0.51062947  0.11941212  0.91247731  1
  O  O228  1  0.50499718  0.36995163  0.16089801  1
  O  O229  1  0.50234094  0.37802204  0.41875685  1
  O  O230  1  0.50820301  0.37413107  0.66946516  1
  O  O231  1  0.51167014  0.36914375  0.91248568  1
  O  O232  1  0.50341930  0.62430986  0.16150523  1
  O  O233  1  0.49610139  0.61948819  0.41393618  1
  O  O234  1  0.49773980  0.62867062  0.66866643  1
  O  O235  1  0.49534182  0.62673917  0.91469147  1
  O  O236  1  0.50472408  0.87915520  0.16544396  1
  O  O237  1  0.50069199  0.87324521  0.41440794  1
  O  O238  1  0.50175693  0.87632595  0.66585299  1
  O  O239  1  0.50744712  0.87889316  0.91275144  1
  O  O240  1  0.73886898  0.12433844  0.16403247  1
  O  O241  1  0.73962406  0.13160446  0.41131765  1
  O  O242  1  0.74990803  0.12294829  0.66606185  1
  O  O243  1  0.74951680  0.11972914  0.91745251  1
  O  O244  1  0.73993163  0.36827263  0.15667185  1
  O  O245  1  0.74116247  0.37592299  0.41301112  1
  O  O246  1  0.74269020  0.37127864  0.66630492  1
  O  O247  1  0.74059322  0.36998132  0.91813140  1
  O  O248  1  0.74625720  0.62378320  0.16205061  1
  O  O249  1  0.75144924  0.62168004  0.41051713  1
  O  O250  1  0.74864952  0.62709625  0.66940570  1
  O  O251  1  0.75559236  0.62811984  0.91667391  1
  O  O252  1  0.74163181  0.87928842  0.16419288  1
  O  O253  1  0.74870402  0.87280284  0.41138169  1
  O  O254  1  0.75191467  0.88290466  0.66341125  1
  O  O255  1  0.75118718  0.87736856  0.92038269  1
  O  O256  1  0.12800224  0.12029987  0.04743359  1
  O  O257  1  0.12772732  0.13207022  0.29960914  1
  O  O258  1  0.12630161  0.13414962  0.53441295  1
  O  O259  1  0.11984663  0.12258185  0.79522119  1
  O  O260  1  0.13072997  0.36503809  0.02657003  1
  O  O261  1  0.12729131  0.37588948  0.30278771  1
  O  O262  1  0.13025620  0.37058624  0.53518767  1
  O  O263  1  0.12138093  0.36857050  0.80029890  1
  O  O264  1  0.12075647  0.62046062  0.02286633  1
  O  O265  1  0.12590311  0.62053245  0.29911267  1
  O  O266  1  0.12502303  0.62757764  0.53356983  1
  O  O267  1  0.12536403  0.63670810  0.79286686  1
  O  O268  1  0.12751790  0.88460543  0.04870041  1
  O  O269  1  0.12987905  0.87693198  0.28518311  1
  O  O270  1  0.12543985  0.86957111  0.53543889  1
  O  O271  1  0.11915564  0.87420957  0.78381612  1
  O  O272  1  0.37578686  0.12166135  0.05165458  1
  O  O273  1  0.37558272  0.13563673  0.28793824  1
  O  O274  1  0.37899037  0.12440727  0.54944318  1
  O  O275  1  0.38318902  0.11997383  0.78196544  1
  O  O276  1  0.37269456  0.36728310  0.02841093  1
  O  O277  1  0.37496328  0.37816840  0.30259493  1
  O  O278  1  0.38494969  0.37971468  0.54368622  1
  O  O279  1  0.38490807  0.37462060  0.78474769  1
  O  O280  1  0.38108383  0.62595332  0.03044850  1
  O  O281  1  0.37512712  0.61784498  0.29832124  1
  O  O282  1  0.37752057  0.62731561  0.54978416  1
  O  O283  1  0.37817383  0.62558898  0.79868227  1
  O  O284  1  0.37567458  0.88074788  0.03892815  1
  O  O285  1  0.37396083  0.87556943  0.28254102  1
  O  O286  1  0.38027293  0.87307330  0.55002602  1
  O  O287  1  0.37658402  0.88517167  0.78358391  1
  O  O288  1  0.62088260  0.12301434  0.05042812  1
  O  O289  1  0.62018482  0.13290696  0.29637596  1
  O  O290  1  0.62589917  0.12518035  0.54795531  1
  O  O291  1  0.63032844  0.12223581  0.80027549  1
  O  O292  1  0.62004196  0.37096138  0.04246848  1
  O  O293  1  0.62250359  0.37638965  0.29963145  1
  O  O294  1  0.62261023  0.37387039  0.55012457  1
  O  O295  1  0.63056635  0.37159368  0.79779890  1
  O  O296  1  0.62487211  0.61826273  0.02539657  1
  O  O297  1  0.62324742  0.61775458  0.29701550  1
  O  O298  1  0.62580495  0.63267641  0.53834725  1
  O  O299  1  0.62493270  0.64067883  0.79535667  1
  O  O300  1  0.62181124  0.88211775  0.05038511  1
  O  O301  1  0.62077116  0.87290215  0.28200159  1
  O  O302  1  0.62514749  0.87567047  0.54626302  1
  O  O303  1  0.63086408  0.87870794  0.80260746  1
  O  O304  1  0.87084904  0.11834918  0.03979072  1
  O  O305  1  0.87393067  0.13649179  0.28307905  1
  O  O306  1  0.87035679  0.12124307  0.54587502  1
  O  O307  1  0.87518139  0.12145221  0.80153335  1
  O  O308  1  0.87359006  0.36469597  0.02482024  1
  O  O309  1  0.87375773  0.36723680  0.28991115  1
  O  O310  1  0.86640592  0.37958399  0.53336358  1
  O  O311  1  0.86842505  0.36710740  0.79477984  1
  O  O312  1  0.87303141  0.62303022  0.03223726  1
  O  O313  1  0.87597804  0.61917474  0.29711731  1
  O  O314  1  0.86997777  0.61953587  0.53331493  1
  O  O315  1  0.87052764  0.62786024  0.79996970  1
  O  O316  1  0.87192143  0.88256893  0.04109970  1
  O  O317  1  0.87635188  0.87398255  0.27996508  1
  O  O318  1  0.87007057  0.88046248  0.54337988  1
  O  O319  1  0.87082000  0.87568700  0.80004343  1
