# generated using pymatgen
data_VFe(PbO3)2
_symmetry_space_group_name_H-M   'P 1'
_cell_length_a   15.38485554
_cell_length_b   15.38453386
_cell_length_c   18.50628544
_cell_angle_alpha   90.03718011
_cell_angle_beta   90.02115973
_cell_angle_gamma   89.98562081
_symmetry_Int_Tables_number   1
_chemical_formula_structural   VFe(PbO3)2
_chemical_formula_sum   'V32 Fe32 Pb64 O192'
_cell_volume   4380.22970960
_cell_formula_units_Z   32
loop_
 _symmetry_equiv_pos_site_id
 _symmetry_equiv_pos_as_xyz
  1  'x, y, z'
loop_
 _atom_site_type_symbol
 _atom_site_label
 _atom_site_symmetry_multiplicity
 _atom_site_fract_x
 _atom_site_fract_y
 _atom_site_fract_z
 _atom_site_occupancy
  V  V0  1  0.37867707  0.12318272  0.64846609  1
  V  V1  1  0.12174785  0.87496890  0.89546079  1
  V  V2  1  0.12525759  0.38222287  0.64613822  1
  V  V3  1  0.62463491  0.11929559  0.88385377  1
  V  V4  1  0.12475052  0.87594954  0.64081693  1
  V  V5  1  0.62454019  0.37531060  0.13616986  1
  V  V6  1  0.37313517  0.87355088  0.88789451  1
  V  V7  1  0.36964660  0.62561112  0.64594829  1
  V  V8  1  0.12332147  0.37500841  0.13414444  1
  V  V9  1  0.87279024  0.87367303  0.89267400  1
  V  V10  1  0.12484055  0.13088232  0.64168832  1
  V  V11  1  0.87478776  0.62408981  0.64056543  1
  V  V12  1  0.62643230  0.12669657  0.39429232  1
  V  V13  1  0.12501991  0.37253747  0.38985871  1
  V  V14  1  0.62551849  0.38304699  0.65350575  1
  V  V15  1  0.12556286  0.87942422  0.38442051  1
  V  V16  1  0.62150604  0.62743658  0.64822008  1
  V  V17  1  0.62310351  0.62422539  0.39153140  1
  V  V18  1  0.12166585  0.62765267  0.63747438  1
  V  V19  1  0.12794142  0.12772778  0.39174579  1
  V  V20  1  0.87429474  0.87628432  0.38806907  1
  V  V21  1  0.37561603  0.12546132  0.39342011  1
  V  V22  1  0.62234398  0.12710622  0.13904272  1
  V  V23  1  0.62353852  0.87435736  0.14096939  1
  V  V24  1  0.37809546  0.12646845  0.13731509  1
  V  V25  1  0.37461945  0.87538423  0.39288557  1
  V  V26  1  0.63055532  0.12589409  0.63724550  1
  V  V27  1  0.38038528  0.62553023  0.13855664  1
  V  V28  1  0.37527995  0.37436569  0.39405718  1
  V  V29  1  0.12399320  0.62415512  0.89174335  1
  V  V30  1  0.37654191  0.37499899  0.13461189  1
  V  V31  1  0.87561440  0.12146021  0.88780575  1
  Fe  Fe32  1  0.12921302  0.87602548  0.13316561  1
  Fe  Fe33  1  0.12627368  0.12920563  0.12713967  1
  Fe  Fe34  1  0.87591221  0.37392441  0.88075591  1
  Fe  Fe35  1  0.62425927  0.87574305  0.63708368  1
  Fe  Fe36  1  0.12478259  0.12175779  0.89115146  1
  Fe  Fe37  1  0.87445683  0.87695730  0.13192525  1
  Fe  Fe38  1  0.62213428  0.37449914  0.38713929  1
  Fe  Fe39  1  0.87397102  0.37306101  0.13130807  1
  Fe  Fe40  1  0.37056790  0.87419930  0.63704766  1
  Fe  Fe41  1  0.87307385  0.12606158  0.13405811  1
  Fe  Fe42  1  0.87458462  0.37382821  0.64615880  1
  Fe  Fe43  1  0.62572889  0.62946484  0.87984686  1
  Fe  Fe44  1  0.37326281  0.37476524  0.87641465  1
  Fe  Fe45  1  0.87719083  0.12737684  0.39182537  1
  Fe  Fe46  1  0.62420566  0.87693368  0.39203737  1
  Fe  Fe47  1  0.37214367  0.62769169  0.87993517  1
  Fe  Fe48  1  0.62769755  0.37344257  0.87429223  1
  Fe  Fe49  1  0.37364461  0.37354412  0.65030322  1
  Fe  Fe50  1  0.12310375  0.37434736  0.88047349  1
  Fe  Fe51  1  0.87345162  0.62503648  0.38423979  1
  Fe  Fe52  1  0.62612303  0.87848289  0.87997869  1
  Fe  Fe53  1  0.12811166  0.62190443  0.13417610  1
  Fe  Fe54  1  0.87644684  0.62877891  0.89414802  1
  Fe  Fe55  1  0.37834886  0.87571821  0.13430563  1
  Fe  Fe56  1  0.62236657  0.62241853  0.13007142  1
  Fe  Fe57  1  0.87842261  0.12332538  0.63310125  1
  Fe  Fe58  1  0.37425561  0.12123543  0.87857553  1
  Fe  Fe59  1  0.12717255  0.62567895  0.38311363  1
  Fe  Fe60  1  0.87182543  0.37529585  0.38533704  1
  Fe  Fe61  1  0.87146246  0.62300840  0.12649510  1
  Fe  Fe62  1  0.87790544  0.87417151  0.63389037  1
  Fe  Fe63  1  0.37633097  0.62447495  0.38688361  1
  Pb  Pb64  1  -0.00542562  0.00064971  0.00711927  1
  Pb  Pb65  1  0.00059655  0.00468313  0.23876717  1
  Pb  Pb66  1  -0.00614564  0.00139303  0.50150537  1
  Pb  Pb67  1  0.00166198  0.00169652  0.75119392  1
  Pb  Pb68  1  0.00137014  0.24955507  -0.00561391  1
  Pb  Pb69  1  -0.01078959  0.24542376  0.24804942  1
  Pb  Pb70  1  -0.00877837  0.25400913  0.50437544  1
  Pb  Pb71  1  -0.00040276  0.25587534  0.75442443  1
  Pb  Pb72  1  -0.01390466  0.49420986  -0.00183322  1
  Pb  Pb73  1  -0.00731273  0.50913480  0.24370777  1
  Pb  Pb74  1  -0.00491491  0.50097194  0.49484827  1
  Pb  Pb75  1  -0.00257486  0.49316504  0.75720933  1
  Pb  Pb76  1  0.00705622  0.74878552  0.00928959  1
  Pb  Pb77  1  0.00157461  0.74624044  0.23681578  1
  Pb  Pb78  1  -0.00260475  0.75351245  0.49237428  1
  Pb  Pb79  1  -0.00732288  0.74239197  0.75437318  1
  Pb  Pb80  1  0.24832377  -0.00230764  0.00103300  1
  Pb  Pb81  1  0.24893394  -0.00042691  0.24214462  1
  Pb  Pb82  1  0.25375968  -0.00187095  0.50348770  1
  Pb  Pb83  1  0.24525863  0.00669964  0.75732931  1
  Pb  Pb84  1  0.24831578  0.24636930  -0.01280382  1
  Pb  Pb85  1  0.25038140  0.25364469  0.24445121  1
  Pb  Pb86  1  0.25669676  0.25766585  0.50975695  1
  Pb  Pb87  1  0.24572122  0.23943769  0.75978632  1
  Pb  Pb88  1  0.25032866  0.50074019  -0.00816753  1
  Pb  Pb89  1  0.25222327  0.50803954  0.25214040  1
  Pb  Pb90  1  0.25262527  0.50037701  0.50114422  1
  Pb  Pb91  1  0.25184441  0.49643175  0.75610661  1
  Pb  Pb92  1  0.24459721  0.75128285  0.00590624  1
  Pb  Pb93  1  0.24871754  0.74328757  0.24686576  1
  Pb  Pb94  1  0.25165022  0.75180523  0.49728676  1
  Pb  Pb95  1  0.25048240  0.74577886  0.75385164  1
  Pb  Pb96  1  0.49368426  -0.00811908  -0.00235792  1
  Pb  Pb97  1  0.50718963  -0.00247041  0.25606444  1
  Pb  Pb98  1  0.50179345  -0.00504575  0.50702502  1
  Pb  Pb99  1  0.50188857  -0.00800068  0.74915026  1
  Pb  Pb100  1  0.49860176  0.25259532  -0.01418417  1
  Pb  Pb101  1  0.50726827  0.25544288  0.25292427  1
  Pb  Pb102  1  0.49625717  0.25428885  0.50846212  1
  Pb  Pb103  1  0.49997294  0.25394570  0.75534971  1
  Pb  Pb104  1  0.50426931  0.50197955  -0.01808939  1
  Pb  Pb105  1  0.49960118  0.49847729  0.24978089  1
  Pb  Pb106  1  0.49591143  0.49668151  0.50565691  1
  Pb  Pb107  1  0.49218820  0.50222087  0.75933227  1
  Pb  Pb108  1  0.50543260  0.74510817  -0.00761057  1
  Pb  Pb109  1  0.50602089  0.75379914  0.25279920  1
  Pb  Pb110  1  0.50184262  0.75758949  0.50568639  1
  Pb  Pb111  1  0.50596454  0.75440682  0.75274009  1
  Pb  Pb112  1  0.75831067  0.00056330  0.00334567  1
  Pb  Pb113  1  0.75331584  0.00137658  0.25060862  1
  Pb  Pb114  1  0.75796757  -0.00025032  0.50351789  1
  Pb  Pb115  1  0.75207561  -0.00903427  0.74283488  1
  Pb  Pb116  1  0.75843110  0.25207760  -0.00473999  1
  Pb  Pb117  1  0.76046518  0.25238934  0.25484971  1
  Pb  Pb118  1  0.75998545  0.25958687  0.50584305  1
  Pb  Pb119  1  0.75390953  0.25511617  0.75181819  1
  Pb  Pb120  1  0.75078189  0.50017449  -0.01182375  1
  Pb  Pb121  1  0.75905790  0.49915315  0.24711520  1
  Pb  Pb122  1  0.75373364  0.49528369  0.50004064  1
  Pb  Pb123  1  0.75591803  0.51578171  0.76271142  1
  Pb  Pb124  1  0.74444441  0.73987873  -0.00032288  1
  Pb  Pb125  1  0.75776015  0.73994764  0.24370646  1
  Pb  Pb126  1  0.74669721  0.75742430  0.50149469  1
  Pb  Pb127  1  0.75128309  0.74672838  0.75331677  1
  O  O128  1  0.13063458  0.00508016  0.15996663  1
  O  O129  1  0.12788323  0.00049540  0.41624850  1
  O  O130  1  0.12576593  -0.00574349  0.66193005  1
  O  O131  1  0.12483894  -0.00832871  0.91501785  1
  O  O132  1  0.13258642  0.25741981  0.16124561  1
  O  O133  1  0.13055317  0.25457468  0.42040452  1
  O  O134  1  0.12532785  0.24810964  0.66203479  1
  O  O135  1  0.12338836  0.24896812  0.90881449  1
  O  O136  1  0.13204872  0.49027155  0.16077956  1
  O  O137  1  0.12870713  0.49037712  0.41315799  1
  O  O138  1  0.12335291  0.50269462  0.66582665  1
  O  O139  1  0.12467739  0.50761333  0.90821983  1
  O  O140  1  0.13016319  0.74839211  0.16309195  1
  O  O141  1  0.12663342  0.75881898  0.41033888  1
  O  O142  1  0.12414593  0.74755508  0.66668743  1
  O  O143  1  0.12688777  0.75318295  0.91833837  1
  O  O144  1  0.38010254  0.01073661  0.16330977  1
  O  O145  1  0.37286599  -0.00103788  0.41905281  1
  O  O146  1  0.36763632  0.00365955  0.66484851  1
  O  O147  1  0.37323093  -0.00642712  0.91161442  1
  O  O148  1  0.38040174  0.24765232  0.16392416  1
  O  O149  1  0.37433183  0.25016645  0.42328296  1
  O  O150  1  0.36876132  0.24131975  0.66874691  1
  O  O151  1  0.37639284  0.24744039  0.90401068  1
  O  O152  1  0.38039510  0.49865611  0.16271204  1
  O  O153  1  0.37607272  0.49653623  0.42028079  1
  O  O154  1  0.37601684  0.50706832  0.66690780  1
  O  O155  1  0.37452385  0.50166446  0.90772499  1
  O  O156  1  0.37925513  0.74323193  0.15960549  1
  O  O157  1  0.37343347  0.75692436  0.41297240  1
  O  O158  1  0.37377909  0.74381956  0.66711858  1
  O  O159  1  0.37135123  0.75689930  0.91024336  1
  O  O160  1  0.62067507  0.00406072  0.16588153  1
  O  O161  1  0.61935007  0.00716580  0.42000266  1
  O  O162  1  0.61988260  0.00769202  0.66102638  1
  O  O163  1  0.62795165  0.00408087  0.91366138  1
  O  O164  1  0.61765674  0.24783271  0.16225790  1
  O  O165  1  0.61874510  0.24268772  0.41812798  1
  O  O166  1  0.62155811  0.23868457  0.66601843  1
  O  O167  1  0.62856537  0.23588200  0.90857464  1
  O  O168  1  0.61783698  0.49148090  0.15494029  1
  O  O169  1  0.62161063  0.50635633  0.41701240  1
  O  O170  1  0.62714029  0.50123833  0.66979311  1
  O  O171  1  0.62585019  0.49956938  0.89820874  1
  O  O172  1  0.62005681  0.75694008  0.16079490  1
  O  O173  1  0.62286064  0.74631807  0.41840451  1
  O  O174  1  0.62573733  0.74463058  0.66209969  1
  O  O175  1  0.62522853  0.75682034  0.90983726  1
  O  O176  1  0.86956531  0.00182082  0.16661136  1
  O  O177  1  0.87655117  -0.00331068  0.41325609  1
  O  O178  1  0.88094132  -0.00080405  0.66567689  1
  O  O179  1  0.87761571  -0.00201622  0.91598140  1
  O  O180  1  0.87107414  0.25056254  0.16499623  1
  O  O181  1  0.87553995  0.25193249  0.41998860  1
  O  O182  1  0.87795421  0.24549452  0.66522743  1
  O  O183  1  0.87450850  0.23961539  0.90574149  1
  O  O184  1  0.87151653  0.49663545  0.15988224  1
  O  O185  1  0.87378105  0.50017338  0.41642289  1
  O  O186  1  0.87444963  0.50737083  0.66579429  1
  O  O187  1  0.87597225  0.50012345  0.90692304  1
  O  O188  1  0.87146044  0.75051516  0.15730577  1
  O  O189  1  0.87422990  0.75633780  0.41069133  1
  O  O190  1  0.87693408  0.74402759  0.66439417  1
  O  O191  1  0.87971741  0.76016959  0.91451175  1
  O  O192  1  0.00135582  0.12873239  0.15899689  1
  O  O193  1  0.00890532  0.12783417  0.41527704  1
  O  O194  1  0.00916131  0.12067560  0.66424027  1
  O  O195  1  -0.00753570  0.11903908  0.91116040  1
  O  O196  1  0.00834837  0.37376838  0.15492916  1
  O  O197  1  0.00792727  0.37265779  0.41041740  1
  O  O198  1  0.00633172  0.37588205  0.66606631  1
  O  O199  1  -0.00037232  0.37332909  0.91174937  1
  O  O200  1  -0.00019801  0.62111887  0.15600232  1
  O  O201  1  0.00143982  0.62503919  0.41253205  1
  O  O202  1  -0.00260162  0.62479358  0.66481585  1
  O  O203  1  0.00814835  0.63265337  0.91491525  1
  O  O204  1  0.00135846  0.87706271  0.16119918  1
  O  O205  1  -0.00195782  0.87707010  0.40909926  1
  O  O206  1  0.00846731  0.87083876  0.66756370  1
  O  O207  1  0.00284389  0.87548820  0.91709468  1
  O  O208  1  0.26027407  0.12978531  0.15752227  1
  O  O209  1  0.25200504  0.12595486  0.42289975  1
  O  O210  1  0.24221652  0.12218254  0.66759218  1
  O  O211  1  0.25238326  0.11998669  0.91313436  1
  O  O212  1  0.25553128  0.37304450  0.16252291  1
  O  O213  1  0.25061156  0.37367132  0.42088682  1
  O  O214  1  0.24167611  0.37655520  0.66795546  1
  O  O215  1  0.24852494  0.37690937  0.90646306  1
  O  O216  1  0.26090666  0.62015815  0.16225848  1
  O  O217  1  0.25076917  0.62495885  0.41849347  1
  O  O218  1  0.24876558  0.62434229  0.66321455  1
  O  O219  1  0.24450463  0.62951700  0.91285883  1
  O  O220  1  0.25629351  0.87725978  0.16595497  1
  O  O221  1  0.25197903  0.87816367  0.41489669  1
  O  O222  1  0.24154947  0.86939012  0.66735657  1
  O  O223  1  0.24982549  0.87547160  0.91271735  1
  O  O224  1  0.50192185  0.12647345  0.16804204  1
  O  O225  1  0.49588376  0.12464011  0.42217346  1
  O  O226  1  0.49601662  0.12334412  0.66292237  1
  O  O227  1  0.50596372  0.11985499  0.90310457  1
  O  O228  1  0.49932421  0.37160522  0.16692492  1
  O  O229  1  0.49725044  0.37373843  0.42307806  1
  O  O230  1  0.50542058  0.37251084  0.66942347  1
  O  O231  1  0.50246304  0.37064126  0.90311576  1
  O  O232  1  0.49795321  0.62278666  0.16544931  1
  O  O233  1  0.50402656  0.62672217  0.41948722  1
  O  O234  1  0.50275996  0.62402882  0.66599391  1
  O  O235  1  0.49848913  0.62996358  0.90407184  1
  O  O236  1  0.50348275  0.87898691  0.16947004  1
  O  O237  1  0.49247229  0.87728458  0.41751619  1
  O  O238  1  0.49640143  0.87392291  0.66447312  1
  O  O239  1  0.49387548  0.87774982  0.90690915  1
  O  O240  1  0.73736783  0.12661314  0.16341846  1
  O  O241  1  0.74234219  0.12323393  0.41355674  1
  O  O242  1  0.74618358  0.12084182  0.65584898  1
  O  O243  1  0.75340988  0.11863252  0.91000664  1
  O  O244  1  0.73879744  0.36978329  0.15530869  1
  O  O245  1  0.74530225  0.37400724  0.41842807  1
  O  O246  1  0.74378291  0.36989230  0.66708293  1
  O  O247  1  0.75020989  0.36850200  0.90488008  1
  O  O248  1  0.74459892  0.62366989  0.16017492  1
  O  O249  1  0.74209332  0.62698417  0.41655740  1
  O  O250  1  0.75327340  0.62544773  0.66519075  1
  O  O251  1  0.74922938  0.62995597  0.91177527  1
  O  O252  1  0.73947211  0.87926703  0.16366335  1
  O  O253  1  0.75480945  0.87765807  0.41327676  1
  O  O254  1  0.75115255  0.87528464  0.65879654  1
  O  O255  1  0.75661958  0.87975169  0.90671840  1
  O  O256  1  0.12573562  0.12769529  0.02725160  1
  O  O257  1  0.13227364  0.13156537  0.30102366  1
  O  O258  1  0.12639617  0.12731063  0.55090971  1
  O  O259  1  0.12946274  0.11883651  0.78879983  1
  O  O260  1  0.12759673  0.37505245  0.04296921  1
  O  O261  1  0.13180009  0.36789271  0.29948650  1
  O  O262  1  0.12515146  0.37945143  0.55475026  1
  O  O263  1  0.11601787  0.37876918  0.77972083  1
  O  O264  1  0.13299895  0.63012850  0.03454085  1
  O  O265  1  0.13501990  0.62010232  0.28301723  1
  O  O266  1  0.12160282  0.62680143  0.54673611  1
  O  O267  1  0.12405730  0.63082115  0.79995791  1
  O  O268  1  0.13185893  0.86949182  0.03266448  1
  O  O269  1  0.12966516  0.88270988  0.29381380  1
  O  O270  1  0.12446433  0.87341557  0.54980338  1
  O  O271  1  0.12134259  0.87077635  0.80425787  1
  O  O272  1  0.38379041  0.12574998  0.04653040  1
  O  O273  1  0.37529614  0.12705961  0.30265993  1
  O  O274  1  0.37177634  0.12506010  0.55669052  1
  O  O275  1  0.36325104  0.12013357  0.77818402  1
  O  O276  1  0.37940143  0.37344704  0.04384973  1
  O  O277  1  0.37564974  0.37341956  0.30292434  1
  O  O278  1  0.37394409  0.37156316  0.54914932  1
  O  O279  1  0.37510691  0.38118059  0.77408484  1
  O  O280  1  0.38040870  0.62245729  0.04759092  1
  O  O281  1  0.37510857  0.61855719  0.28797160  1
  O  O282  1  0.37410856  0.62611437  0.55448515  1
  O  O283  1  0.36785202  0.62414798  0.77989372  1
  O  O284  1  0.38059442  0.88261469  0.03533749  1
  O  O285  1  0.37590654  0.87896950  0.30200151  1
  O  O286  1  0.36922374  0.87418093  0.53743602  1
  O  O287  1  0.36967653  0.87337413  0.79628843  1
  O  O288  1  0.61998818  0.12463030  0.04862164  1
  O  O289  1  0.62061082  0.12557137  0.30277490  1
  O  O290  1  0.62407900  0.12827049  0.54631550  1
  O  O291  1  0.62914137  0.11754067  0.79281314  1
  O  O292  1  0.61857713  0.36870694  0.04536770  1
  O  O293  1  0.61722403  0.37370629  0.28794104  1
  O  O294  1  0.62312970  0.37611258  0.56151147  1
  O  O295  1  0.62554428  0.36148506  0.77314806  1
  O  O296  1  0.62160714  0.63265883  0.03056217  1
  O  O297  1  0.62124783  0.62563961  0.30030468  1
  O  O298  1  0.62523447  0.62193582  0.55758526  1
  O  O299  1  0.63530774  0.63201699  0.77713611  1
  O  O300  1  0.62010155  0.87925474  0.04995969  1
  O  O301  1  0.61471862  0.87809479  0.29265662  1
  O  O302  1  0.61900099  0.87182588  0.53488954  1
  O  O303  1  0.62027640  0.87952634  0.77935776  1
  O  O304  1  0.86799890  0.12044046  0.03372561  1
  O  O305  1  0.87316114  0.13600201  0.29125172  1
  O  O306  1  0.88015298  0.11947082  0.53156684  1
  O  O307  1  0.87569490  0.11561426  0.79657888  1
  O  O308  1  0.87440022  0.37062579  0.03072557  1
  O  O309  1  0.86840122  0.37169656  0.28478622  1
  O  O310  1  0.87326503  0.37241598  0.54438827  1
  O  O311  1  0.88234104  0.37167492  0.77753702  1
  O  O312  1  0.87160548  0.62204674  0.02490087  1
  O  O313  1  0.86806567  0.61791314  0.28430302  1
  O  O314  1  0.87504079  0.62481490  0.54943706  1
  O  O315  1  0.87146630  0.63357524  0.79148606  1
  O  O316  1  0.87327272  0.88648140  0.03233332  1
  O  O317  1  0.87159049  0.87862008  0.29740530  1
  O  O318  1  0.88111826  0.87757318  0.53393785  1
  O  O319  1  0.88148791  0.87614523  0.80083693  1
