# generated using pymatgen
data_VFe(PbO3)2
_symmetry_space_group_name_H-M   'P 1'
_cell_length_a   15.38503875
_cell_length_b   15.37203930
_cell_length_c   18.54158489
_cell_angle_alpha   89.98658642
_cell_angle_beta   90.02363809
_cell_angle_gamma   90.02132165
_symmetry_Int_Tables_number   1
_chemical_formula_structural   VFe(PbO3)2
_chemical_formula_sum   'V32 Fe32 Pb64 O192'
_cell_volume   4385.07328138
_cell_formula_units_Z   32
loop_
 _symmetry_equiv_pos_site_id
 _symmetry_equiv_pos_as_xyz
  1  'x, y, z'
loop_
 _atom_site_type_symbol
 _atom_site_label
 _atom_site_symmetry_multiplicity
 _atom_site_fract_x
 _atom_site_fract_y
 _atom_site_fract_z
 _atom_site_occupancy
  V  V0  1  0.87471502  0.62532720  0.64309659  1
  V  V1  1  0.12526804  0.37239061  0.14346790  1
  V  V2  1  0.87602544  0.87460899  0.64420751  1
  V  V3  1  0.37597132  0.87445242  0.14098408  1
  V  V4  1  0.12599455  0.36998134  0.89067501  1
  V  V5  1  0.62485599  0.37360874  0.13536238  1
  V  V6  1  0.37494470  0.62506500  0.63791633  1
  V  V7  1  0.13328640  0.12459928  0.15339875  1
  V  V8  1  0.12623593  0.87397715  0.89022902  1
  V  V9  1  0.62461325  0.87877877  0.13462134  1
  V  V10  1  0.87454925  0.12383584  0.39148706  1
  V  V11  1  0.86994639  0.87364371  0.38854752  1
  V  V12  1  0.12643620  0.61819698  0.89351158  1
  V  V13  1  0.62644603  0.37531544  0.38812008  1
  V  V14  1  0.87652510  0.12549462  0.88640189  1
  V  V15  1  0.37464848  0.37634436  0.63825488  1
  V  V16  1  0.62709119  0.12458524  0.39410579  1
  V  V17  1  0.37772857  0.87525768  0.88843157  1
  V  V18  1  0.62355120  0.12862931  0.88682728  1
  V  V19  1  0.62852038  0.38031855  0.63965541  1
  V  V20  1  0.62596350  0.12648149  0.13881189  1
  V  V21  1  0.12486097  0.62451689  0.64004066  1
  V  V22  1  0.87334699  0.62461014  0.38304617  1
  V  V23  1  0.62336513  0.37773120  0.88941783  1
  V  V24  1  0.62686866  0.87650013  0.39154001  1
  V  V25  1  0.12395994  0.12469608  0.88761287  1
  V  V26  1  0.12649698  0.62536676  0.13850270  1
  V  V27  1  0.37583477  0.62482979  0.38439724  1
  V  V28  1  0.87779208  0.12521249  0.14070492  1
  V  V29  1  0.12244569  0.12568367  0.63443321  1
  V  V30  1  0.62136607  0.87148268  0.64383862  1
  V  V31  1  0.62398523  0.63001498  0.89064726  1
  Fe  Fe32  1  0.37968949  0.12372669  0.14412281  1
  Fe  Fe33  1  0.87536247  0.37270282  0.13969546  1
  Fe  Fe34  1  0.62308857  0.87940136  0.88354431  1
  Fe  Fe35  1  0.62695834  0.12671198  0.63445689  1
  Fe  Fe36  1  0.37505389  0.62497806  0.13241413  1
  Fe  Fe37  1  0.37188671  0.62544904  0.89410801  1
  Fe  Fe38  1  0.37866287  0.87290399  0.39046085  1
  Fe  Fe39  1  0.87449052  0.87677616  0.13022605  1
  Fe  Fe40  1  0.62801107  0.62680285  0.38382211  1
  Fe  Fe41  1  0.37420111  0.12462255  0.63214474  1
  Fe  Fe42  1  0.37557098  0.37359475  0.14159392  1
  Fe  Fe43  1  0.12381245  0.12419284  0.37488750  1
  Fe  Fe44  1  0.12372580  0.37675170  0.38272115  1
  Fe  Fe45  1  0.87445530  0.87707115  0.89133901  1
  Fe  Fe46  1  0.37451073  0.37357434  0.89018333  1
  Fe  Fe47  1  0.12304684  0.87285346  0.37778672  1
  Fe  Fe48  1  0.37989501  0.37712867  0.38098910  1
  Fe  Fe49  1  0.87727232  0.62343385  0.89792018  1
  Fe  Fe50  1  0.86978969  0.37528759  0.38234936  1
  Fe  Fe51  1  0.87744203  0.37810001  0.63371949  1
  Fe  Fe52  1  0.37050743  0.12454010  0.88406406  1
  Fe  Fe53  1  0.12227452  0.87158954  0.63525972  1
  Fe  Fe54  1  0.87537863  0.37353455  0.89028051  1
  Fe  Fe55  1  0.62274507  0.62462431  0.13328103  1
  Fe  Fe56  1  0.87527207  0.62526096  0.12803000  1
  Fe  Fe57  1  0.37116725  0.87232251  0.62874225  1
  Fe  Fe58  1  0.62667762  0.62345489  0.63922856  1
  Fe  Fe59  1  0.12646726  0.37769454  0.63254706  1
  Fe  Fe60  1  0.12652728  0.87838084  0.14232955  1
  Fe  Fe61  1  0.12306090  0.62561145  0.37855274  1
  Fe  Fe62  1  0.37740277  0.12490211  0.38497828  1
  Fe  Fe63  1  0.87461389  0.12518716  0.63329237  1
  Pb  Pb64  1  0.00417977  -0.00701261  0.00382955  1
  Pb  Pb65  1  0.00490164  -0.00293554  0.25091679  1
  Pb  Pb66  1  0.00734346  -0.00404186  0.49552742  1
  Pb  Pb67  1  -0.00121418  -0.00304026  0.74872766  1
  Pb  Pb68  1  -0.00305616  0.25158267  0.00343372  1
  Pb  Pb69  1  0.00850906  0.25458563  0.25743156  1
  Pb  Pb70  1  0.00053922  0.25774311  0.49367715  1
  Pb  Pb71  1  -0.00289953  0.25659035  0.74257371  1
  Pb  Pb72  1  -0.00948894  0.49667822  0.00619089  1
  Pb  Pb73  1  0.00351317  0.49892166  0.24936652  1
  Pb  Pb74  1  0.00169567  0.48920724  0.49746382  1
  Pb  Pb75  1  -0.00498251  0.49767237  0.75411691  1
  Pb  Pb76  1  -0.00433851  0.75509475  0.00219211  1
  Pb  Pb77  1  0.00182697  0.75283489  0.24151872  1
  Pb  Pb78  1  0.00670992  0.75189275  0.49607405  1
  Pb  Pb79  1  -0.01059989  0.74589588  0.75961305  1
  Pb  Pb80  1  0.24439078  -0.00147813  0.00318284  1
  Pb  Pb81  1  0.26541645  -0.00531011  0.26174997  1
  Pb  Pb82  1  0.25039379  -0.00275597  0.48879109  1
  Pb  Pb83  1  0.25230130  0.00011090  0.74030595  1
  Pb  Pb84  1  0.26025227  0.24645399  0.00665338  1
  Pb  Pb85  1  0.26134268  0.25338476  0.25743975  1
  Pb  Pb86  1  0.24975100  0.24755390  0.48537830  1
  Pb  Pb87  1  0.25754357  0.24856419  0.74783387  1
  Pb  Pb88  1  0.26147207  0.49475008  0.00516903  1
  Pb  Pb89  1  0.24390507  0.50000181  0.25051276  1
  Pb  Pb90  1  0.24372194  0.49538594  0.49127060  1
  Pb  Pb91  1  0.26105579  0.49881735  0.75650656  1
  Pb  Pb92  1  0.24387304  0.75665051  0.00348351  1
  Pb  Pb93  1  0.24433922  0.75203554  0.25117023  1
  Pb  Pb94  1  0.24696787  0.75870207  0.49368417  1
  Pb  Pb95  1  0.25097488  0.74730453  0.74761989  1
  Pb  Pb96  1  0.49183647  0.00858632  -0.00145196  1
  Pb  Pb97  1  0.49371165  -0.00276849  0.25705979  1
  Pb  Pb98  1  0.48820462  0.00345794  0.50433177  1
  Pb  Pb99  1  0.49488522  0.00506863  0.74340380  1
  Pb  Pb100  1  0.48678049  0.24841435  0.00393148  1
  Pb  Pb101  1  0.49453730  0.24839421  0.25329955  1
  Pb  Pb102  1  0.49674622  0.24304042  0.49984442  1
  Pb  Pb103  1  0.49350221  0.24793742  0.74841193  1
  Pb  Pb104  1  0.49813087  0.50485319  0.00371573  1
  Pb  Pb105  1  0.49678372  0.50127297  0.24423835  1
  Pb  Pb106  1  0.50798462  0.50690797  0.49712247  1
  Pb  Pb107  1  0.49209056  0.50126734  0.75472123  1
  Pb  Pb108  1  0.50061302  0.73963530  0.00479806  1
  Pb  Pb109  1  0.50402101  0.74496234  0.24901030  1
  Pb  Pb110  1  0.50278605  0.74638591  0.49981606  1
  Pb  Pb111  1  0.49658496  0.74557206  0.75008431  1
  Pb  Pb112  1  0.75301063  -0.00231341  -0.00371751  1
  Pb  Pb113  1  0.74948742  -0.00052733  0.24804270  1
  Pb  Pb114  1  0.75097463  0.00612301  0.50796117  1
  Pb  Pb115  1  0.74796770  -0.00668122  0.75278564  1
  Pb  Pb116  1  0.75180079  0.25312330  -0.00062015  1
  Pb  Pb117  1  0.75304552  0.25518054  0.25245221  1
  Pb  Pb118  1  0.75189671  0.24265734  0.50514087  1
  Pb  Pb119  1  0.75504801  0.25071942  0.74417654  1
  Pb  Pb120  1  0.75495008  0.50191347  0.00335142  1
  Pb  Pb121  1  0.75618708  0.50049215  0.24266206  1
  Pb  Pb122  1  0.75499986  0.49593017  0.49936057  1
  Pb  Pb123  1  0.76482748  0.50316623  0.75983630  1
  Pb  Pb124  1  0.75562407  0.75188548  -0.00079936  1
  Pb  Pb125  1  0.74816551  0.74111082  0.24038973  1
  Pb  Pb126  1  0.74693460  0.74359076  0.50313025  1
  Pb  Pb127  1  0.75224222  0.75775694  0.76004726  1
  O  O128  1  0.12279531  0.00747873  0.16724123  1
  O  O129  1  0.11868938  -0.00146096  0.40506239  1
  O  O130  1  0.12154884  0.00426841  0.66205669  1
  O  O131  1  0.12570844  0.00058344  0.91668967  1
  O  O132  1  0.12145938  0.25057478  0.16811945  1
  O  O133  1  0.11955480  0.24829348  0.40697651  1
  O  O134  1  0.12457826  0.24447330  0.65805006  1
  O  O135  1  0.12313177  0.25195207  0.91450639  1
  O  O136  1  0.12650072  0.49800866  0.16162556  1
  O  O137  1  0.12295293  0.50454031  0.41208553  1
  O  O138  1  0.12394206  0.50962175  0.66468038  1
  O  O139  1  0.12765086  0.49999042  0.91339621  1
  O  O140  1  0.12721986  0.74522663  0.15856454  1
  O  O141  1  0.12085170  0.74827705  0.41123956  1
  O  O142  1  0.12062401  0.74056747  0.66960611  1
  O  O143  1  0.12691417  0.75086724  0.91691379  1
  O  O144  1  0.37840979  -0.00526837  0.16841108  1
  O  O145  1  0.37986532  -0.00025876  0.41448071  1
  O  O146  1  0.37541010  -0.00235664  0.65949848  1
  O  O147  1  0.37231105  -0.00400588  0.91403769  1
  O  O148  1  0.37703136  0.24821000  0.17004742  1
  O  O149  1  0.38084026  0.25159691  0.41000206  1
  O  O150  1  0.37352192  0.25624818  0.65904107  1
  O  O151  1  0.37249058  0.24796670  0.91784240  1
  O  O152  1  0.37662485  0.49987822  0.16119260  1
  O  O153  1  0.38097414  0.50701011  0.40997199  1
  O  O154  1  0.37312263  0.49986522  0.66738451  1
  O  O155  1  0.37323107  0.49824047  0.91827439  1
  O  O156  1  0.37684559  0.75700565  0.16117312  1
  O  O157  1  0.37956823  0.74199375  0.41232027  1
  O  O158  1  0.37464731  0.74645946  0.66440135  1
  O  O159  1  0.37303548  0.75893900  0.91399188  1
  O  O160  1  0.62499866  -0.00214606  0.16399364  1
  O  O161  1  0.63063513  -0.00560949  0.41658257  1
  O  O162  1  0.62848294  -0.00847568  0.66196392  1
  O  O163  1  0.62499463  0.01058281  0.91144307  1
  O  O164  1  0.62765671  0.24815002  0.16383678  1
  O  O165  1  0.62876087  0.25252219  0.41368855  1
  O  O166  1  0.62229297  0.26230821  0.66417066  1
  O  O167  1  0.62675171  0.24650740  0.91381383  1
  O  O168  1  0.62432313  0.49134036  0.15540650  1
  O  O169  1  0.62827636  0.49601895  0.41053467  1
  O  O170  1  0.62026520  0.49499821  0.66848152  1
  O  O171  1  0.62350817  0.49469300  0.91178292  1
  O  O172  1  0.62191561  0.76108190  0.15767079  1
  O  O173  1  0.63001117  0.75652901  0.41713565  1
  O  O174  1  0.62790202  0.75253027  0.66994299  1
  O  O175  1  0.62199732  0.74662765  0.90838808  1
  O  O176  1  0.87023596  0.00608192  0.16517178  1
  O  O177  1  0.87017642  -0.00446133  0.41567953  1
  O  O178  1  0.87568340  -0.00709518  0.66358195  1
  O  O179  1  0.87637791  0.00757679  0.91451254  1
  O  O180  1  0.86978967  0.24229232  0.16681898  1
  O  O181  1  0.86958100  0.24209557  0.40776785  1
  O  O182  1  0.87521017  0.25208049  0.66144219  1
  O  O183  1  0.87745805  0.24616333  0.91641690  1
  O  O184  1  0.87391142  0.49984961  0.15979190  1
  O  O185  1  0.86908158  0.50833827  0.40427501  1
  O  O186  1  0.87651581  0.50630142  0.66652236  1
  O  O187  1  0.87485446  0.49620841  0.92060088  1
  O  O188  1  0.87631382  0.75092826  0.15512353  1
  O  O189  1  0.86972150  0.75331502  0.41081251  1
  O  O190  1  0.87596002  0.74843960  0.66983439  1
  O  O191  1  0.87554669  0.75026380  0.91624643  1
  O  O192  1  -0.00914949  0.12525228  0.16539481  1
  O  O193  1  -0.00943412  0.12117478  0.40819736  1
  O  O194  1  0.00395568  0.12381644  0.66281075  1
  O  O195  1  0.00234241  0.12552029  0.91651459  1
  O  O196  1  0.00528926  0.37384656  0.16406597  1
  O  O197  1  -0.00590517  0.37648056  0.40934964  1
  O  O198  1  0.00326431  0.37867105  0.66489101  1
  O  O199  1  0.00875345  0.37555893  0.91689560  1
  O  O200  1  0.00726632  0.62219963  0.15803115  1
  O  O201  1  -0.01186583  0.62939675  0.40524047  1
  O  O202  1  -0.00312887  0.62596787  0.66747466  1
  O  O203  1  0.01127505  0.62477204  0.91931815  1
  O  O204  1  -0.00110816  0.87921900  0.16164313  1
  O  O205  1  -0.01167521  0.87380140  0.40873383  1
  O  O206  1  -0.00509627  0.87111227  0.66884917  1
  O  O207  1  0.00531721  0.87760624  0.91551558  1
  O  O208  1  0.24841946  0.12680445  0.16609967  1
  O  O209  1  0.24877499  0.12441149  0.40248372  1
  O  O210  1  0.24291692  0.12422951  0.65823644  1
  O  O211  1  0.24286476  0.12518974  0.91426677  1
  O  O212  1  0.24280250  0.37141814  0.16543838  1
  O  O213  1  0.25289743  0.37778548  0.40763251  1
  O  O214  1  0.25503176  0.37803068  0.66143805  1
  O  O215  1  0.24085065  0.37344843  0.91910714  1
  O  O216  1  0.24625420  0.62428023  0.16136661  1
  O  O217  1  0.25811800  0.62543515  0.40526787  1
  O  O218  1  0.24650161  0.62632691  0.66219907  1
  O  O219  1  0.24228561  0.62704232  0.92054524  1
  O  O220  1  0.25805360  0.87713995  0.16394940  1
  O  O221  1  0.24919908  0.87213158  0.40739952  1
  O  O222  1  0.24673940  0.87072360  0.66246999  1
  O  O223  1  0.25192761  0.87759631  0.91818763  1
  O  O224  1  0.50992702  0.12296467  0.16642657  1
  O  O225  1  0.50773208  0.12378594  0.41468424  1
  O  O226  1  0.50192519  0.12688244  0.66339111  1
  O  O227  1  0.50477120  0.12696611  0.91020902  1
  O  O228  1  0.50953624  0.36944009  0.16194944  1
  O  O229  1  0.51023073  0.37619945  0.41344684  1
  O  O230  1  0.49391621  0.37848532  0.66381834  1
  O  O231  1  0.50725851  0.37018575  0.91289962  1
  O  O232  1  0.49941179  0.62815276  0.16518770  1
  O  O233  1  0.49973779  0.62647826  0.41211961  1
  O  O234  1  0.49674812  0.62452793  0.66724646  1
  O  O235  1  0.50467113  0.62238711  0.91424258  1
  O  O236  1  0.50167997  0.87806264  0.16329074  1
  O  O237  1  0.51129117  0.87347196  0.41336773  1
  O  O238  1  0.50396352  0.87105147  0.66005861  1
  O  O239  1  0.49393622  0.87938867  0.90952978  1
  O  O240  1  0.74817147  0.12275524  0.16619137  1
  O  O241  1  0.75172500  0.12134580  0.42054663  1
  O  O242  1  0.74955183  0.12577580  0.66674580  1
  O  O243  1  0.74942053  0.12752552  0.91072869  1
  O  O244  1  0.74240906  0.37064182  0.16246168  1
  O  O245  1  0.74450509  0.37512109  0.41666348  1
  O  O246  1  0.74492908  0.38020943  0.65981073  1
  O  O247  1  0.74240868  0.37161966  0.91600482  1
  O  O248  1  0.74804621  0.62705518  0.15593908  1
  O  O249  1  0.75586148  0.62926155  0.41504474  1
  O  O250  1  0.75714526  0.62517776  0.66595155  1
  O  O251  1  0.74040262  0.62152495  0.91434089  1
  O  O252  1  0.74258507  0.87854552  0.15608017  1
  O  O253  1  0.75130571  0.87474829  0.42098395  1
  O  O254  1  0.75458760  0.87089004  0.66723522  1
  O  O255  1  0.74591085  0.87797249  0.91609281  1
  O  O256  1  0.12350720  0.12782981  0.06214296  1
  O  O257  1  0.11430137  0.12835890  0.27317068  1
  O  O258  1  0.11968096  0.12233891  0.54369495  1
  O  O259  1  0.12286608  0.12493689  0.79699275  1
  O  O260  1  0.12495986  0.37050913  0.05255093  1
  O  O261  1  0.11947494  0.38170583  0.28183475  1
  O  O262  1  0.12069905  0.38218585  0.53278323  1
  O  O263  1  0.12757626  0.37163773  0.79971642  1
  O  O264  1  0.12784222  0.62315002  0.04776432  1
  O  O265  1  0.12648959  0.62288716  0.27886875  1
  O  O266  1  0.12132102  0.62791023  0.54918514  1
  O  O267  1  0.12693570  0.62297777  0.80265377  1
  O  O268  1  0.13193110  0.88276867  0.04121859  1
  O  O269  1  0.12300102  0.86734700  0.27628126  1
  O  O270  1  0.11587664  0.86871831  0.53567005  1
  O  O271  1  0.12659440  0.87445724  0.79933998  1
  O  O272  1  0.38106489  0.12588122  0.04250493  1
  O  O273  1  0.38177620  0.11806291  0.28252634  1
  O  O274  1  0.38164117  0.12659210  0.53220050  1
  O  O275  1  0.37223772  0.12985895  0.78404232  1
  O  O276  1  0.37078244  0.36562446  0.03960867  1
  O  O277  1  0.38216395  0.37156147  0.28061656  1
  O  O278  1  0.37734243  0.38107867  0.54804891  1
  O  O279  1  0.36760684  0.37642998  0.78975257  1
  O  O280  1  0.38260843  0.62645453  0.03141984  1
  O  O281  1  0.38028184  0.62620921  0.29315385  1
  O  O282  1  0.37572151  0.62214744  0.54737080  1
  O  O283  1  0.37054446  0.62107607  0.79340059  1
  O  O284  1  0.37767353  0.87920082  0.04991606  1
  O  O285  1  0.37960970  0.88213598  0.28936705  1
  O  O286  1  0.37427697  0.87246510  0.52864319  1
  O  O287  1  0.37269040  0.87501123  0.79752706  1
  O  O288  1  0.62552706  0.12577526  0.04791616  1
  O  O289  1  0.63091720  0.12182393  0.30304855  1
  O  O290  1  0.63216048  0.12885237  0.53430230  1
  O  O291  1  0.62396653  0.13020282  0.79586084  1
  O  O292  1  0.62609308  0.36857390  0.04436504  1
  O  O293  1  0.62816234  0.37368542  0.29726958  1
  O  O294  1  0.62463860  0.38226981  0.54864435  1
  O  O295  1  0.62546680  0.37569697  0.79881994  1
  O  O296  1  0.61323574  0.62660224  0.03308118  1
  O  O297  1  0.62759829  0.63461067  0.28438023  1
  O  O298  1  0.62418348  0.62702272  0.53978665  1
  O  O299  1  0.62282663  0.62403758  0.79940374  1
  O  O300  1  0.62050239  0.88160094  0.04379315  1
  O  O301  1  0.63159052  0.87539096  0.30075802  1
  O  O302  1  0.62881759  0.86709552  0.55317879  1
  O  O303  1  0.63152674  0.87738227  0.78419033  1
  O  O304  1  0.87692342  0.12659729  0.04950273  1
  O  O305  1  0.86676532  0.11705588  0.30087124  1
  O  O306  1  0.86935296  0.12309101  0.53396232  1
  O  O307  1  0.87829759  0.12618782  0.79529109  1
  O  O308  1  0.87791713  0.36756738  0.03858107  1
  O  O309  1  0.86237565  0.37453508  0.28190182  1
  O  O310  1  0.87602080  0.38474442  0.53372868  1
  O  O311  1  0.87576074  0.38228668  0.78998285  1
  O  O312  1  0.87467399  0.62154702  0.02637713  1
  O  O313  1  0.86811838  0.62844050  0.29172139  1
  O  O314  1  0.87696976  0.62721538  0.55257631  1
  O  O315  1  0.87844709  0.61810171  0.79607297  1
  O  O316  1  0.87648101  0.88155324  0.02959675  1
  O  O317  1  0.86444258  0.87701884  0.29791149  1
  O  O318  1  0.87634233  0.87071246  0.55378304  1
  O  O319  1  0.87277208  0.87373735  0.79003974  1
