# generated using pymatgen
data_VFe(PbO3)2
_symmetry_space_group_name_H-M   'P 1'
_cell_length_a   15.38284109
_cell_length_b   15.38550925
_cell_length_c   18.51324472
_cell_angle_alpha   90.00208248
_cell_angle_beta   89.98756396
_cell_angle_gamma   90.00184692
_symmetry_Int_Tables_number   1
_chemical_formula_structural   VFe(PbO3)2
_chemical_formula_sum   'V32 Fe32 Pb64 O192'
_cell_volume   4381.58216641
_cell_formula_units_Z   32
loop_
 _symmetry_equiv_pos_site_id
 _symmetry_equiv_pos_as_xyz
  1  'x, y, z'
loop_
 _atom_site_type_symbol
 _atom_site_label
 _atom_site_symmetry_multiplicity
 _atom_site_fract_x
 _atom_site_fract_y
 _atom_site_fract_z
 _atom_site_occupancy
  V  V0  1  0.61996454  0.87536664  0.14961690  1
  V  V1  1  0.12389099  0.37322602  0.64551506  1
  V  V2  1  0.37674388  0.12410851  0.63681736  1
  V  V3  1  0.62644279  0.87645275  0.63825979  1
  V  V4  1  0.12501806  0.12353476  0.63833030  1
  V  V5  1  0.62595792  0.12361605  0.63826043  1
  V  V6  1  0.87418334  0.12544433  0.63940521  1
  V  V7  1  0.87486726  0.37647699  0.64122025  1
  V  V8  1  0.62414621  0.62528360  0.88678882  1
  V  V9  1  0.12214948  0.87245740  0.14176456  1
  V  V10  1  0.37342652  0.87347959  0.14339039  1
  V  V11  1  0.62770986  0.62262114  0.63845618  1
  V  V12  1  0.62036079  0.37709338  0.13805980  1
  V  V13  1  0.87634147  0.87364059  0.63807001  1
  V  V14  1  0.12721202  0.62206445  0.38836219  1
  V  V15  1  0.12344794  0.87742413  0.88944950  1
  V  V16  1  0.87065749  0.37701218  0.14171377  1
  V  V17  1  0.86886149  0.87317392  0.15055713  1
  V  V18  1  0.12813676  0.12758675  0.38387210  1
  V  V19  1  0.37560563  0.12199655  0.89137036  1
  V  V20  1  0.87301876  0.62722797  0.88773056  1
  V  V21  1  0.12189067  0.62751343  0.64436428  1
  V  V22  1  0.37150534  0.12818046  0.14255788  1
  V  V23  1  0.12565880  0.12509648  0.89388304  1
  V  V24  1  0.37310216  0.87579546  0.64108681  1
  V  V25  1  0.87715194  0.62577430  0.14401721  1
  V  V26  1  0.37075422  0.62626580  0.13672052  1
  V  V27  1  0.62391538  0.37800484  0.38579401  1
  V  V28  1  0.12384119  0.37761152  0.13533424  1
  V  V29  1  0.37536112  0.62236207  0.39054054  1
  V  V30  1  0.62557239  0.12438442  0.89164429  1
  V  V31  1  0.62492449  0.62451224  0.14476564  1
  Fe  Fe32  1  0.37582381  0.87862700  0.88688259  1
  Fe  Fe33  1  0.87702718  0.87426780  0.37522720  1
  Fe  Fe34  1  0.62316960  0.87165649  0.37610776  1
  Fe  Fe35  1  0.37239316  0.37647312  0.38456917  1
  Fe  Fe36  1  0.37761040  0.62696782  0.64695085  1
  Fe  Fe37  1  0.87508311  0.12146298  0.88654835  1
  Fe  Fe38  1  0.37482850  0.37847314  0.13518476  1
  Fe  Fe39  1  0.37437072  0.12662587  0.38232593  1
  Fe  Fe40  1  0.87692565  0.12743509  0.37552596  1
  Fe  Fe41  1  0.12835232  0.87116006  0.38978828  1
  Fe  Fe42  1  0.87390346  0.87710473  0.88915966  1
  Fe  Fe43  1  0.37577036  0.62847988  0.87574069  1
  Fe  Fe44  1  0.62322796  0.12590510  0.14677748  1
  Fe  Fe45  1  0.62671405  0.37193383  0.63633926  1
  Fe  Fe46  1  0.37606675  0.37315585  0.64287766  1
  Fe  Fe47  1  0.37352234  0.87330095  0.38093781  1
  Fe  Fe48  1  0.62806009  0.37288259  0.88580409  1
  Fe  Fe49  1  0.12270158  0.62721553  0.88542564  1
  Fe  Fe50  1  0.87866914  0.37564199  0.38011691  1
  Fe  Fe51  1  0.12859594  0.37817313  0.38665845  1
  Fe  Fe52  1  0.12271996  0.87818031  0.63163053  1
  Fe  Fe53  1  0.62191848  0.62188989  0.38069914  1
  Fe  Fe54  1  0.87818010  0.12464261  0.14744088  1
  Fe  Fe55  1  0.12451058  0.62557421  0.13156977  1
  Fe  Fe56  1  0.62273702  0.12735759  0.37505324  1
  Fe  Fe57  1  0.12125769  0.37275757  0.88128639  1
  Fe  Fe58  1  0.12762560  0.12529303  0.13592022  1
  Fe  Fe59  1  0.37560229  0.37265666  0.88243245  1
  Fe  Fe60  1  0.87191189  0.62495028  0.63507923  1
  Fe  Fe61  1  0.62533592  0.87691193  0.88831067  1
  Fe  Fe62  1  0.87315795  0.37145528  0.88761630  1
  Fe  Fe63  1  0.87632156  0.62224647  0.38225163  1
  Pb  Pb64  1  -0.00599650  0.00793066  0.00771039  1
  Pb  Pb65  1  0.00095055  -0.00085336  0.25170157  1
  Pb  Pb66  1  0.00154748  -0.00403195  0.49057499  1
  Pb  Pb67  1  -0.00972990  0.00282530  0.75134265  1
  Pb  Pb68  1  -0.00589752  0.24322570  0.00123823  1
  Pb  Pb69  1  0.00126935  0.25315141  0.24746858  1
  Pb  Pb70  1  -0.00100801  0.25129104  0.49132030  1
  Pb  Pb71  1  -0.00361809  0.25225043  0.75305752  1
  Pb  Pb72  1  0.00601485  0.49980759  -0.00549337  1
  Pb  Pb73  1  -0.00398037  0.49867630  0.25211623  1
  Pb  Pb74  1  -0.00480629  0.50213834  0.49800990  1
  Pb  Pb75  1  0.00683995  0.49922852  0.75516468  1
  Pb  Pb76  1  0.00450481  0.74737549  0.00197778  1
  Pb  Pb77  1  -0.00267884  0.75077569  0.25469268  1
  Pb  Pb78  1  -0.00220483  0.75174180  0.49392170  1
  Pb  Pb79  1  0.00218544  0.74778993  0.75133261  1
  Pb  Pb80  1  0.24331964  0.00385115  0.00534293  1
  Pb  Pb81  1  0.25017587  -0.00891947  0.25446578  1
  Pb  Pb82  1  0.24885324  -0.00580403  0.49407425  1
  Pb  Pb83  1  0.25305699  -0.00203995  0.74820514  1
  Pb  Pb84  1  0.25208504  0.25871277  -0.00011113  1
  Pb  Pb85  1  0.25014756  0.26192312  0.25209415  1
  Pb  Pb86  1  0.25745141  0.25593608  0.49765679  1
  Pb  Pb87  1  0.25003911  0.25511214  0.75118593  1
  Pb  Pb88  1  0.25058714  0.50040259  -0.01392439  1
  Pb  Pb89  1  0.24785946  0.49059554  0.24993835  1
  Pb  Pb90  1  0.26164997  0.49880479  0.50899575  1
  Pb  Pb91  1  0.25515430  0.50045540  0.75264066  1
  Pb  Pb92  1  0.24984384  0.74394906  -0.00598789  1
  Pb  Pb93  1  0.24732312  0.75630585  0.25420457  1
  Pb  Pb94  1  0.25559909  0.74377303  0.50395146  1
  Pb  Pb95  1  0.24921473  0.74387833  0.75406051  1
  Pb  Pb96  1  0.50673609  0.00534960  0.00740683  1
  Pb  Pb97  1  0.49083037  0.00427151  0.25642849  1
  Pb  Pb98  1  0.50141779  0.00067524  0.48399952  1
  Pb  Pb99  1  0.50230435  -0.00649011  0.75217252  1
  Pb  Pb100  1  0.50041407  0.25135553  0.00200009  1
  Pb  Pb101  1  0.49324540  0.24222508  0.25397710  1
  Pb  Pb102  1  0.50026829  0.25586292  0.49641081  1
  Pb  Pb103  1  0.50017609  0.25734574  0.75041380  1
  Pb  Pb104  1  0.48957187  0.49230980  -0.00711239  1
  Pb  Pb105  1  0.50108426  0.50426723  0.24986967  1
  Pb  Pb106  1  0.49825971  0.48920372  0.50676713  1
  Pb  Pb107  1  0.49661773  0.49641941  0.74817789  1
  Pb  Pb108  1  0.49664592  0.75243381  -0.00490819  1
  Pb  Pb109  1  0.50415173  0.74918233  0.25431048  1
  Pb  Pb110  1  0.50079168  0.74695583  0.49472898  1
  Pb  Pb111  1  0.50115455  0.75869734  0.75257550  1
  Pb  Pb112  1  0.75277440  0.00599910  0.00664571  1
  Pb  Pb113  1  0.74929397  0.00803444  0.25420105  1
  Pb  Pb114  1  0.75017631  0.00026978  0.47989792  1
  Pb  Pb115  1  0.75716980  -0.00091597  0.75396470  1
  Pb  Pb116  1  0.75355461  0.24053791  0.00396132  1
  Pb  Pb117  1  0.75117151  0.24527062  0.25019807  1
  Pb  Pb118  1  0.74756888  0.25162303  0.48922099  1
  Pb  Pb119  1  0.75340645  0.25402109  0.75438990  1
  Pb  Pb120  1  0.74974396  0.49723408  -0.00166517  1
  Pb  Pb121  1  0.75732034  0.50478859  0.25516729  1
  Pb  Pb122  1  0.75352614  0.50443806  0.49467445  1
  Pb  Pb123  1  0.75061837  0.48827702  0.75380468  1
  Pb  Pb124  1  0.74943591  0.75412067  0.00087913  1
  Pb  Pb125  1  0.74540822  0.74970961  0.25759295  1
  Pb  Pb126  1  0.75260340  0.74691121  0.48598391  1
  Pb  Pb127  1  0.74741426  0.76085070  0.75042053  1
  O  O128  1  0.12843552  -0.00913330  0.16460646  1
  O  O129  1  0.12600202  0.00735416  0.40941001  1
  O  O130  1  0.12352491  0.00384653  0.66464435  1
  O  O131  1  0.12714120  -0.00042113  0.91749534  1
  O  O132  1  0.12679330  0.25816669  0.15926076  1
  O  O133  1  0.12801900  0.24476907  0.41217633  1
  O  O134  1  0.12238081  0.24606018  0.66837902  1
  O  O135  1  0.12553135  0.24168827  0.91324428  1
  O  O136  1  0.12575985  0.49653759  0.15823057  1
  O  O137  1  0.12949114  0.50810173  0.41730372  1
  O  O138  1  0.12099180  0.50224834  0.66792554  1
  O  O139  1  0.12167192  0.50025477  0.90826871  1
  O  O140  1  0.12638170  0.75310859  0.16487938  1
  O  O141  1  0.12940826  0.73869913  0.41570990  1
  O  O142  1  0.12175526  0.74925024  0.66312453  1
  O  O143  1  0.12185362  0.75876382  0.91289104  1
  O  O144  1  0.37587310  -0.00260432  0.16530633  1
  O  O145  1  0.37381349  0.00024822  0.40936223  1
  O  O146  1  0.37693485  -0.00048646  0.66724545  1
  O  O147  1  0.37387264  0.00713955  0.92022912  1
  O  O148  1  0.37412669  0.24674620  0.15829073  1
  O  O149  1  0.37282949  0.25155766  0.41326844  1
  O  O150  1  0.37686098  0.24196435  0.66510095  1
  O  O151  1  0.37454043  0.23941331  0.91599675  1
  O  O152  1  0.37654885  0.50885059  0.16018886  1
  O  O153  1  0.37347323  0.50496926  0.41711191  1
  O  O154  1  0.37536182  0.50011056  0.66783267  1
  O  O155  1  0.37607480  0.50197649  0.90427876  1
  O  O156  1  0.37758300  0.74502251  0.16502615  1
  O  O157  1  0.37265732  0.74124788  0.41414768  1
  O  O158  1  0.37608409  0.76062710  0.66387155  1
  O  O159  1  0.37717892  0.75175287  0.91268297  1
  O  O160  1  0.62466092  -0.00854568  0.16694314  1
  O  O161  1  0.62382939  -0.00040547  0.40008706  1
  O  O162  1  0.62645949  0.00184005  0.66528894  1
  O  O163  1  0.62237373  0.00745781  0.91879536  1
  O  O164  1  0.62659480  0.26261510  0.16186123  1
  O  O165  1  0.62325815  0.25805727  0.40876144  1
  O  O166  1  0.62704972  0.23948681  0.66239663  1
  O  O167  1  0.62315603  0.24146649  0.91667616  1
  O  O168  1  0.62697332  0.49545785  0.16699550  1
  O  O169  1  0.62127437  0.49465025  0.41223478  1
  O  O170  1  0.62784351  0.50627157  0.66031736  1
  O  O171  1  0.62860146  0.50805284  0.91155905  1
  O  O172  1  0.62639199  0.74920101  0.16678627  1
  O  O173  1  0.62258364  0.74611799  0.41072672  1
  O  O174  1  0.62662104  0.75476742  0.66370029  1
  O  O175  1  0.62719455  0.74280638  0.91641716  1
  O  O176  1  0.87720828  -0.00893975  0.16627777  1
  O  O177  1  0.87740538  0.00171696  0.40309491  1
  O  O178  1  0.87324426  -0.00209146  0.66488237  1
  O  O179  1  0.87449521  0.00047221  0.92311704  1
  O  O180  1  0.87740022  0.26026057  0.16172719  1
  O  O181  1  0.87628084  0.25126011  0.41059231  1
  O  O182  1  0.87426847  0.25086398  0.66436418  1
  O  O183  1  0.87367351  0.24465812  0.91819253  1
  O  O184  1  0.87730953  0.49773996  0.16526408  1
  O  O185  1  0.87726566  0.49793497  0.41513638  1
  O  O186  1  0.87424108  0.49372507  0.66262693  1
  O  O187  1  0.87188043  0.50941550  0.91295312  1
  O  O188  1  0.87640056  0.75042733  0.16865679  1
  O  O189  1  0.87781116  0.74806192  0.40693853  1
  O  O190  1  0.87324892  0.75694774  0.66003422  1
  O  O191  1  0.87245786  0.74592748  0.91615870  1
  O  O192  1  0.00553887  0.12407456  0.16716018  1
  O  O193  1  0.00776962  0.12734307  0.40742457  1
  O  O194  1  -0.00233870  0.12424399  0.66483258  1
  O  O195  1  0.00682965  0.12082771  0.91416129  1
  O  O196  1  0.00299645  0.37783430  0.15894986  1
  O  O197  1  0.00440992  0.37604338  0.41493896  1
  O  O198  1  -0.00545700  0.37221150  0.66726155  1
  O  O199  1  -0.00235633  0.37308526  0.91598311  1
  O  O200  1  -0.00152240  0.62556514  0.16424471  1
  O  O201  1  0.00894419  0.62302419  0.40876222  1
  O  O202  1  0.00033128  0.62613965  0.66667994  1
  O  O203  1  -0.00891731  0.62875314  0.91181442  1
  O  O204  1  0.00502383  0.87187933  0.16426334  1
  O  O205  1  0.00169857  0.87316859  0.41113699  1
  O  O206  1  -0.00686046  0.87784889  0.66024074  1
  O  O207  1  0.00645187  0.87889508  0.91633285  1
  O  O208  1  0.25529934  0.12121888  0.16408600  1
  O  O209  1  0.24446505  0.12550111  0.41144169  1
  O  O210  1  0.25104577  0.12266030  0.66468705  1
  O  O211  1  0.25059891  0.12247733  0.91621792  1
  O  O212  1  0.24586117  0.37746736  0.15874256  1
  O  O213  1  0.24971840  0.37845665  0.42206461  1
  O  O214  1  0.24546659  0.37256851  0.66635841  1
  O  O215  1  0.24875973  0.37054647  0.90992025  1
  O  O216  1  0.25553499  0.62799854  0.15654492  1
  O  O217  1  0.25209425  0.62315725  0.41758043  1
  O  O218  1  0.24069793  0.62709483  0.66720172  1
  O  O219  1  0.24989575  0.62954527  0.90669083  1
  O  O220  1  0.24860451  0.87097176  0.16458514  1
  O  O221  1  0.25249500  0.87181444  0.41828841  1
  O  O222  1  0.25437802  0.87945941  0.65976105  1
  O  O223  1  0.24252081  0.87761054  0.91472494  1
  O  O224  1  0.49183900  0.12412148  0.16608853  1
  O  O225  1  0.50135454  0.12819184  0.41032430  1
  O  O226  1  0.50458888  0.12095948  0.66269755  1
  O  O227  1  0.49736466  0.12346510  0.91551925  1
  O  O228  1  0.50449866  0.37984337  0.15865410  1
  O  O229  1  0.50231795  0.37681383  0.41197075  1
  O  O230  1  0.50386274  0.37271214  0.66736924  1
  O  O231  1  0.50227901  0.37198038  0.91288982  1
  O  O232  1  0.49810212  0.62480264  0.16617963  1
  O  O233  1  0.49290088  0.62268722  0.41219016  1
  O  O234  1  0.51156351  0.63000015  0.66604263  1
  O  O235  1  0.50688168  0.62629030  0.90615946  1
  O  O236  1  0.50156597  0.87025614  0.16484463  1
  O  O237  1  0.49770923  0.87042319  0.40902143  1
  O  O238  1  0.49949641  0.87888407  0.66489990  1
  O  O239  1  0.50182200  0.87753075  0.92026065  1
  O  O240  1  0.75027315  0.12518794  0.16665251  1
  O  O241  1  0.74845265  0.12893776  0.40336540  1
  O  O242  1  0.74757301  0.12181180  0.66344913  1
  O  O243  1  0.74293237  0.12306168  0.91356968  1
  O  O244  1  0.75241659  0.37954010  0.16136666  1
  O  O245  1  0.74414460  0.37648508  0.40679451  1
  O  O246  1  0.75497719  0.37187199  0.66373655  1
  O  O247  1  0.74931719  0.37431342  0.92246259  1
  O  O248  1  0.75142939  0.62314005  0.16817975  1
  O  O249  1  0.74822611  0.62034529  0.40733399  1
  O  O250  1  0.74423914  0.63022906  0.66452234  1
  O  O251  1  0.75080118  0.62732866  0.91492647  1
  O  O252  1  0.75106135  0.87078848  0.16719983  1
  O  O253  1  0.75057279  0.87325961  0.40352041  1
  O  O254  1  0.75313852  0.87799594  0.66371401  1
  O  O255  1  0.74812373  0.87577867  0.92302991  1
  O  O256  1  0.12725614  0.11861075  0.03604623  1
  O  O257  1  0.12912432  0.12814096  0.29268552  1
  O  O258  1  0.12514382  0.12599610  0.54768159  1
  O  O259  1  0.12731430  0.12158561  0.80316841  1
  O  O260  1  0.12370811  0.37661596  0.04402650  1
  O  O261  1  0.13743033  0.37665853  0.28641184  1
  O  O262  1  0.12071797  0.37381045  0.55471909  1
  O  O263  1  0.11686535  0.37032217  0.78080909  1
  O  O264  1  0.11967121  0.63212973  0.03172389  1
  O  O265  1  0.13194975  0.62231750  0.29707573  1
  O  O266  1  0.12295195  0.62449173  0.55365158  1
  O  O267  1  0.11628625  0.63442104  0.78502982  1
  O  O268  1  0.12300972  0.87234870  0.05047461  1
  O  O269  1  0.13504366  0.87023555  0.28876133  1
  O  O270  1  0.12092889  0.87910656  0.53254533  1
  O  O271  1  0.12315565  0.87873770  0.79830568  1
  O  O272  1  0.37390584  0.12295898  0.05112632  1
  O  O273  1  0.38191765  0.12672446  0.28172905  1
  O  O274  1  0.37632073  0.12213362  0.54615198  1
  O  O275  1  0.37479447  0.12061471  0.80070991  1
  O  O276  1  0.37687535  0.37658327  0.03507292  1
  O  O277  1  0.36306898  0.37803088  0.28328656  1
  O  O278  1  0.37761546  0.37810114  0.54157713  1
  O  O279  1  0.37619943  0.36631571  0.78135359  1
  O  O280  1  0.37591230  0.62882529  0.04549469  1
  O  O281  1  0.37234446  0.62096700  0.29947960  1
  O  O282  1  0.37165074  0.62786696  0.54652169  1
  O  O283  1  0.37189824  0.63265592  0.77425787  1
  O  O284  1  0.37422504  0.87319356  0.05234735  1
  O  O285  1  0.36681305  0.87196714  0.27981365  1
  O  O286  1  0.37759387  0.87775972  0.55039702  1
  O  O287  1  0.37870827  0.88273485  0.78717748  1
  O  O288  1  0.61911690  0.12228627  0.04587054  1
  O  O289  1  0.61950437  0.13261408  0.27293347  1
  O  O290  1  0.62671242  0.12283517  0.54768946  1
  O  O291  1  0.62350478  0.12364894  0.80089369  1
  O  O292  1  0.62385048  0.37966707  0.04671359  1
  O  O293  1  0.62089873  0.37846825  0.29477796  1
  O  O294  1  0.62075254  0.37280757  0.53702340  1
  O  O295  1  0.63695015  0.37130145  0.78547839  1
  O  O296  1  0.62335779  0.62333905  0.05389124  1
  O  O297  1  0.61815236  0.62185821  0.28013382  1
  O  O298  1  0.62599562  0.62526670  0.54722609  1
  O  O299  1  0.62968366  0.62803427  0.79627783  1
  O  O300  1  0.62485021  0.87290614  0.05804848  1
  O  O301  1  0.62329829  0.86331178  0.27508697  1
  O  O302  1  0.62638842  0.87709894  0.54779760  1
  O  O303  1  0.62441272  0.87300751  0.78797727  1
  O  O304  1  0.87829953  0.12367759  0.04467781  1
  O  O305  1  0.87645187  0.12905054  0.27405754  1
  O  O306  1  0.87389827  0.12407191  0.54879771  1
  O  O307  1  0.87481306  0.11539116  0.78597253  1
  O  O308  1  0.87223807  0.38025202  0.05055692  1
  O  O309  1  0.88199921  0.38159303  0.27988659  1
  O  O310  1  0.87660436  0.37381755  0.55030815  1
  O  O311  1  0.86594090  0.37145302  0.78701945  1
  O  O312  1  0.87448376  0.62572640  0.05293996  1
  O  O313  1  0.87988472  0.61475157  0.28120346  1
  O  O314  1  0.87398801  0.62042017  0.53617770  1
  O  O315  1  0.87194009  0.62837117  0.79666382  1
  O  O316  1  0.87371762  0.87022088  0.05896834  1
  O  O317  1  0.88294786  0.87025986  0.27408806  1
  O  O318  1  0.87372035  0.87708904  0.54738730  1
  O  O319  1  0.87049920  0.88126581  0.78934508  1
