# generated using pymatgen
data_VFe(PbO3)2
_symmetry_space_group_name_H-M   'P 1'
_cell_length_a   15.38563378
_cell_length_b   15.38802992
_cell_length_c   18.54333629
_cell_angle_alpha   90.04122931
_cell_angle_beta   89.94233970
_cell_angle_gamma   89.99484902
_symmetry_Int_Tables_number   1
_chemical_formula_structural   VFe(PbO3)2
_chemical_formula_sum   'V32 Fe32 Pb64 O192'
_cell_volume   4390.21665823
_cell_formula_units_Z   32
loop_
 _symmetry_equiv_pos_site_id
 _symmetry_equiv_pos_as_xyz
  1  'x, y, z'
loop_
 _atom_site_type_symbol
 _atom_site_label
 _atom_site_symmetry_multiplicity
 _atom_site_fract_x
 _atom_site_fract_y
 _atom_site_fract_z
 _atom_site_occupancy
  V  V0  1  0.87263354  0.62764680  0.89245566  1
  V  V1  1  0.87510799  0.12926488  0.88440984  1
  V  V2  1  0.87295800  0.62734776  0.63644730  1
  V  V3  1  0.61783010  0.37350111  0.13970368  1
  V  V4  1  0.37741951  0.87455033  0.63929261  1
  V  V5  1  0.36812180  0.37286701  0.13645793  1
  V  V6  1  0.87005918  0.87605274  0.38772875  1
  V  V7  1  0.37700553  0.12641393  0.64662739  1
  V  V8  1  0.12595928  0.12581714  0.13621670  1
  V  V9  1  0.87485104  0.87765951  0.89095647  1
  V  V10  1  0.62714953  0.62415382  0.64046963  1
  V  V11  1  0.62576233  0.37398461  0.64192945  1
  V  V12  1  0.37470421  0.87342843  0.88672596  1
  V  V13  1  0.12930195  0.12681507  0.39834647  1
  V  V14  1  0.12482040  0.87684071  0.39489706  1
  V  V15  1  0.61990396  0.87554211  0.38902384  1
  V  V16  1  0.12653145  0.37423728  0.39439416  1
  V  V17  1  0.12131290  0.62794706  0.88746029  1
  V  V18  1  0.62293459  0.62346674  0.38666388  1
  V  V19  1  0.12701440  0.37748252  0.64158898  1
  V  V20  1  0.37359068  0.62736745  0.88675703  1
  V  V21  1  0.37537545  0.62689900  0.39585645  1
  V  V22  1  0.11908445  0.37203407  0.13750708  1
  V  V23  1  0.87369292  0.37748658  0.63839725  1
  V  V24  1  0.37414723  0.37190174  0.39516812  1
  V  V25  1  0.86822442  0.37158424  0.14077141  1
  V  V26  1  0.62363517  0.62612252  0.89251891  1
  V  V27  1  0.12508330  0.87557793  0.13878555  1
  V  V28  1  0.37507110  0.12136241  0.39488658  1
  V  V29  1  0.87222356  0.87662237  0.63480309  1
  V  V30  1  0.37330645  0.87605889  0.39232925  1
  V  V31  1  0.37286964  0.87490929  0.13584188  1
  Fe  Fe32  1  0.12381394  0.87204002  0.88123126  1
  Fe  Fe33  1  0.37720269  0.62721663  0.63536418  1
  Fe  Fe34  1  0.87784843  0.12503603  0.13464379  1
  Fe  Fe35  1  0.12165669  0.12151154  0.87541224  1
  Fe  Fe36  1  0.12936253  0.62393608  0.39358117  1
  Fe  Fe37  1  0.12810150  0.62149176  0.13787872  1
  Fe  Fe38  1  0.37736714  0.37760997  0.64729599  1
  Fe  Fe39  1  0.12065523  0.37697832  0.87899171  1
  Fe  Fe40  1  0.62486668  0.87379708  0.12709485  1
  Fe  Fe41  1  0.12405745  0.87359644  0.63866469  1
  Fe  Fe42  1  0.12316677  0.12657475  0.64295944  1
  Fe  Fe43  1  0.87734769  0.12432713  0.39468880  1
  Fe  Fe44  1  0.62585493  0.87302772  0.63592773  1
  Fe  Fe45  1  0.12291441  0.62381711  0.62972999  1
  Fe  Fe46  1  0.62280528  0.12422852  0.38512521  1
  Fe  Fe47  1  0.62432725  0.12589780  0.13347006  1
  Fe  Fe48  1  0.87779366  0.87603443  0.13400517  1
  Fe  Fe49  1  0.37261761  0.12647992  0.12959789  1
  Fe  Fe50  1  0.87353126  0.12678537  0.63080631  1
  Fe  Fe51  1  0.62540334  0.87311440  0.89621658  1
  Fe  Fe52  1  0.62703905  0.12396837  0.64176227  1
  Fe  Fe53  1  0.37454025  0.12383966  0.88033354  1
  Fe  Fe54  1  0.62312348  0.62143678  0.13355538  1
  Fe  Fe55  1  0.62096291  0.37365622  0.38278861  1
  Fe  Fe56  1  0.87742524  0.62306861  0.13871080  1
  Fe  Fe57  1  0.87417846  0.37482867  0.38485672  1
  Fe  Fe58  1  0.87587435  0.62742560  0.38355143  1
  Fe  Fe59  1  0.62723325  0.12391839  0.88203776  1
  Fe  Fe60  1  0.37384547  0.62094330  0.13367021  1
  Fe  Fe61  1  0.87413633  0.38040228  0.88453646  1
  Fe  Fe62  1  0.37403979  0.37903787  0.87510948  1
  Fe  Fe63  1  0.62762905  0.37686827  0.88244806  1
  Pb  Pb64  1  -0.00667195  -0.00096175  -0.00246265  1
  Pb  Pb65  1  -0.00841749  0.00738593  0.25206957  1
  Pb  Pb66  1  0.00455872  0.00378195  0.50745890  1
  Pb  Pb67  1  0.00547172  0.00314841  0.74431504  1
  Pb  Pb68  1  0.00258580  0.25269561  -0.00969077  1
  Pb  Pb69  1  -0.01280960  0.24791684  0.25949222  1
  Pb  Pb70  1  -0.00349312  0.24407206  0.50446524  1
  Pb  Pb71  1  0.00250382  0.25488520  0.74908520  1
  Pb  Pb72  1  -0.00001526  0.50944974  0.00268550  1
  Pb  Pb73  1  -0.00473822  0.50223366  0.25472900  1
  Pb  Pb74  1  0.00151929  0.50768278  0.49618362  1
  Pb  Pb75  1  -0.00389377  0.49380055  0.75123740  1
  Pb  Pb76  1  -0.00722999  0.74934247  0.00594251  1
  Pb  Pb77  1  -0.00152092  0.73848080  0.24921434  1
  Pb  Pb78  1  0.00762211  0.74930702  0.50032598  1
  Pb  Pb79  1  0.00304482  0.75191142  0.74602868  1
  Pb  Pb80  1  0.24909003  0.00608043  -0.01110383  1
  Pb  Pb81  1  0.24969536  0.00014485  0.24696230  1
  Pb  Pb82  1  0.24157186  -0.00083389  0.51219899  1
  Pb  Pb83  1  0.24629863  0.00280498  0.75051815  1
  Pb  Pb84  1  0.25096549  0.24963618  -0.01787773  1
  Pb  Pb85  1  0.24868203  0.25028842  0.24800690  1
  Pb  Pb86  1  0.25012054  0.24736656  0.51158499  1
  Pb  Pb87  1  0.25262480  0.24649590  0.75524936  1
  Pb  Pb88  1  0.24708475  0.50490484  -0.00524768  1
  Pb  Pb89  1  0.24463484  0.50576115  0.25410847  1
  Pb  Pb90  1  0.26199049  0.49968425  0.50947995  1
  Pb  Pb91  1  0.25296031  0.50243957  0.74572950  1
  Pb  Pb92  1  0.24878538  0.74161922  0.00047719  1
  Pb  Pb93  1  0.24525894  0.74318359  0.25191598  1
  Pb  Pb94  1  0.24504627  0.74981207  0.50657074  1
  Pb  Pb95  1  0.24324124  0.75103885  0.74408589  1
  Pb  Pb96  1  0.50995042  0.01041669  -0.00421356  1
  Pb  Pb97  1  0.50426101  0.00644550  0.24115437  1
  Pb  Pb98  1  0.51201232  0.00098760  0.50700274  1
  Pb  Pb99  1  0.50523996  0.00349220  0.75341951  1
  Pb  Pb100  1  0.49638285  0.24850461  -0.01454272  1
  Pb  Pb101  1  0.50646156  0.24611824  0.25119436  1
  Pb  Pb102  1  0.50463658  0.24889091  0.50227887  1
  Pb  Pb103  1  0.49690489  0.24487088  0.75764974  1
  Pb  Pb104  1  0.49754645  0.50417592  -0.00401524  1
  Pb  Pb105  1  0.50148404  0.49396179  0.24950970  1
  Pb  Pb106  1  0.48917034  0.49726710  0.50858811  1
  Pb  Pb107  1  0.50054973  0.49586012  0.75204326  1
  Pb  Pb108  1  0.50484143  0.74924724  0.00439903  1
  Pb  Pb109  1  0.50061754  0.74770143  0.24132317  1
  Pb  Pb110  1  0.49980379  0.75175652  0.50241460  1
  Pb  Pb111  1  0.50731323  0.75815012  0.75378217  1
  Pb  Pb112  1  0.74949473  0.00958073  0.00444845  1
  Pb  Pb113  1  0.74649584  0.00177272  0.24071400  1
  Pb  Pb114  1  0.74617835  0.01434121  0.50377671  1
  Pb  Pb115  1  0.74174353  0.00505187  0.74935228  1
  Pb  Pb116  1  0.74376548  0.24877812  -0.00507450  1
  Pb  Pb117  1  0.74753629  0.23765877  0.25447674  1
  Pb  Pb118  1  0.74827402  0.24639083  0.49302765  1
  Pb  Pb119  1  0.74485808  0.25060356  0.75075120  1
  Pb  Pb120  1  0.74910695  0.50732126  0.00275778  1
  Pb  Pb121  1  0.75649621  0.49783849  0.25033233  1
  Pb  Pb122  1  0.75231961  0.49712390  0.49180275  1
  Pb  Pb123  1  0.75061718  0.49339152  0.75441326  1
  Pb  Pb124  1  0.75140104  0.75646693  0.00788827  1
  Pb  Pb125  1  0.75189798  0.74806928  0.23796492  1
  Pb  Pb126  1  0.74406109  0.75738414  0.49735108  1
  Pb  Pb127  1  0.74571154  0.75768346  0.75390178  1
  O  O128  1  0.13059081  -0.00070210  0.16322716  1
  O  O129  1  0.13033300  -0.00081338  0.42139593  1
  O  O130  1  0.12468516  -0.00207554  0.66297904  1
  O  O131  1  0.12224134  -0.00361677  0.90754030  1
  O  O132  1  0.12936022  0.25330486  0.16460833  1
  O  O133  1  0.13091496  0.25252926  0.42398074  1
  O  O134  1  0.12081950  0.25895993  0.66360963  1
  O  O135  1  0.11861923  0.24790878  0.90548740  1
  O  O136  1  0.13067749  0.48770751  0.16483675  1
  O  O137  1  0.13137449  0.49094524  0.41420024  1
  O  O138  1  0.12040050  0.49663263  0.66121224  1
  O  O139  1  0.12114800  0.51077712  0.90954167  1
  O  O140  1  0.12969190  0.75669349  0.16274317  1
  O  O141  1  0.13033179  0.75793758  0.41421463  1
  O  O142  1  0.12252096  0.74771439  0.66284348  1
  O  O143  1  0.12340439  0.74451609  0.91482023  1
  O  O144  1  0.36973888  -0.00532253  0.16178224  1
  O  O145  1  0.37237351  0.00359783  0.41853509  1
  O  O146  1  0.37754174  -0.00235671  0.66670745  1
  O  O147  1  0.37312138  -0.00961107  0.90467067  1
  O  O148  1  0.37433277  0.25699468  0.16320464  1
  O  O149  1  0.37458468  0.24435520  0.42089959  1
  O  O150  1  0.37670153  0.24578241  0.66348999  1
  O  O151  1  0.37394967  0.25275964  0.90338371  1
  O  O152  1  0.37378596  0.48805901  0.16501494  1
  O  O153  1  0.37600292  0.49906837  0.41965988  1
  O  O154  1  0.37894255  0.50507604  0.66967169  1
  O  O155  1  0.37374996  0.50783188  0.90747363  1
  O  O156  1  0.37041521  0.75625935  0.16103896  1
  O  O157  1  0.37569024  0.75337185  0.41919827  1
  O  O158  1  0.37814299  0.75607798  0.66075030  1
  O  O159  1  0.37420412  0.74714623  0.91681649  1
  O  O160  1  0.62226685  -0.00204771  0.15951278  1
  O  O161  1  0.62199863  -0.00485188  0.41322625  1
  O  O162  1  0.62492846  -0.00360404  0.66554798  1
  O  O163  1  0.62772751  -0.00096277  0.91171034  1
  O  O164  1  0.62506165  0.25693586  0.16365949  1
  O  O165  1  0.61938437  0.24884747  0.41532981  1
  O  O166  1  0.62890682  0.25751277  0.66041567  1
  O  O167  1  0.62976557  0.24978390  0.90953923  1
  O  O168  1  0.62457070  0.48991919  0.16602169  1
  O  O169  1  0.62242553  0.50868324  0.40763339  1
  O  O170  1  0.62873477  0.50282793  0.66436970  1
  O  O171  1  0.62806501  0.50881661  0.91382578  1
  O  O172  1  0.62027555  0.74942901  0.16016006  1
  O  O173  1  0.62237296  0.75056737  0.41572599  1
  O  O174  1  0.62775486  0.74471789  0.66585144  1
  O  O175  1  0.62621755  0.74146156  0.91936625  1
  O  O176  1  0.87977007  0.00048287  0.16734868  1
  O  O177  1  0.88045238  -0.01095126  0.41582106  1
  O  O178  1  0.87334174  -0.00845339  0.65622501  1
  O  O179  1  0.87563744  -0.00459868  0.90814187  1
  O  O180  1  0.88079605  0.25535636  0.16493393  1
  O  O181  1  0.87879807  0.25199521  0.41773766  1
  O  O182  1  0.87227185  0.26099272  0.65654894  1
  O  O183  1  0.87484150  0.24515780  0.90368769  1
  O  O184  1  0.87970448  0.48904843  0.16590502  1
  O  O185  1  0.87560482  0.50184060  0.41426701  1
  O  O186  1  0.87088368  0.50083896  0.66332741  1
  O  O187  1  0.87611702  0.51102693  0.91480654  1
  O  O188  1  0.88085981  0.75085944  0.16413411  1
  O  O189  1  0.87899320  0.75929067  0.41298618  1
  O  O190  1  0.87130760  0.74879117  0.66250177  1
  O  O191  1  0.87645274  0.74596878  0.91785404  1
  O  O192  1  0.00839426  0.12651802  0.16647062  1
  O  O193  1  0.00824598  0.12330024  0.42051708  1
  O  O194  1  -0.00521061  0.12643456  0.66203237  1
  O  O195  1  -0.00856843  0.11980415  0.90767718  1
  O  O196  1  0.00612058  0.37282914  0.15997863  1
  O  O197  1  0.01070893  0.37337748  0.41536191  1
  O  O198  1  -0.00566545  0.37976422  0.65966567  1
  O  O199  1  -0.00288438  0.37883816  0.91706624  1
  O  O200  1  0.00490634  0.61994597  0.16734288  1
  O  O201  1  0.00173730  0.62714611  0.41364497  1
  O  O202  1  -0.00844837  0.62424807  0.65934121  1
  O  O203  1  -0.00023270  0.62828083  0.91237264  1
  O  O204  1  0.01192568  0.87748658  0.16414190  1
  O  O205  1  0.00757644  0.87694905  0.41369004  1
  O  O206  1  -0.01020044  0.87040931  0.65964468  1
  O  O207  1  -0.00676176  0.86926611  0.91240851  1
  O  O208  1  0.24737747  0.12744643  0.16705984  1
  O  O209  1  0.25478961  0.12532984  0.42536999  1
  O  O210  1  0.25663731  0.12492333  0.66548924  1
  O  O211  1  0.24787330  0.12255423  0.90368282  1
  O  O212  1  0.25115296  0.37099000  0.16226023  1
  O  O213  1  0.25159608  0.37188454  0.42384869  1
  O  O214  1  0.24349164  0.37704429  0.66156429  1
  O  O215  1  0.24697325  0.37954466  0.90348054  1
  O  O216  1  0.25233725  0.62202179  0.17088960  1
  O  O217  1  0.25660489  0.62601220  0.41941869  1
  O  O218  1  0.24925726  0.62449496  0.65840395  1
  O  O219  1  0.24514712  0.62701678  0.90877961  1
  O  O220  1  0.24895096  0.87646404  0.16762003  1
  O  O221  1  0.25040366  0.87760428  0.42080954  1
  O  O222  1  0.25896626  0.87566349  0.66220919  1
  O  O223  1  0.25592063  0.86804456  0.91072017  1
  O  O224  1  0.49654427  0.12664480  0.16126444  1
  O  O225  1  0.49194827  0.12227842  0.41685747  1
  O  O226  1  0.49682004  0.12484004  0.66770822  1
  O  O227  1  0.49988244  0.12312011  0.90569356  1
  O  O228  1  0.49827497  0.37357537  0.15919990  1
  O  O229  1  0.49443117  0.37420079  0.41828438  1
  O  O230  1  0.51013140  0.37849064  0.66371160  1
  O  O231  1  0.50038303  0.38037812  0.90740898  1
  O  O232  1  0.49655968  0.61998762  0.16589192  1
  O  O233  1  0.50442919  0.62940798  0.41655309  1
  O  O234  1  0.51125058  0.62503870  0.66514510  1
  O  O235  1  0.50249665  0.62578758  0.91033118  1
  O  O236  1  0.49001353  0.87556167  0.15677765  1
  O  O237  1  0.49719616  0.87567951  0.41798598  1
  O  O238  1  0.49589956  0.87452287  0.66602823  1
  O  O239  1  0.49057166  0.86819247  0.91487871  1
  O  O240  1  0.75119811  0.12824432  0.16462635  1
  O  O241  1  0.74922402  0.12174824  0.41188606  1
  O  O242  1  0.75321252  0.12539131  0.66592263  1
  O  O243  1  0.75924303  0.12013044  0.91128256  1
  O  O244  1  0.75219630  0.37325544  0.15909161  1
  O  O245  1  0.74662985  0.37657836  0.41173132  1
  O  O246  1  0.75030551  0.38046097  0.66334453  1
  O  O247  1  0.75206208  0.38012008  0.91841601  1
  O  O248  1  0.74982192  0.61913317  0.16274011  1
  O  O249  1  0.74167189  0.63086438  0.40922220  1
  O  O250  1  0.74766554  0.62507323  0.66757131  1
  O  O251  1  0.75224010  0.62748035  0.91458471  1
  O  O252  1  0.75017181  0.87381986  0.15824383  1
  O  O253  1  0.75203448  0.87258177  0.40590096  1
  O  O254  1  0.75552499  0.87053385  0.66375612  1
  O  O255  1  0.75895261  0.86721659  0.91597301  1
  O  O256  1  0.12564669  0.12582843  0.04541562  1
  O  O257  1  0.13239462  0.12861009  0.30765138  1
  O  O258  1  0.13000829  0.12481351  0.54115741  1
  O  O259  1  0.12277706  0.12452072  0.77409335  1
  O  O260  1  0.12199338  0.37173563  0.04655875  1
  O  O261  1  0.13063265  0.36736360  0.30367051  1
  O  O262  1  0.12437733  0.37546409  0.55052918  1
  O  O263  1  0.11029855  0.37868406  0.77896622  1
  O  O264  1  0.13036649  0.61934472  0.03805691  1
  O  O265  1  0.13647807  0.62371981  0.29260119  1
  O  O266  1  0.12175891  0.63016174  0.52902476  1
  O  O267  1  0.12038241  0.63008586  0.79642720  1
  O  O268  1  0.12694157  0.87632560  0.04819156  1
  O  O269  1  0.12922980  0.88176173  0.30447359  1
  O  O270  1  0.12784662  0.87315604  0.53780578  1
  O  O271  1  0.12307962  0.86626561  0.78090586  1
  O  O272  1  0.36896875  0.12555407  0.03068175  1
  O  O273  1  0.37135161  0.12375688  0.30430243  1
  O  O274  1  0.37847362  0.12187894  0.55535304  1
  O  O275  1  0.37622626  0.12804448  0.77894235  1
  O  O276  1  0.36946225  0.37434918  0.04593680  1
  O  O277  1  0.37084121  0.37175907  0.30432421  1
  O  O278  1  0.37764714  0.38547217  0.54583050  1
  O  O279  1  0.37717046  0.37680259  0.77330286  1
  O  O280  1  0.36786665  0.61869208  0.03404286  1
  O  O281  1  0.37662572  0.62465854  0.30480489  1
  O  O282  1  0.38345117  0.61920514  0.53513384  1
  O  O283  1  0.37499646  0.63109223  0.79570688  1
  O  O284  1  0.36729940  0.87480048  0.04576168  1
  O  O285  1  0.37304651  0.87585206  0.30168581  1
  O  O286  1  0.37938993  0.87779513  0.54834954  1
  O  O287  1  0.37766701  0.86689798  0.79574481  1
  O  O288  1  0.63010467  0.12169895  0.03289591  1
  O  O289  1  0.61976684  0.12945563  0.28456282  1
  O  O290  1  0.62428594  0.11793621  0.53999452  1
  O  O291  1  0.63024110  0.12545825  0.78004993  1
  O  O292  1  0.62203092  0.37457435  0.04906306  1
  O  O293  1  0.61500832  0.37256765  0.28353401  1
  O  O294  1  0.62724471  0.37781456  0.55089231  1
  O  O295  1  0.63379045  0.37933978  0.78210293  1
  O  O296  1  0.62017460  0.61706192  0.03403007  1
  O  O297  1  0.61829991  0.62741477  0.29588524  1
  O  O298  1  0.62843473  0.62538496  0.54972685  1
  O  O299  1  0.62695675  0.62880870  0.80149998  1
  O  O300  1  0.62247144  0.86754849  0.02595657  1
  O  O301  1  0.61723891  0.87242197  0.29842137  1
  O  O302  1  0.62501235  0.87043878  0.53586826  1
  O  O303  1  0.62523982  0.86224963  0.79452627  1
  O  O304  1  0.87659722  0.11800055  0.03525676  1
  O  O305  1  0.88637628  0.12879086  0.29317637  1
  O  O306  1  0.87429004  0.12120266  0.52938075  1
  O  O307  1  0.87281803  0.12383478  0.79352813  1
  O  O308  1  0.87457076  0.37294972  0.05036677  1
  O  O309  1  0.88077135  0.37281387  0.28479496  1
  O  O310  1  0.87140774  0.38286708  0.54761996  1
  O  O311  1  0.87535361  0.38569723  0.78417872  1
  O  O312  1  0.88380100  0.62171406  0.03790049  1
  O  O313  1  0.87893258  0.62058397  0.28343205  1
  O  O314  1  0.86959922  0.62705528  0.54541642  1
  O  O315  1  0.87306557  0.62916858  0.80184503  1
  O  O316  1  0.88352604  0.87418421  0.03398506  1
  O  O317  1  0.87843502  0.87782844  0.29711158  1
  O  O318  1  0.86990162  0.87259549  0.54384779  1
  O  O319  1  0.87265548  0.87221312  0.80000065  1
