# generated using pymatgen
data_VFe(PbO3)2
_symmetry_space_group_name_H-M   'P 1'
_cell_length_a   15.37613236
_cell_length_b   15.37320542
_cell_length_c   18.55060751
_cell_angle_alpha   89.96889206
_cell_angle_beta   89.99152611
_cell_angle_gamma   89.98935089
_symmetry_Int_Tables_number   1
_chemical_formula_structural   VFe(PbO3)2
_chemical_formula_sum   'V32 Fe32 Pb64 O192'
_cell_volume   4385.00001937
_cell_formula_units_Z   32
loop_
 _symmetry_equiv_pos_site_id
 _symmetry_equiv_pos_as_xyz
  1  'x, y, z'
loop_
 _atom_site_type_symbol
 _atom_site_label
 _atom_site_symmetry_multiplicity
 _atom_site_fract_x
 _atom_site_fract_y
 _atom_site_fract_z
 _atom_site_occupancy
  V  V0  1  0.87500751  0.12934087  0.63789777  1
  V  V1  1  0.87635324  0.12737785  0.88741046  1
  V  V2  1  0.87392556  0.62732750  0.63817322  1
  V  V3  1  0.12365347  0.87378342  0.89318075  1
  V  V4  1  0.87865671  0.87553825  0.63595587  1
  V  V5  1  0.12376014  0.62526059  0.64155271  1
  V  V6  1  0.12485686  0.12680943  0.13804760  1
  V  V7  1  0.87322568  0.37022922  0.13852908  1
  V  V8  1  0.12731121  0.87247213  0.63790620  1
  V  V9  1  0.37599811  0.37232927  0.13684516  1
  V  V10  1  0.37536420  0.87376187  0.38881376  1
  V  V11  1  0.37486430  0.62509397  0.64275267  1
  V  V12  1  0.12465066  0.37512047  0.64135381  1
  V  V13  1  0.87439442  0.87913495  0.14135767  1
  V  V14  1  0.62385420  0.12694757  0.13766267  1
  V  V15  1  0.62568715  0.62168904  0.39090792  1
  V  V16  1  0.87455094  0.87268794  0.38684392  1
  V  V17  1  0.12478290  0.62207885  0.38628912  1
  V  V18  1  0.37523570  0.62486762  0.14196593  1
  V  V19  1  0.87309062  0.12201262  0.38999728  1
  V  V20  1  0.37682233  0.12460291  0.39233774  1
  V  V21  1  0.37800647  0.87382328  0.88741770  1
  V  V22  1  0.62521565  0.37777176  0.63991948  1
  V  V23  1  0.87369853  0.37299513  0.39052324  1
  V  V24  1  0.37469300  0.12493068  0.13540207  1
  V  V25  1  0.62219645  0.62954179  0.88836283  1
  V  V26  1  0.87513200  0.62520048  0.89129393  1
  V  V27  1  0.87575599  0.87491032  0.89211718  1
  V  V28  1  0.62301005  0.62159293  0.13886338  1
  V  V29  1  0.37652022  0.87212809  0.63597008  1
  V  V30  1  0.12577773  0.62208019  0.13887362  1
  V  V31  1  0.62405770  0.37232089  0.39172823  1
  Fe  Fe32  1  0.87429615  0.62338036  0.37871658  1
  Fe  Fe33  1  0.62561409  0.62567549  0.63417113  1
  Fe  Fe34  1  0.12460198  0.12577265  0.39006500  1
  Fe  Fe35  1  0.12569520  0.87638463  0.38439130  1
  Fe  Fe36  1  0.37517900  0.87784909  0.13651419  1
  Fe  Fe37  1  0.37376864  0.12144696  0.87599740  1
  Fe  Fe38  1  0.62636621  0.12043497  0.87868889  1
  Fe  Fe39  1  0.87516115  0.12453002  0.13421022  1
  Fe  Fe40  1  0.62497072  0.12729625  0.39427037  1
  Fe  Fe41  1  0.12190715  0.37557360  0.88163792  1
  Fe  Fe42  1  0.63036754  0.87347749  0.89093398  1
  Fe  Fe43  1  0.12401283  0.62875655  0.88532273  1
  Fe  Fe44  1  0.37521515  0.37712680  0.87344384  1
  Fe  Fe45  1  0.62842997  0.12449562  0.63761112  1
  Fe  Fe46  1  0.87638199  0.37925678  0.64291512  1
  Fe  Fe47  1  0.37577382  0.37403549  0.38881129  1
  Fe  Fe48  1  0.87517758  0.62558423  0.14558713  1
  Fe  Fe49  1  0.62516797  0.37553847  0.13134320  1
  Fe  Fe50  1  0.12178695  0.12355285  0.64010488  1
  Fe  Fe51  1  0.37596726  0.62375709  0.38213212  1
  Fe  Fe52  1  0.62330274  0.87452514  0.13442624  1
  Fe  Fe53  1  0.62404876  0.87675600  0.39282163  1
  Fe  Fe54  1  0.62696991  0.87079739  0.63124144  1
  Fe  Fe55  1  0.12358976  0.12085922  0.87974341  1
  Fe  Fe56  1  0.62963147  0.37597081  0.88674317  1
  Fe  Fe57  1  0.12656601  0.87468742  0.13912134  1
  Fe  Fe58  1  0.37284132  0.62851905  0.88254264  1
  Fe  Fe59  1  0.12507178  0.37520708  0.13849380  1
  Fe  Fe60  1  0.87497458  0.37676254  0.87732276  1
  Fe  Fe61  1  0.12477025  0.37365284  0.38286895  1
  Fe  Fe62  1  0.37417153  0.37650166  0.64549531  1
  Fe  Fe63  1  0.37381110  0.12222182  0.64378712  1
  Pb  Pb64  1  -0.00374334  0.00317613  0.00387926  1
  Pb  Pb65  1  0.00938954  0.00266100  0.25272242  1
  Pb  Pb66  1  0.00671716  0.00559866  0.50080431  1
  Pb  Pb67  1  -0.00058097  0.00304359  0.74985910  1
  Pb  Pb68  1  0.00711349  0.25524222  -0.00350741  1
  Pb  Pb69  1  0.00881409  0.24867958  0.25347331  1
  Pb  Pb70  1  0.00319877  0.25114156  0.50066563  1
  Pb  Pb71  1  0.00644222  0.25738811  0.75268141  1
  Pb  Pb72  1  0.00735861  0.49298964  -0.00103522  1
  Pb  Pb73  1  -0.00118652  0.49692563  0.24876106  1
  Pb  Pb74  1  -0.00602326  0.49311585  0.50011023  1
  Pb  Pb75  1  0.00680473  0.49964276  0.75460905  1
  Pb  Pb76  1  -0.00462889  0.74556564  0.00762029  1
  Pb  Pb77  1  0.00133925  0.75293721  0.25005940  1
  Pb  Pb78  1  -0.00159292  0.74756605  0.49363587  1
  Pb  Pb79  1  0.00227814  0.74539911  0.75192578  1
  Pb  Pb80  1  0.24910078  -0.00632269  -0.00099671  1
  Pb  Pb81  1  0.24497203  0.00140171  0.24994429  1
  Pb  Pb82  1  0.24838678  0.01011518  0.50358532  1
  Pb  Pb83  1  0.24804911  0.00770092  0.75069359  1
  Pb  Pb84  1  0.24969988  0.25091993  -0.01749372  1
  Pb  Pb85  1  0.24607394  0.25408475  0.25152128  1
  Pb  Pb86  1  0.24914592  0.24858628  0.50202029  1
  Pb  Pb87  1  0.25480885  0.24736188  0.74810052  1
  Pb  Pb88  1  0.24899479  0.49857316  -0.01204246  1
  Pb  Pb89  1  0.25915034  0.49593392  0.25223503  1
  Pb  Pb90  1  0.25551448  0.49137240  0.49832623  1
  Pb  Pb91  1  0.24931311  0.50028379  0.75483841  1
  Pb  Pb92  1  0.25005211  0.75722585  0.00382222  1
  Pb  Pb93  1  0.24942004  0.75354613  0.24818485  1
  Pb  Pb94  1  0.25137960  0.74846635  0.49487365  1
  Pb  Pb95  1  0.24974554  0.74173209  0.75561850  1
  Pb  Pb96  1  0.50501119  -0.00137096  -0.00546746  1
  Pb  Pb97  1  0.50667881  -0.00299743  0.25150560  1
  Pb  Pb98  1  0.50140112  0.00701211  0.50482329  1
  Pb  Pb99  1  0.50843122  0.00658093  0.74793793  1
  Pb  Pb100  1  0.49963257  0.24876917  -0.01841443  1
  Pb  Pb101  1  0.49630633  0.25131229  0.24871797  1
  Pb  Pb102  1  0.48263597  0.24549838  0.51494800  1
  Pb  Pb103  1  0.49795698  0.24420323  0.74792770  1
  Pb  Pb104  1  0.49811207  0.49417944  -0.00872007  1
  Pb  Pb105  1  0.49077144  0.49643057  0.25313986  1
  Pb  Pb106  1  0.49475962  0.49655246  0.50223792  1
  Pb  Pb107  1  0.50155672  0.49290788  0.75451263  1
  Pb  Pb108  1  0.49875325  0.76161059  0.00464307  1
  Pb  Pb109  1  0.50285466  0.75418282  0.24935837  1
  Pb  Pb110  1  0.51006829  0.74694487  0.50144829  1
  Pb  Pb111  1  0.50057798  0.75094020  0.74938387  1
  Pb  Pb112  1  0.75115787  0.00349713  0.00103456  1
  Pb  Pb113  1  0.73630158  0.00091127  0.25483017  1
  Pb  Pb114  1  0.74039550  0.00095336  0.50402828  1
  Pb  Pb115  1  0.73974793  -0.00460249  0.74889056  1
  Pb  Pb116  1  0.74627616  0.25378395  -0.00587045  1
  Pb  Pb117  1  0.74338439  0.24207033  0.25026621  1
  Pb  Pb118  1  0.74776450  0.24869502  0.50613391  1
  Pb  Pb119  1  0.74474624  0.25799253  0.75203265  1
  Pb  Pb120  1  0.75134951  0.49670090  0.00069602  1
  Pb  Pb121  1  0.75326681  0.50146262  0.24861925  1
  Pb  Pb122  1  0.75490969  0.49694431  0.50218551  1
  Pb  Pb123  1  0.74956888  0.49399798  0.75319634  1
  Pb  Pb124  1  0.75589604  0.74460656  0.00762220  1
  Pb  Pb125  1  0.74760070  0.75345402  0.25010110  1
  Pb  Pb126  1  0.74207917  0.74730113  0.50105823  1
  Pb  Pb127  1  0.74210169  0.75547939  0.74952070  1
  O  O128  1  0.12620940  0.00751099  0.16356022  1
  O  O129  1  0.12392880  -0.00058474  0.41780965  1
  O  O130  1  0.11995609  -0.01137389  0.66142590  1
  O  O131  1  0.12127848  -0.00826928  0.91564366  1
  O  O132  1  0.12457472  0.24509218  0.16447239  1
  O  O133  1  0.12295038  0.25029523  0.41853075  1
  O  O134  1  0.12151352  0.25639091  0.65929325  1
  O  O135  1  0.12013796  0.24651707  0.90823973  1
  O  O136  1  0.12504324  0.50451946  0.16357392  1
  O  O137  1  0.12399121  0.50582922  0.41062126  1
  O  O138  1  0.12405797  0.50227978  0.66577879  1
  O  O139  1  0.11958875  0.50323364  0.91215772  1
  O  O140  1  0.12686869  0.74266703  0.16454419  1
  O  O141  1  0.12445847  0.74629884  0.41177608  1
  O  O142  1  0.12214287  0.75315603  0.66629437  1
  O  O143  1  0.12171555  0.75737606  0.91766155  1
  O  O144  1  0.37508089  0.00810974  0.16411275  1
  O  O145  1  0.37557532  0.00226615  0.41515657  1
  O  O146  1  0.36945201  -0.01437694  0.66019858  1
  O  O147  1  0.37309607  -0.01019912  0.91061878  1
  O  O148  1  0.37657911  0.24730914  0.16650895  1
  O  O149  1  0.37682015  0.24488134  0.41729789  1
  O  O150  1  0.37443701  0.25042005  0.66529103  1
  O  O151  1  0.37546300  0.24983174  0.90013080  1
  O  O152  1  0.37580774  0.49814581  0.16536181  1
  O  O153  1  0.37732625  0.50158720  0.41831514  1
  O  O154  1  0.37200922  0.50988548  0.66145560  1
  O  O155  1  0.37689665  0.50265302  0.90939322  1
  O  O156  1  0.37596499  0.74548026  0.16605174  1
  O  O157  1  0.37328903  0.75386374  0.40814931  1
  O  O158  1  0.36874987  0.75396810  0.66705972  1
  O  O159  1  0.37313516  0.75712953  0.91438756  1
  O  O160  1  0.62397878  0.00657599  0.16272275  1
  O  O161  1  0.62615847  0.00138134  0.42004674  1
  O  O162  1  0.62971898  -0.00584672  0.65829540  1
  O  O163  1  0.62792416  -0.00172925  0.91608707  1
  O  O164  1  0.62514057  0.24600367  0.16231317  1
  O  O165  1  0.62953896  0.25784061  0.41558136  1
  O  O166  1  0.62807813  0.25741431  0.66179343  1
  O  O167  1  0.63152054  0.24616343  0.90661102  1
  O  O168  1  0.62496088  0.50364789  0.16197890  1
  O  O169  1  0.62636457  0.49971926  0.41524335  1
  O  O170  1  0.62531444  0.49987351  0.66343070  1
  O  O171  1  0.63175824  0.51297069  0.91352178  1
  O  O172  1  0.62305214  0.74402007  0.16408278  1
  O  O173  1  0.62592466  0.74511560  0.41130178  1
  O  O174  1  0.62534679  0.74877840  0.66754413  1
  O  O175  1  0.62924048  0.74391717  0.91743935  1
  O  O176  1  0.87480084  -0.00444396  0.16500717  1
  O  O177  1  0.87441198  0.00373923  0.41091256  1
  O  O178  1  0.87827296  -0.00362672  0.65917479  1
  O  O179  1  0.87756759  -0.00705109  0.91593537  1
  O  O180  1  0.87326921  0.25298540  0.16292394  1
  O  O181  1  0.87280071  0.24963872  0.41682934  1
  O  O182  1  0.87607443  0.24525444  0.65975087  1
  O  O183  1  0.87401307  0.24338563  0.90128784  1
  O  O184  1  0.87364637  0.49315560  0.16436848  1
  O  O185  1  0.87381810  0.49783180  0.41397472  1
  O  O186  1  0.87849544  0.51200197  0.66427716  1
  O  O187  1  0.87459163  0.50916379  0.90807623  1
  O  O188  1  0.87416807  0.75865846  0.16933996  1
  O  O189  1  0.87648602  0.75310442  0.40640812  1
  O  O190  1  0.88010442  0.74709851  0.66458283  1
  O  O191  1  0.87631345  0.75301718  0.92055391  1
  O  O192  1  0.00539969  0.12523539  0.16138894  1
  O  O193  1  -0.00960239  0.12692881  0.41576712  1
  O  O194  1  -0.00800522  0.12190402  0.66546379  1
  O  O195  1  -0.00654599  0.11734079  0.91294997  1
  O  O196  1  -0.00782972  0.37376547  0.16492028  1
  O  O197  1  -0.00351850  0.37616565  0.41469390  1
  O  O198  1  0.00516380  0.37962504  0.66505097  1
  O  O199  1  -0.00537204  0.37523901  0.91316184  1
  O  O200  1  0.00697273  0.62481174  0.16500734  1
  O  O201  1  0.00402532  0.62574194  0.40993055  1
  O  O202  1  -0.00033766  0.62828851  0.66671194  1
  O  O203  1  -0.00730858  0.63226550  0.91616860  1
  O  O204  1  -0.00403626  0.87578238  0.16453372  1
  O  O205  1  -0.00743407  0.87659381  0.41300083  1
  O  O206  1  0.00057950  0.87080248  0.66498950  1
  O  O207  1  -0.00303805  0.87306602  0.91759099  1
  O  O208  1  0.24744334  0.12782873  0.16190819  1
  O  O209  1  0.25651783  0.12496654  0.41572911  1
  O  O210  1  0.24582524  0.12081201  0.66421017  1
  O  O211  1  0.24878335  0.11890713  0.90697384  1
  O  O212  1  0.25481410  0.37233081  0.16255140  1
  O  O213  1  0.24937792  0.37515376  0.41534568  1
  O  O214  1  0.24159367  0.37934188  0.66301154  1
  O  O215  1  0.24939191  0.37658923  0.90426423  1
  O  O216  1  0.24706449  0.62267574  0.16377031  1
  O  O217  1  0.24431842  0.62527799  0.41212767  1
  O  O218  1  0.24955981  0.62947011  0.66669790  1
  O  O219  1  0.24840115  0.62938158  0.91443965  1
  O  O220  1  0.25169251  0.87617378  0.16950498  1
  O  O221  1  0.25694519  0.87712604  0.41411299  1
  O  O222  1  0.24296061  0.87057634  0.66089898  1
  O  O223  1  0.24690705  0.87392628  0.91180351  1
  O  O224  1  0.50319987  0.12709167  0.16188803  1
  O  O225  1  0.49503810  0.12507659  0.41773839  1
  O  O226  1  0.50251091  0.12145975  0.66247553  1
  O  O227  1  0.49935499  0.12051980  0.90560044  1
  O  O228  1  0.49785263  0.37286844  0.16310407  1
  O  O229  1  0.50860193  0.37707118  0.41576247  1
  O  O230  1  0.50783613  0.37871799  0.66496329  1
  O  O231  1  0.50237140  0.37897028  0.90581335  1
  O  O232  1  0.50392460  0.62322236  0.16540196  1
  O  O233  1  0.50568542  0.62457632  0.41284098  1
  O  O234  1  0.49210010  0.63174254  0.66135460  1
  O  O235  1  0.50664724  0.62818773  0.90868348  1
  O  O236  1  0.49985458  0.87629572  0.16862339  1
  O  O237  1  0.49101318  0.87695129  0.41552208  1
  O  O238  1  0.49290179  0.86830182  0.65363294  1
  O  O239  1  0.49626729  0.87161237  0.90830363  1
  O  O240  1  0.74391012  0.12535144  0.16265146  1
  O  O241  1  0.75782389  0.12759310  0.41894464  1
  O  O242  1  0.76004328  0.12265633  0.66312360  1
  O  O243  1  0.75931080  0.11663133  0.91124766  1
  O  O244  1  0.75387443  0.37386242  0.16337038  1
  O  O245  1  0.74671487  0.37813167  0.41916140  1
  O  O246  1  0.74601078  0.37943369  0.66372504  1
  O  O247  1  0.75576708  0.37832482  0.91615727  1
  O  O248  1  0.74190751  0.62526787  0.16552371  1
  O  O249  1  0.74629852  0.62388877  0.41116414  1
  O  O250  1  0.75771338  0.62918629  0.65716474  1
  O  O251  1  0.75494139  0.63115882  0.91638430  1
  O  O252  1  0.75272443  0.87580443  0.16287147  1
  O  O253  1  0.75954428  0.87633697  0.41373109  1
  O  O254  1  0.75933218  0.86920104  0.65929729  1
  O  O255  1  0.75999874  0.87273810  0.91771961  1
  O  O256  1  0.12515561  0.12672888  0.04719429  1
  O  O257  1  0.12013694  0.12556254  0.28975875  1
  O  O258  1  0.12003930  0.12035102  0.53891986  1
  O  O259  1  0.11797279  0.11624555  0.77921251  1
  O  O260  1  0.11503817  0.37338302  0.03899937  1
  O  O261  1  0.12246484  0.36639667  0.28238867  1
  O  O262  1  0.12192354  0.38033065  0.54996309  1
  O  O263  1  0.11649491  0.37764932  0.78106700  1
  O  O264  1  0.12427483  0.62320710  0.04792080  1
  O  O265  1  0.12536464  0.62344971  0.29563512  1
  O  O266  1  0.12367389  0.62601608  0.55090232  1
  O  O267  1  0.12239867  0.63132791  0.78485983  1
  O  O268  1  0.13428536  0.87545116  0.03973378  1
  O  O269  1  0.12374255  0.88013564  0.28456949  1
  O  O270  1  0.12455270  0.87028160  0.54687549  1
  O  O271  1  0.12176734  0.87364110  0.80235756  1
  O  O272  1  0.37519815  0.12660827  0.04488730  1
  O  O273  1  0.37736675  0.12612619  0.30168837  1
  O  O274  1  0.37674164  0.12578891  0.54163120  1
  O  O275  1  0.37359425  0.11560171  0.77440761  1
  O  O276  1  0.37744445  0.37361081  0.04614031  1
  O  O277  1  0.37916933  0.37715957  0.28879983  1
  O  O278  1  0.37974895  0.37657313  0.54344431  1
  O  O279  1  0.37631961  0.38433000  0.77172074  1
  O  O280  1  0.37699395  0.62355589  0.05122790  1
  O  O281  1  0.37540728  0.61336816  0.28287459  1
  O  O282  1  0.37031540  0.63110156  0.55163896  1
  O  O283  1  0.37129878  0.63223150  0.78291960  1
  O  O284  1  0.37358277  0.87149664  0.03667742  1
  O  O285  1  0.37619719  0.87838448  0.29789343  1
  O  O286  1  0.36962064  0.86830758  0.54527147  1
  O  O287  1  0.37458474  0.87260010  0.79653155  1
  O  O288  1  0.62431102  0.12566588  0.04684625  1
  O  O289  1  0.63245660  0.12537091  0.29389277  1
  O  O290  1  0.63292681  0.12659819  0.53609196  1
  O  O291  1  0.62876271  0.11430351  0.77767304  1
  O  O292  1  0.63147985  0.37650361  0.03203017  1
  O  O293  1  0.62621470  0.37334352  0.30081508  1
  O  O294  1  0.62556925  0.37843786  0.54879948  1
  O  O295  1  0.63578887  0.38376553  0.78606480  1
  O  O296  1  0.62290258  0.62376385  0.04818542  1
  O  O297  1  0.62513016  0.62048449  0.30012717  1
  O  O298  1  0.62503875  0.63389125  0.53483224  1
  O  O299  1  0.62675864  0.63129397  0.79679736  1
  O  O300  1  0.61512129  0.87301842  0.03460183  1
  O  O301  1  0.62431712  0.88257377  0.29181975  1
  O  O302  1  0.62894699  0.86383161  0.53001448  1
  O  O303  1  0.63529701  0.87164851  0.79008472  1
  O  O304  1  0.87569838  0.11909314  0.03542055  1
  O  O305  1  0.87171669  0.12562534  0.29905197  1
  O  O306  1  0.87575731  0.12715609  0.54669730  1
  O  O307  1  0.87777526  0.11720349  0.79682163  1
  O  O308  1  0.87362867  0.37213022  0.04741058  1
  O  O309  1  0.87131864  0.37218940  0.29974546  1
  O  O310  1  0.87549564  0.38565322  0.54274371  1
  O  O311  1  0.87027655  0.37820559  0.77621121  1
  O  O312  1  0.87354369  0.63556988  0.04580785  1
  O  O313  1  0.87311287  0.62081744  0.27885654  1
  O  O314  1  0.88046114  0.62798605  0.54682978  1
  O  O315  1  0.87473987  0.63163781  0.80054344  1
  O  O316  1  0.87576721  0.87603598  0.05001627  1
  O  O317  1  0.87420544  0.87624088  0.29592200  1
  O  O318  1  0.88060251  0.87150848  0.54526263  1
  O  O319  1  0.87600625  0.87326189  0.80142048  1
