# generated using pymatgen
data_VFe(PbO3)2
_symmetry_space_group_name_H-M   'P 1'
_cell_length_a   15.38661556
_cell_length_b   15.37913635
_cell_length_c   18.52293189
_cell_angle_alpha   89.97511584
_cell_angle_beta   89.99413059
_cell_angle_gamma   89.99649331
_symmetry_Int_Tables_number   1
_chemical_formula_structural   VFe(PbO3)2
_chemical_formula_sum   'V32 Fe32 Pb64 O192'
_cell_volume   4383.13387822
_cell_formula_units_Z   32
loop_
 _symmetry_equiv_pos_site_id
 _symmetry_equiv_pos_as_xyz
  1  'x, y, z'
loop_
 _atom_site_type_symbol
 _atom_site_label
 _atom_site_symmetry_multiplicity
 _atom_site_fract_x
 _atom_site_fract_y
 _atom_site_fract_z
 _atom_site_occupancy
  V  V0  1  0.12403943  0.62312567  0.89291911  1
  V  V1  1  0.87350186  0.86992713  0.63495304  1
  V  V2  1  0.12187669  0.37584717  0.13925324  1
  V  V3  1  0.37693882  0.37911615  0.64466147  1
  V  V4  1  0.87701281  0.87620525  0.14210512  1
  V  V5  1  0.37376715  0.87986170  0.13914471  1
  V  V6  1  0.87790174  0.62497659  0.13974817  1
  V  V7  1  0.37569457  0.62188120  0.64340312  1
  V  V8  1  0.12422237  0.87474644  0.88566662  1
  V  V9  1  0.62440136  0.87298493  0.39332693  1
  V  V10  1  0.62177514  0.37332468  0.38727247  1
  V  V11  1  0.12364441  0.62214790  0.64073587  1
  V  V12  1  0.62557502  0.87674495  0.88974437  1
  V  V13  1  0.12277820  0.36615892  0.88833036  1
  V  V14  1  0.87650793  0.12254209  0.14420651  1
  V  V15  1  0.62739482  0.62327577  0.64477667  1
  V  V16  1  0.87421214  0.12159598  0.88706725  1
  V  V17  1  0.12084665  0.12057844  0.88179976  1
  V  V18  1  0.12734544  0.37556251  0.38722520  1
  V  V19  1  0.12651920  0.62238405  0.38567318  1
  V  V20  1  0.37159205  0.87722346  0.88712217  1
  V  V21  1  0.87430094  0.62961850  0.88994001  1
  V  V22  1  0.61723273  0.12163586  0.13681607  1
  V  V23  1  0.87364160  0.38134211  0.63855205  1
  V  V24  1  0.62227693  0.12298318  0.39347104  1
  V  V25  1  0.12849475  0.37843030  0.63974741  1
  V  V26  1  0.87386750  0.87427855  0.39087960  1
  V  V27  1  0.37518155  0.12691259  0.39355804  1
  V  V28  1  0.62264667  0.62381412  0.38193746  1
  V  V29  1  0.62264408  0.12460554  0.88424708  1
  V  V30  1  0.37840582  0.62255531  0.38605523  1
  V  V31  1  0.12626764  0.12371880  0.14719797  1
  Fe  Fe32  1  0.88068310  0.37561196  0.89126572  1
  Fe  Fe33  1  0.62427012  0.37925058  0.64140502  1
  Fe  Fe34  1  0.62807152  0.37232672  0.88973091  1
  Fe  Fe35  1  0.37341940  0.62796593  0.89513465  1
  Fe  Fe36  1  0.37401461  0.12767345  0.63642640  1
  Fe  Fe37  1  0.12530041  0.62703087  0.13595216  1
  Fe  Fe38  1  0.12559680  0.12639410  0.39608075  1
  Fe  Fe39  1  0.87086796  0.62427277  0.38496596  1
  Fe  Fe40  1  0.62619416  0.62823508  0.12703203  1
  Fe  Fe41  1  0.87558039  0.62210547  0.63416833  1
  Fe  Fe42  1  0.37216300  0.62703176  0.12666220  1
  Fe  Fe43  1  0.87798620  0.37039245  0.13982141  1
  Fe  Fe44  1  0.12252090  0.87824135  0.14203711  1
  Fe  Fe45  1  0.87365588  0.12895809  0.62528122  1
  Fe  Fe46  1  0.37068538  0.12277374  0.88110222  1
  Fe  Fe47  1  0.37608231  0.87008070  0.62829239  1
  Fe  Fe48  1  0.62600158  0.62596222  0.89578382  1
  Fe  Fe49  1  0.62854781  0.37274571  0.12862145  1
  Fe  Fe50  1  0.37056852  0.12158369  0.13494839  1
  Fe  Fe51  1  0.62319497  0.87140586  0.63183651  1
  Fe  Fe52  1  0.87329134  0.37715245  0.38000371  1
  Fe  Fe53  1  0.12565526  0.86914103  0.62563674  1
  Fe  Fe54  1  0.87180588  0.12625268  0.39777617  1
  Fe  Fe55  1  0.87655653  0.87499071  0.88356847  1
  Fe  Fe56  1  0.37780779  0.87473909  0.39723064  1
  Fe  Fe57  1  0.37621749  0.37573997  0.38330297  1
  Fe  Fe58  1  0.37341684  0.36872023  0.13324235  1
  Fe  Fe59  1  0.62796079  0.88111786  0.13651881  1
  Fe  Fe60  1  0.37210868  0.37255889  0.88825931  1
  Fe  Fe61  1  0.12583324  0.87165282  0.39454144  1
  Fe  Fe62  1  0.62660243  0.12907589  0.63353081  1
  Fe  Fe63  1  0.12338749  0.12797093  0.62584636  1
  Pb  Pb64  1  0.00724897  -0.00637831  0.00005660  1
  Pb  Pb65  1  0.00439323  0.01056881  0.26624621  1
  Pb  Pb66  1  0.00670155  0.00271777  0.49888557  1
  Pb  Pb67  1  0.00174911  0.00107358  0.73376934  1
  Pb  Pb68  1  -0.00511953  0.25088560  0.00387386  1
  Pb  Pb69  1  0.00143803  0.24017057  0.26141035  1
  Pb  Pb70  1  -0.00394635  0.24786483  0.49582091  1
  Pb  Pb71  1  -0.00651318  0.25436571  0.74438868  1
  Pb  Pb72  1  0.00120850  0.50720001  0.00357942  1
  Pb  Pb73  1  -0.01167120  0.49997351  0.25392254  1
  Pb  Pb74  1  -0.00932415  0.50376719  0.49736141  1
  Pb  Pb75  1  -0.00461228  0.49443324  0.75456410  1
  Pb  Pb76  1  0.01043072  0.75441936  0.00454168  1
  Pb  Pb77  1  0.00682072  0.75424294  0.25385303  1
  Pb  Pb78  1  -0.00249448  0.74571984  0.49875567  1
  Pb  Pb79  1  -0.00497298  0.75545080  0.74893928  1
  Pb  Pb80  1  0.25172429  0.00367086  -0.00076320  1
  Pb  Pb81  1  0.24511992  -0.01205590  0.26325253  1
  Pb  Pb82  1  0.24720738  -0.00586220  0.50191400  1
  Pb  Pb83  1  0.24951830  0.00022312  0.73152916  1
  Pb  Pb84  1  0.26032705  0.24379345  0.00306447  1
  Pb  Pb85  1  0.25051100  0.24936213  0.25238670  1
  Pb  Pb86  1  0.25460770  0.24230141  0.50464612  1
  Pb  Pb87  1  0.25693222  0.24565562  0.75288499  1
  Pb  Pb88  1  0.25754516  0.50157390  0.00192388  1
  Pb  Pb89  1  0.25779302  0.49959919  0.24053585  1
  Pb  Pb90  1  0.25221465  0.49956737  0.49781081  1
  Pb  Pb91  1  0.26048421  0.50013144  0.76139753  1
  Pb  Pb92  1  0.24558743  0.74789604  0.00508439  1
  Pb  Pb93  1  0.24793929  0.75540561  0.25014234  1
  Pb  Pb94  1  0.25232297  0.75369436  0.50012538  1
  Pb  Pb95  1  0.25439385  0.74588021  0.74783909  1
  Pb  Pb96  1  0.50170994  -0.00156729  -0.00166898  1
  Pb  Pb97  1  0.48705003  -0.00941943  0.25858531  1
  Pb  Pb98  1  0.49622654  0.00548772  0.50923316  1
  Pb  Pb99  1  0.49628922  0.00034213  0.73574382  1
  Pb  Pb100  1  0.49200203  0.25745519  -0.00244096  1
  Pb  Pb101  1  0.49314703  0.25769157  0.24607266  1
  Pb  Pb102  1  0.50109327  0.24590859  0.50735546  1
  Pb  Pb103  1  0.49669951  0.24977392  0.74989905  1
  Pb  Pb104  1  0.50058899  0.49497076  -0.00548361  1
  Pb  Pb105  1  0.50006633  0.49842447  0.23045555  1
  Pb  Pb106  1  0.50887860  0.49440444  0.50131988  1
  Pb  Pb107  1  0.50976227  0.50366247  0.76727397  1
  Pb  Pb108  1  0.50158688  0.74386150  0.00245406  1
  Pb  Pb109  1  0.50101431  0.75011788  0.24005517  1
  Pb  Pb110  1  0.50079616  0.75484785  0.50256296  1
  Pb  Pb111  1  0.49946000  0.74137042  0.75334563  1
  Pb  Pb112  1  0.74770389  -0.00074697  0.00051792  1
  Pb  Pb113  1  0.75792238  0.00653372  0.25679085  1
  Pb  Pb114  1  0.74367478  0.00402273  0.50534841  1
  Pb  Pb115  1  0.74957905  0.00193955  0.73939006  1
  Pb  Pb116  1  0.75417160  0.25898843  0.00205516  1
  Pb  Pb117  1  0.75648746  0.25090872  0.24976290  1
  Pb  Pb118  1  0.74670765  0.25048942  0.50027895  1
  Pb  Pb119  1  0.74645928  0.25653450  0.74756025  1
  Pb  Pb120  1  0.74483382  0.49320882  0.00046182  1
  Pb  Pb121  1  0.75260361  0.49683374  0.24324948  1
  Pb  Pb122  1  0.74878458  0.49966584  0.49696609  1
  Pb  Pb123  1  0.74088383  0.49897142  0.76190069  1
  Pb  Pb124  1  0.74515543  0.75365484  0.00259521  1
  Pb  Pb125  1  0.75157365  0.74616839  0.24703766  1
  Pb  Pb126  1  0.74422214  0.74954791  0.49965465  1
  Pb  Pb127  1  0.75388323  0.75165133  0.75152305  1
  O  O128  1  0.12125570  0.00555711  0.17086045  1
  O  O129  1  0.12596283  -0.00144287  0.41579907  1
  O  O130  1  0.12107380  -0.00240667  0.64980926  1
  O  O131  1  0.12339504  -0.00174287  0.91282956  1
  O  O132  1  0.12078658  0.24555166  0.16955172  1
  O  O133  1  0.12788543  0.26121489  0.41203222  1
  O  O134  1  0.12167293  0.26249271  0.65767772  1
  O  O135  1  0.11818753  0.25046046  0.90344231  1
  O  O136  1  0.12523357  0.49315869  0.15744462  1
  O  O137  1  0.12889610  0.50283794  0.41382747  1
  O  O138  1  0.12562347  0.50063183  0.67091716  1
  O  O139  1  0.12209657  0.50620561  0.91284093  1
  O  O140  1  0.12359798  0.75235443  0.16970415  1
  O  O141  1  0.12711620  0.73720230  0.41233673  1
  O  O142  1  0.12593688  0.73965620  0.66106739  1
  O  O143  1  0.12353095  0.75161305  0.91493825  1
  O  O144  1  0.37346449  -0.00232562  0.17059613  1
  O  O145  1  0.37975169  0.00903426  0.41935734  1
  O  O146  1  0.37461381  -0.00180300  0.65265251  1
  O  O147  1  0.37303861  -0.00451402  0.91368695  1
  O  O148  1  0.37146423  0.24400528  0.16660958  1
  O  O149  1  0.37892733  0.24753342  0.41375487  1
  O  O150  1  0.36974364  0.26097654  0.66382116  1
  O  O151  1  0.36980672  0.24483386  0.91328435  1
  O  O152  1  0.37251672  0.49736665  0.15175214  1
  O  O153  1  0.37662365  0.50518232  0.41338865  1
  O  O154  1  0.37091315  0.49824110  0.67292332  1
  O  O155  1  0.36923087  0.49879815  0.91458129  1
  O  O156  1  0.37445251  0.76126405  0.15845005  1
  O  O157  1  0.37679009  0.73803256  0.41243192  1
  O  O158  1  0.37466783  0.74227600  0.66561051  1
  O  O159  1  0.37610467  0.76437320  0.91549131  1
  O  O160  1  0.63144906  0.00915043  0.16908075  1
  O  O161  1  0.62307774  0.00385736  0.41529567  1
  O  O162  1  0.62771420  -0.00137953  0.65782950  1
  O  O163  1  0.62938536  0.00337740  0.91556308  1
  O  O164  1  0.63127568  0.23468553  0.16496061  1
  O  O165  1  0.62185125  0.25300429  0.41110061  1
  O  O166  1  0.62728680  0.25478137  0.66701173  1
  O  O167  1  0.63151925  0.23742061  0.90763809  1
  O  O168  1  0.62779861  0.50108493  0.15163474  1
  O  O169  1  0.62066425  0.49891656  0.41086161  1
  O  O170  1  0.62356810  0.50547294  0.67421926  1
  O  O171  1  0.62851979  0.49915701  0.91694139  1
  O  O172  1  0.62890061  0.75480984  0.16270833  1
  O  O173  1  0.62345140  0.74612165  0.41261112  1
  O  O174  1  0.62384350  0.74096475  0.66607945  1
  O  O175  1  0.62576158  0.76138394  0.91204610  1
  O  O176  1  0.87913898  0.00073366  0.16946683  1
  O  O177  1  0.87011886  -0.01025628  0.41879179  1
  O  O178  1  0.87453739  -0.00966613  0.65037435  1
  O  O179  1  0.87901267  0.00435732  0.91271520  1
  O  O180  1  0.88020664  0.24028953  0.16700552  1
  O  O181  1  0.87169452  0.25670887  0.41297881  1
  O  O182  1  0.87825113  0.26152555  0.65771775  1
  O  O183  1  0.88199808  0.23923327  0.91461539  1
  O  O184  1  0.87728570  0.50477135  0.15790261  1
  O  O185  1  0.87369358  0.49881251  0.41476674  1
  O  O186  1  0.87852296  0.49770170  0.66741193  1
  O  O187  1  0.88114671  0.51069871  0.91509837  1
  O  O188  1  0.87500100  0.75454012  0.16301695  1
  O  O189  1  0.87125829  0.75332021  0.41309544  1
  O  O190  1  0.87481950  0.74853416  0.66489280  1
  O  O191  1  0.87858650  0.74710197  0.91622313  1
  O  O192  1  -0.00036680  0.12261628  0.17380401  1
  O  O193  1  -0.00153604  0.12696754  0.41793399  1
  O  O194  1  -0.00293323  0.12706191  0.65523355  1
  O  O195  1  0.00160079  0.12160512  0.91495296  1
  O  O196  1  0.00715178  0.37163567  0.16673084  1
  O  O197  1  0.00869596  0.38023065  0.40846033  1
  O  O198  1  0.00187740  0.38189570  0.66302123  1
  O  O199  1  0.00856765  0.37799387  0.92157007  1
  O  O200  1  -0.00537057  0.62781259  0.16593804  1
  O  O201  1  0.00729859  0.62182960  0.40789642  1
  O  O202  1  0.00660323  0.62193634  0.66244865  1
  O  O203  1  0.00163702  0.62941612  0.91703398  1
  O  O204  1  -0.00838561  0.87620879  0.17027538  1
  O  O205  1  -0.00836293  0.87078035  0.41177062  1
  O  O206  1  -0.00490991  0.86734652  0.65654497  1
  O  O207  1  0.00355832  0.87579428  0.91352799  1
  O  O208  1  0.24199245  0.12351920  0.16732712  1
  O  O209  1  0.25803688  0.12836138  0.41223252  1
  O  O210  1  0.24597727  0.12966126  0.65821576  1
  O  O211  1  0.23984152  0.12229914  0.90846016  1
  O  O212  1  0.24015823  0.36757827  0.16402495  1
  O  O213  1  0.24746618  0.38018236  0.41414696  1
  O  O214  1  0.24546168  0.38065672  0.66538555  1
  O  O215  1  0.23479781  0.37640009  0.91505736  1
  O  O216  1  0.25038935  0.62710942  0.16304764  1
  O  O217  1  0.25229718  0.62136377  0.40990773  1
  O  O218  1  0.24711174  0.62091315  0.66777337  1
  O  O219  1  0.24077172  0.63056822  0.91530700  1
  O  O220  1  0.25446439  0.87989231  0.16535874  1
  O  O221  1  0.25280037  0.87144788  0.41733662  1
  O  O222  1  0.24977108  0.86893960  0.65502938  1
  O  O223  1  0.25209872  0.87710365  0.91025877  1
  O  O224  1  0.50302145  0.12164148  0.14980139  1
  O  O225  1  0.50203774  0.12775704  0.41960502  1
  O  O226  1  0.50025104  0.13081883  0.66329567  1
  O  O227  1  0.50704807  0.11958228  0.90361973  1
  O  O228  1  0.50322386  0.36742403  0.15653359  1
  O  O229  1  0.50416106  0.37659624  0.41498939  1
  O  O230  1  0.49194189  0.37921232  0.66426724  1
  O  O231  1  0.50026231  0.36986297  0.91058645  1
  O  O232  1  0.49839320  0.63016120  0.15369924  1
  O  O233  1  0.49809836  0.62284968  0.41149186  1
  O  O234  1  0.50066112  0.62125813  0.67077559  1
  O  O235  1  0.49934027  0.62940213  0.91738507  1
  O  O236  1  0.49576692  0.88089112  0.16292692  1
  O  O237  1  0.50561403  0.87395513  0.41782767  1
  O  O238  1  0.49964191  0.86935598  0.66135416  1
  O  O239  1  0.50214969  0.88312343  0.91155997  1
  O  O240  1  0.75996101  0.12147711  0.16519952  1
  O  O241  1  0.73971668  0.12672330  0.41365508  1
  O  O242  1  0.75452785  0.12725140  0.66311996  1
  O  O243  1  0.75656710  0.12066582  0.90887869  1
  O  O244  1  0.75156811  0.36897524  0.16296028  1
  O  O245  1  0.73931360  0.37826234  0.40928327  1
  O  O246  1  0.75803937  0.38139264  0.66222549  1
  O  O247  1  0.75666607  0.37169055  0.91449147  1
  O  O248  1  0.75835964  0.62868745  0.16042878  1
  O  O249  1  0.74168230  0.62255917  0.41006765  1
  O  O250  1  0.74516122  0.62251302  0.66325275  1
  O  O251  1  0.75936528  0.62986049  0.91270074  1
  O  O252  1  0.75988218  0.88042854  0.16764825  1
  O  O253  1  0.74947777  0.87274054  0.41809423  1
  O  O254  1  0.75461346  0.86802734  0.66058333  1
  O  O255  1  0.74652248  0.87937381  0.91209398  1
  O  O256  1  0.12219717  0.12433686  0.05613821  1
  O  O257  1  0.11694275  0.12775138  0.29423322  1
  O  O258  1  0.12892931  0.13380810  0.52464998  1
  O  O259  1  0.11744972  0.11890003  0.79077343  1
  O  O260  1  0.12135644  0.36795490  0.04844220  1
  O  O261  1  0.12983633  0.37768216  0.29633827  1
  O  O262  1  0.12953091  0.38571974  0.54915556  1
  O  O263  1  0.11947903  0.37577974  0.79728296  1
  O  O264  1  0.12129293  0.63279313  0.03591931  1
  O  O265  1  0.12805102  0.62194691  0.29462176  1
  O  O266  1  0.12788730  0.61808263  0.54983483  1
  O  O267  1  0.12241205  0.62652360  0.80205116  1
  O  O268  1  0.11759892  0.87769777  0.04193007  1
  O  O269  1  0.13094442  0.86965318  0.29224714  1
  O  O270  1  0.12265593  0.86361440  0.52497187  1
  O  O271  1  0.12315974  0.87421488  0.79466300  1
  O  O272  1  0.36139437  0.12118438  0.03496497  1
  O  O273  1  0.38060793  0.12206334  0.30224541  1
  O  O274  1  0.38034243  0.13664192  0.53545842  1
  O  O275  1  0.36983686  0.12937203  0.78084794  1
  O  O276  1  0.36938469  0.36057353  0.03186863  1
  O  O277  1  0.37773917  0.37187156  0.28395177  1
  O  O278  1  0.37216077  0.38321397  0.55345552  1
  O  O279  1  0.36278025  0.37157265  0.78777029  1
  O  O280  1  0.36445317  0.63460101  0.02572053  1
  O  O281  1  0.37763388  0.62225951  0.29521250  1
  O  O282  1  0.37667052  0.61909688  0.55247413  1
  O  O283  1  0.36909146  0.63117591  0.79368990  1
  O  O284  1  0.37310315  0.88639446  0.04811378  1
  O  O285  1  0.37869150  0.88433992  0.29566115  1
  O  O286  1  0.38011451  0.86590486  0.52643002  1
  O  O287  1  0.37332061  0.87608621  0.79649535  1
  O  O288  1  0.63136710  0.11959321  0.04573222  1
  O  O289  1  0.61703262  0.12370240  0.30314115  1
  O  O290  1  0.62506682  0.13149866  0.53255999  1
  O  O291  1  0.62973737  0.12063432  0.79341317  1
  O  O292  1  0.63218460  0.36527065  0.02801587  1
  O  O293  1  0.61949960  0.37316172  0.29640358  1
  O  O294  1  0.62303736  0.38755495  0.54150018  1
  O  O295  1  0.63112211  0.38196248  0.78747835  1
  O  O296  1  0.63292556  0.63830870  0.02609105  1
  O  O297  1  0.62192779  0.62507585  0.29093656  1
  O  O298  1  0.62129093  0.61874892  0.55369760  1
  O  O299  1  0.62326934  0.62004842  0.79389519  1
  O  O300  1  0.62957114  0.88574317  0.03687862  1
  O  O301  1  0.62689308  0.87595327  0.30208871  1
  O  O302  1  0.62769443  0.86552322  0.53180529  1
  O  O303  1  0.62504789  0.87896065  0.79912988  1
  O  O304  1  0.88126776  0.12165824  0.05328404  1
  O  O305  1  0.87541089  0.11788170  0.29574553  1
  O  O306  1  0.86479222  0.13025046  0.52459223  1
  O  O307  1  0.87767842  0.12381866  0.79623839  1
  O  O308  1  0.88014117  0.36236603  0.03862980  1
  O  O309  1  0.87319206  0.38318887  0.27900059  1
  O  O310  1  0.87485567  0.38534442  0.54717379  1
  O  O311  1  0.88913851  0.37400424  0.79141457  1
  O  O312  1  0.88036857  0.62885142  0.04899290  1
  O  O313  1  0.87340104  0.61950569  0.28522850  1
  O  O314  1  0.87933199  0.62070641  0.53467824  1
  O  O315  1  0.87703950  0.63031353  0.79830886  1
  O  O316  1  0.87790020  0.87991389  0.05101815  1
  O  O317  1  0.86968756  0.87724269  0.29976736  1
  O  O318  1  0.87201590  0.86135567  0.54431175  1
  O  O319  1  0.87662108  0.86728510  0.78455012  1
