# generated using pymatgen
data_VFe(PbO3)2
_symmetry_space_group_name_H-M   'P 1'
_cell_length_a   15.37583591
_cell_length_b   15.37372253
_cell_length_c   18.51962925
_cell_angle_alpha   89.99756185
_cell_angle_beta   90.01105761
_cell_angle_gamma   90.01089271
_symmetry_Int_Tables_number   1
_chemical_formula_structural   VFe(PbO3)2
_chemical_formula_sum   'V32 Fe32 Pb64 O192'
_cell_volume   4377.74081947
_cell_formula_units_Z   32
loop_
 _symmetry_equiv_pos_site_id
 _symmetry_equiv_pos_as_xyz
  1  'x, y, z'
loop_
 _atom_site_type_symbol
 _atom_site_label
 _atom_site_symmetry_multiplicity
 _atom_site_fract_x
 _atom_site_fract_y
 _atom_site_fract_z
 _atom_site_occupancy
  V  V0  1  0.12514563  0.12658993  0.13788711  1
  V  V1  1  0.12449191  0.12532874  0.38821237  1
  V  V2  1  0.12500638  0.37668919  0.39225404  1
  V  V3  1  0.62610628  0.62374178  0.14468271  1
  V  V4  1  0.62943736  0.62732329  0.63432113  1
  V  V5  1  0.37653703  0.37375031  0.39418715  1
  V  V6  1  0.12363862  0.62267493  0.13814301  1
  V  V7  1  0.12321843  0.62711141  0.64059117  1
  V  V8  1  0.87503689  0.12114098  0.14339146  1
  V  V9  1  0.37378156  0.12594332  0.88771306  1
  V  V10  1  0.87518679  0.12332920  0.63817729  1
  V  V11  1  0.62642727  0.87619534  0.14334004  1
  V  V12  1  0.37977153  0.37289906  0.88693053  1
  V  V13  1  0.37588013  0.37415785  0.14122642  1
  V  V14  1  0.12607894  0.12247104  0.64287465  1
  V  V15  1  0.87563645  0.62713545  0.13898247  1
  V  V16  1  0.37404867  0.12041046  0.14722378  1
  V  V17  1  0.37722742  0.12359907  0.63504452  1
  V  V18  1  0.87795305  0.37543533  0.63979126  1
  V  V19  1  0.12571374  0.62339251  0.38929758  1
  V  V20  1  0.62403025  0.37507074  0.14146336  1
  V  V21  1  0.87665180  0.87486267  0.63947645  1
  V  V22  1  0.87760783  0.87975685  0.38653829  1
  V  V23  1  0.12409099  0.87483352  0.13972701  1
  V  V24  1  0.87462673  0.62283840  0.88639088  1
  V  V25  1  0.62934030  0.37852129  0.39280334  1
  V  V26  1  0.87432032  0.62570119  0.39449734  1
  V  V27  1  0.12683108  0.37573290  0.89090427  1
  V  V28  1  0.37518544  0.87705488  0.63790349  1
  V  V29  1  0.62270522  0.62508536  0.88697300  1
  V  V30  1  0.87484097  0.37562815  0.14331511  1
  V  V31  1  0.87561909  0.12798794  0.88816908  1
  Fe  Fe32  1  0.62509543  0.62342244  0.38324061  1
  Fe  Fe33  1  0.12593808  0.37436755  0.13595214  1
  Fe  Fe34  1  0.62830919  0.12351543  0.63532004  1
  Fe  Fe35  1  0.87765183  0.12787758  0.38372271  1
  Fe  Fe36  1  0.37540257  0.62379159  0.87976610  1
  Fe  Fe37  1  0.37533358  0.62253926  0.14007905  1
  Fe  Fe38  1  0.87096780  0.87695517  0.88901834  1
  Fe  Fe39  1  0.37276598  0.37293455  0.63263959  1
  Fe  Fe40  1  0.12529874  0.12597493  0.88545262  1
  Fe  Fe41  1  0.37702473  0.87410477  0.88271054  1
  Fe  Fe42  1  0.87344713  0.37374378  0.88365656  1
  Fe  Fe43  1  0.87787737  0.37556532  0.38407885  1
  Fe  Fe44  1  0.12211037  0.87202295  0.38608774  1
  Fe  Fe45  1  0.37243815  0.87543166  0.37764092  1
  Fe  Fe46  1  0.37292427  0.12677167  0.38266207  1
  Fe  Fe47  1  0.62562392  0.37545497  0.88532020  1
  Fe  Fe48  1  0.87441170  0.87296675  0.13409822  1
  Fe  Fe49  1  0.12393838  0.62573540  0.88182828  1
  Fe  Fe50  1  0.37626196  0.62628193  0.63540731  1
  Fe  Fe51  1  0.12535522  0.37405513  0.63377131  1
  Fe  Fe52  1  0.87364409  0.62624108  0.63446710  1
  Fe  Fe53  1  0.37557892  0.87291044  0.14425611  1
  Fe  Fe54  1  0.12504119  0.87586521  0.88085093  1
  Fe  Fe55  1  0.12529861  0.87529182  0.64045528  1
  Fe  Fe56  1  0.62450834  0.37389378  0.63008750  1
  Fe  Fe57  1  0.62606555  0.12646195  0.37865171  1
  Fe  Fe58  1  0.62538528  0.87567586  0.63121202  1
  Fe  Fe59  1  0.62293863  0.12654822  0.88609635  1
  Fe  Fe60  1  0.62473145  0.12795380  0.14767868  1
  Fe  Fe61  1  0.62628770  0.87278713  0.38593775  1
  Fe  Fe62  1  0.37326737  0.62313840  0.38596722  1
  Fe  Fe63  1  0.62367420  0.87543282  0.88554260  1
  Pb  Pb64  1  -0.00141297  -0.00421565  -0.00457442  1
  Pb  Pb65  1  0.00316250  -0.00084322  0.25035258  1
  Pb  Pb66  1  0.00696850  -0.00696354  0.50282059  1
  Pb  Pb67  1  0.00379373  -0.00427092  0.75564806  1
  Pb  Pb68  1  0.00335442  0.25459947  0.00095250  1
  Pb  Pb69  1  -0.00663347  0.24956846  0.25287118  1
  Pb  Pb70  1  0.00062250  0.25415446  0.49873392  1
  Pb  Pb71  1  -0.00005516  0.24505378  0.75109304  1
  Pb  Pb72  1  0.00451622  0.49588046  -0.00124869  1
  Pb  Pb73  1  -0.00376940  0.49504071  0.25101597  1
  Pb  Pb74  1  -0.00183278  0.50432836  0.50402246  1
  Pb  Pb75  1  0.00387771  0.50428017  0.74957984  1
  Pb  Pb76  1  -0.00092822  0.75621784  -0.00592342  1
  Pb  Pb77  1  0.00540134  0.75443062  0.24992624  1
  Pb  Pb78  1  -0.00103150  0.74698112  0.50442601  1
  Pb  Pb79  1  0.00692894  0.75185395  0.75353985  1
  Pb  Pb80  1  0.25109119  -0.00700403  -0.00409035  1
  Pb  Pb81  1  0.24928870  -0.01024925  0.25486735  1
  Pb  Pb82  1  0.24861979  -0.00795124  0.49453473  1
  Pb  Pb83  1  0.25161563  -0.00809279  0.75244740  1
  Pb  Pb84  1  0.24764266  0.25667460  0.00157185  1
  Pb  Pb85  1  0.25256233  0.24571662  0.25250073  1
  Pb  Pb86  1  0.24762464  0.25819387  0.50377955  1
  Pb  Pb87  1  0.24693880  0.24684433  0.74746189  1
  Pb  Pb88  1  0.25455761  0.50880683  -0.00154561  1
  Pb  Pb89  1  0.25455316  0.50294160  0.25202566  1
  Pb  Pb90  1  0.25614504  0.49814805  0.50761924  1
  Pb  Pb91  1  0.25191559  0.50490736  0.74483866  1
  Pb  Pb92  1  0.25344106  0.75060320  -0.00808189  1
  Pb  Pb93  1  0.25900043  0.74957274  0.25085227  1
  Pb  Pb94  1  0.25387876  0.75108366  0.49634226  1
  Pb  Pb95  1  0.25910009  0.74951445  0.75294401  1
  Pb  Pb96  1  0.49857164  -0.00437670  0.00067071  1
  Pb  Pb97  1  0.50600789  -0.00429618  0.25788225  1
  Pb  Pb98  1  0.50288191  0.00075006  0.48636191  1
  Pb  Pb99  1  0.51382225  -0.00085178  0.74973176  1
  Pb  Pb100  1  0.51034329  0.24239074  0.00625979  1
  Pb  Pb101  1  0.49850493  0.24449586  0.25619052  1
  Pb  Pb102  1  0.50831765  0.24856592  0.49985450  1
  Pb  Pb103  1  0.51378637  0.25123906  0.74644854  1
  Pb  Pb104  1  0.49431739  0.50692494  -0.00005180  1
  Pb  Pb105  1  0.49936888  0.50878010  0.25566041  1
  Pb  Pb106  1  0.49149585  0.50292764  0.50272225  1
  Pb  Pb107  1  0.49872336  0.49855566  0.73903715  1
  Pb  Pb108  1  0.48473125  0.75603756  0.00283547  1
  Pb  Pb109  1  0.50063936  0.75090921  0.25314737  1
  Pb  Pb110  1  0.49677398  0.74938368  0.48875924  1
  Pb  Pb111  1  0.49490043  0.75314221  0.74739688  1
  Pb  Pb112  1  0.74251557  0.00284984  -0.00132280  1
  Pb  Pb113  1  0.74383074  -0.00018008  0.25486921  1
  Pb  Pb114  1  0.73560734  0.00678353  0.49811705  1
  Pb  Pb115  1  0.74908099  -0.00615683  0.75266322  1
  Pb  Pb116  1  0.74489381  0.24755170  0.00010112  1
  Pb  Pb117  1  0.75759206  0.24726473  0.25488608  1
  Pb  Pb118  1  0.74496197  0.24606765  0.49735852  1
  Pb  Pb119  1  0.74679219  0.25510649  0.75018731  1
  Pb  Pb120  1  0.74937168  0.49777575  -0.00350542  1
  Pb  Pb121  1  0.75027928  0.50031303  0.25236753  1
  Pb  Pb122  1  0.75068476  0.50003936  0.50213515  1
  Pb  Pb123  1  0.74867132  0.48981028  0.74848801  1
  Pb  Pb124  1  0.75151613  0.75447507  -0.00112825  1
  Pb  Pb125  1  0.74235943  0.74992290  0.25438023  1
  Pb  Pb126  1  0.74380896  0.75465793  0.49992555  1
  Pb  Pb127  1  0.75023391  0.76097302  0.75095847  1
  O  O128  1  0.12394236  0.00338250  0.16506407  1
  O  O129  1  0.12203378  0.00544208  0.41086393  1
  O  O130  1  0.12208765  0.00552790  0.66696280  1
  O  O131  1  0.12636395  0.00203353  0.91501394  1
  O  O132  1  0.12512448  0.24582076  0.16414263  1
  O  O133  1  0.12434358  0.24892785  0.41330527  1
  O  O134  1  0.12360258  0.24257541  0.66436429  1
  O  O135  1  0.12615393  0.25491972  0.91722899  1
  O  O136  1  0.12255977  0.50470634  0.16382320  1
  O  O137  1  0.12337351  0.50456288  0.41578576  1
  O  O138  1  0.12215678  0.50438777  0.66157812  1
  O  O139  1  0.12247534  0.49435749  0.91305592  1
  O  O140  1  0.12197723  0.74508679  0.16170001  1
  O  O141  1  0.12088692  0.74105163  0.41384928  1
  O  O142  1  0.11995482  0.74591286  0.66216371  1
  O  O143  1  0.12337884  0.75008163  0.91184465  1
  O  O144  1  0.37371553  0.00512215  0.16490366  1
  O  O145  1  0.37037656  0.00151864  0.40683438  1
  O  O146  1  0.37134238  0.00141728  0.66235564  1
  O  O147  1  0.37497920  0.00884300  0.90935573  1
  O  O148  1  0.37453636  0.25497986  0.16750644  1
  O  O149  1  0.37139138  0.25642130  0.41469796  1
  O  O150  1  0.36840080  0.23884708  0.65789783  1
  O  O151  1  0.37122308  0.25596051  0.91455615  1
  O  O152  1  0.37441100  0.49277237  0.16769990  1
  O  O153  1  0.37093728  0.49390641  0.41655775  1
  O  O154  1  0.37406180  0.50110632  0.66150694  1
  O  O155  1  0.37358853  0.49197857  0.91178332  1
  O  O156  1  0.37440423  0.74663428  0.16540965  1
  O  O157  1  0.37024464  0.74932873  0.40970884  1
  O  O158  1  0.37461667  0.75614562  0.65939873  1
  O  O159  1  0.37679543  0.74715526  0.91245148  1
  O  O160  1  0.62585098  -0.00445795  0.16518636  1
  O  O161  1  0.62913453  0.00009088  0.40682468  1
  O  O162  1  0.62584726  -0.00067205  0.66319424  1
  O  O163  1  0.62266113  0.00323863  0.91710390  1
  O  O164  1  0.62453999  0.25857363  0.16916847  1
  O  O165  1  0.62341952  0.25787731  0.41028836  1
  O  O166  1  0.62684669  0.24816858  0.66197289  1
  O  O167  1  0.62218002  0.25078337  0.91970821  1
  O  O168  1  0.62629922  0.49638122  0.16985004  1
  O  O169  1  0.62529088  0.49591763  0.41652332  1
  O  O170  1  0.62807337  0.50470553  0.65703492  1
  O  O171  1  0.62700099  0.50542539  0.91515272  1
  O  O172  1  0.62730007  0.75138154  0.16666441  1
  O  O173  1  0.63068306  0.74725046  0.41284623  1
  O  O174  1  0.62885600  0.74672351  0.65781797  1
  O  O175  1  0.62653191  0.73978778  0.91322241  1
  O  O176  1  0.87661429  0.00383580  0.16272430  1
  O  O177  1  0.88201804  -0.00553655  0.40528912  1
  O  O178  1  0.87822657  0.00313732  0.66412193  1
  O  O179  1  0.87282192  0.00983490  0.91386586  1
  O  O180  1  0.87654940  0.24859294  0.16637727  1
  O  O181  1  0.87948724  0.25274535  0.41537587  1
  O  O182  1  0.87880604  0.24577465  0.66098644  1
  O  O183  1  0.87609823  0.24587523  0.91600586  1
  O  O184  1  0.87627834  0.50290275  0.16803670  1
  O  O185  1  0.87799983  0.50397848  0.41621003  1
  O  O186  1  0.87564514  0.49324209  0.65990400  1
  O  O187  1  0.87433259  0.50419623  0.91359754  1
  O  O188  1  0.87588245  0.74587706  0.16524802  1
  O  O189  1  0.87885526  0.74597126  0.41491425  1
  O  O190  1  0.87457471  0.75694879  0.65923459  1
  O  O191  1  0.87122957  0.74073278  0.91220745  1
  O  O192  1  -0.00108820  0.12604431  0.16400888  1
  O  O193  1  0.00776410  0.12683546  0.41629710  1
  O  O194  1  -0.00100440  0.12430064  0.66649708  1
  O  O195  1  -0.00519893  0.12755862  0.91441155  1
  O  O196  1  -0.00219060  0.37596230  0.16597456  1
  O  O197  1  0.00478855  0.37774454  0.41566980  1
  O  O198  1  -0.00358227  0.37162060  0.66280021  1
  O  O199  1  0.00408118  0.37372672  0.91335669  1
  O  O200  1  0.00225259  0.62400324  0.16581718  1
  O  O201  1  0.00137449  0.62280571  0.41819470  1
  O  O202  1  0.00065321  0.62453640  0.66564010  1
  O  O203  1  -0.00782357  0.62275567  0.91077755  1
  O  O204  1  0.00231783  0.87533043  0.16530626  1
  O  O205  1  -0.00534505  0.87026040  0.41740373  1
  O  O206  1  -0.00654737  0.87823272  0.66478326  1
  O  O207  1  -0.00260118  0.87615938  0.91213057  1
  O  O208  1  0.25109678  0.12774311  0.16711702  1
  O  O209  1  0.24048943  0.12793342  0.41358614  1
  O  O210  1  0.24719901  0.12099074  0.66261707  1
  O  O211  1  0.25741349  0.13031549  0.91515674  1
  O  O212  1  0.25566552  0.37449656  0.16380161  1
  O  O213  1  0.24893617  0.37569241  0.41592084  1
  O  O214  1  0.24788852  0.37260869  0.66618570  1
  O  O215  1  0.24889110  0.37529770  0.91328660  1
  O  O216  1  0.24084341  0.62274631  0.16149764  1
  O  O217  1  0.24147160  0.62272617  0.41224726  1
  O  O218  1  0.24239195  0.62687121  0.66002671  1
  O  O219  1  0.24991390  0.62054836  0.91112739  1
  O  O220  1  0.24326129  0.87615250  0.16447653  1
  O  O221  1  0.24611378  0.87370017  0.41189078  1
  O  O222  1  0.25485491  0.87685762  0.66364322  1
  O  O223  1  0.25181715  0.87659783  0.91251731  1
  O  O224  1  0.49223127  0.12853287  0.16774358  1
  O  O225  1  0.50010790  0.12911359  0.40692227  1
  O  O226  1  0.49171662  0.12235963  0.65697995  1
  O  O227  1  0.48891162  0.13113300  0.91701413  1
  O  O228  1  0.49595563  0.37586034  0.16806566  1
  O  O229  1  0.49681116  0.37662985  0.41270415  1
  O  O230  1  0.49860919  0.37288580  0.65830912  1
  O  O231  1  0.49396231  0.37594905  0.91027052  1
  O  O232  1  0.50455480  0.62203566  0.16726420  1
  O  O233  1  0.49970474  0.62161208  0.41038274  1
  O  O234  1  0.50971507  0.62664567  0.65809698  1
  O  O235  1  0.50530458  0.61947953  0.90904744  1
  O  O236  1  0.50784971  0.87418481  0.16746234  1
  O  O237  1  0.49838471  0.87404816  0.40540801  1
  O  O238  1  0.49397251  0.87674285  0.65699315  1
  O  O239  1  0.50036186  0.87541353  0.91785307  1
  O  O240  1  0.75729967  0.12682016  0.16525514  1
  O  O241  1  0.75145525  0.12884694  0.40754765  1
  O  O242  1  0.76042516  0.12415094  0.66007474  1
  O  O243  1  0.75513425  0.12909081  0.91261788  1
  O  O244  1  0.75106510  0.37648095  0.16695715  1
  O  O245  1  0.74729504  0.37743343  0.41017391  1
  O  O246  1  0.75745044  0.37098827  0.66123556  1
  O  O247  1  0.75016351  0.37514588  0.91823402  1
  O  O248  1  0.75201983  0.62302710  0.16785122  1
  O  O249  1  0.75682381  0.62151431  0.41316691  1
  O  O250  1  0.74644370  0.62472684  0.66276694  1
  O  O251  1  0.75078296  0.62172263  0.91315342  1
  O  O252  1  0.74667812  0.87458201  0.16466754  1
  O  O253  1  0.76336442  0.87103715  0.41028532  1
  O  O254  1  0.75727159  0.87940826  0.66276872  1
  O  O255  1  0.74658358  0.87416420  0.91986734  1
  O  O256  1  0.12693828  0.12617353  0.04696507  1
  O  O257  1  0.12324628  0.12607068  0.29685551  1
  O  O258  1  0.12339742  0.12159697  0.55199730  1
  O  O259  1  0.12259733  0.12962205  0.78627495  1
  O  O260  1  0.12304523  0.37384877  0.03672074  1
  O  O261  1  0.12600847  0.37740292  0.30089500  1
  O  O262  1  0.12895912  0.36946545  0.53423104  1
  O  O263  1  0.12714162  0.37321302  0.80002772  1
  O  O264  1  0.12046401  0.62120822  0.04708257  1
  O  O265  1  0.12286682  0.62297135  0.29825527  1
  O  O266  1  0.11972225  0.62656254  0.54903578  1
  O  O267  1  0.11771548  0.62305545  0.78239806  1
  O  O268  1  0.12318909  0.87628341  0.04835027  1
  O  O269  1  0.11847915  0.87573903  0.28600939  1
  O  O270  1  0.12108231  0.88179675  0.54021047  1
  O  O271  1  0.12058964  0.87833860  0.77921724  1
  O  O272  1  0.37226132  0.12620265  0.05636958  1
  O  O273  1  0.36986539  0.13601993  0.28234428  1
  O  O274  1  0.37339674  0.12165388  0.54422092  1
  O  O275  1  0.37536224  0.12956110  0.79696903  1
  O  O276  1  0.37843373  0.37423056  0.05022441  1
  O  O277  1  0.37295236  0.37632577  0.30290512  1
  O  O278  1  0.36767480  0.37754881  0.53210940  1
  O  O279  1  0.37643876  0.37165270  0.79617355  1
  O  O280  1  0.37794587  0.61406758  0.03949260  1
  O  O281  1  0.36812579  0.61612609  0.28431734  1
  O  O282  1  0.37282780  0.62072749  0.53459062  1
  O  O283  1  0.37554359  0.63098967  0.77898030  1
  O  O284  1  0.38047391  0.87388730  0.04299013  1
  O  O285  1  0.36828104  0.87467900  0.27530391  1
  O  O286  1  0.37057501  0.87904251  0.54689021  1
  O  O287  1  0.37536487  0.87002385  0.78232797  1
  O  O288  1  0.62161166  0.13285732  0.04701856  1
  O  O289  1  0.62507873  0.12334302  0.27577369  1
  O  O290  1  0.63066338  0.12532298  0.53399724  1
  O  O291  1  0.61573220  0.12635457  0.78580022  1
  O  O292  1  0.62213393  0.37649615  0.05017836  1
  O  O293  1  0.62458371  0.38035477  0.30184386  1
  O  O294  1  0.62769326  0.36884204  0.53016465  1
  O  O295  1  0.63067537  0.37090838  0.78518056  1
  O  O296  1  0.62689328  0.62254295  0.05386761  1
  O  O297  1  0.62912546  0.62376686  0.28289969  1
  O  O298  1  0.63270926  0.62593709  0.54290027  1
  O  O299  1  0.62586749  0.62465381  0.79631068  1
  O  O300  1  0.62478611  0.87488629  0.05198991  1
  O  O301  1  0.63091996  0.87481969  0.28442233  1
  O  O302  1  0.63410412  0.87804360  0.53094697  1
  O  O303  1  0.62985597  0.87723566  0.78476369  1
  O  O304  1  0.87583311  0.12555243  0.05269587  1
  O  O305  1  0.88085118  0.13218592  0.28364434  1
  O  O306  1  0.87878437  0.12177661  0.54735986  1
  O  O307  1  0.87711576  0.12901101  0.79696146  1
  O  O308  1  0.87511560  0.37609614  0.05209863  1
  O  O309  1  0.87905214  0.37486670  0.28394975  1
  O  O310  1  0.87685469  0.37333014  0.54851186  1
  O  O311  1  0.86846005  0.37278923  0.78459728  1
  O  O312  1  0.87587824  0.62425213  0.04827248  1
  O  O313  1  0.87868097  0.62572776  0.30349903  1
  O  O314  1  0.87881540  0.62248468  0.53520456  1
  O  O315  1  0.87313323  0.62271041  0.79536190  1
  O  O316  1  0.87603092  0.87065026  0.03481644  1
  O  O317  1  0.88095050  0.87300188  0.29518225  1
  O  O318  1  0.87750379  0.87968540  0.54831368  1
  O  O319  1  0.86456025  0.87656090  0.78861754  1
