# generated using pymatgen
data_VFe(PbO3)2
_symmetry_space_group_name_H-M   'P 1'
_cell_length_a   15.38866890
_cell_length_b   15.38660734
_cell_length_c   18.51954281
_cell_angle_alpha   89.97500263
_cell_angle_beta   89.98670246
_cell_angle_gamma   90.00997258
_symmetry_Int_Tables_number   1
_chemical_formula_structural   VFe(PbO3)2
_chemical_formula_sum   'V32 Fe32 Pb64 O192'
_cell_volume   4385.04574043
_cell_formula_units_Z   32
loop_
 _symmetry_equiv_pos_site_id
 _symmetry_equiv_pos_as_xyz
  1  'x, y, z'
loop_
 _atom_site_type_symbol
 _atom_site_label
 _atom_site_symmetry_multiplicity
 _atom_site_fract_x
 _atom_site_fract_y
 _atom_site_fract_z
 _atom_site_occupancy
  V  V0  1  0.37716696  0.12783534  0.89000465  1
  V  V1  1  0.87215347  0.87771244  0.13858859  1
  V  V2  1  0.87226612  0.87628555  0.88716697  1
  V  V3  1  0.12480260  0.12516477  0.39144050  1
  V  V4  1  0.87428967  0.62619322  0.64644276  1
  V  V5  1  0.62416629  0.87431143  0.38798487  1
  V  V6  1  0.62014140  0.87493269  0.88980092  1
  V  V7  1  0.86891141  0.87471421  0.64157597  1
  V  V8  1  0.37266628  0.12405197  0.63594021  1
  V  V9  1  0.37361095  0.62682219  0.63865983  1
  V  V10  1  0.87568330  0.87406508  0.38933811  1
  V  V11  1  0.37736663  0.12564848  0.38889398  1
  V  V12  1  0.12320694  0.37251589  0.13954041  1
  V  V13  1  0.12607464  0.12095364  0.64197490  1
  V  V14  1  0.62403384  0.37730092  0.38920888  1
  V  V15  1  0.37784017  0.62567508  0.38793675  1
  V  V16  1  0.37663991  0.62642265  0.89012867  1
  V  V17  1  0.12692217  0.12489957  0.88456191  1
  V  V18  1  0.37496037  0.37776430  0.88786520  1
  V  V19  1  0.12417912  0.62436712  0.39106648  1
  V  V20  1  0.12201365  0.87425883  0.64887718  1
  V  V21  1  0.87238919  0.12193385  0.64854300  1
  V  V22  1  0.37563839  0.87452506  0.64023638  1
  V  V23  1  0.62281397  0.62958526  0.64169217  1
  V  V24  1  0.62577800  0.87776034  0.13627539  1
  V  V25  1  0.87518519  0.37317494  0.13616371  1
  V  V26  1  0.12436402  0.87439606  0.38793166  1
  V  V27  1  0.37637142  0.37352686  0.13946339  1
  V  V28  1  0.11922663  0.87659903  0.13667429  1
  V  V29  1  0.12435445  0.37427996  0.39645089  1
  V  V30  1  0.12477074  0.12717603  0.14074243  1
  V  V31  1  0.87754938  0.12617035  0.14133521  1
  Fe  Fe32  1  0.12721217  0.62390509  0.87659240  1
  Fe  Fe33  1  0.62657345  0.12620773  0.13815338  1
  Fe  Fe34  1  0.12643168  0.62916254  0.64702622  1
  Fe  Fe35  1  0.87462127  0.12256326  0.87325935  1
  Fe  Fe36  1  0.12580406  0.87496131  0.88421532  1
  Fe  Fe37  1  0.62283646  0.37456969  0.63693959  1
  Fe  Fe38  1  0.62655112  0.62382715  0.38199174  1
  Fe  Fe39  1  0.62697562  0.12719964  0.39146937  1
  Fe  Fe40  1  0.62133822  0.12031590  0.63424175  1
  Fe  Fe41  1  0.87508212  0.37541149  0.64647669  1
  Fe  Fe42  1  0.62301835  0.37331388  0.88575742  1
  Fe  Fe43  1  0.37299078  0.87793051  0.12987135  1
  Fe  Fe44  1  0.87585785  0.37237438  0.87253285  1
  Fe  Fe45  1  0.62565679  0.62358955  0.13513402  1
  Fe  Fe46  1  0.12470367  0.61951555  0.13416234  1
  Fe  Fe47  1  0.87384323  0.62484765  0.88233000  1
  Fe  Fe48  1  0.37233102  0.37713715  0.39539576  1
  Fe  Fe49  1  0.37144331  0.87470233  0.38382448  1
  Fe  Fe50  1  0.87897753  0.62394632  0.13074066  1
  Fe  Fe51  1  0.37764245  0.37760975  0.62899574  1
  Fe  Fe52  1  0.87526409  0.37634386  0.38895478  1
  Fe  Fe53  1  0.87526999  0.62487900  0.38764631  1
  Fe  Fe54  1  0.37307655  0.87561894  0.89535900  1
  Fe  Fe55  1  0.62367917  0.62656580  0.89016742  1
  Fe  Fe56  1  0.62338020  0.12179154  0.88161798  1
  Fe  Fe57  1  0.87691655  0.12553708  0.38939647  1
  Fe  Fe58  1  0.13066866  0.37274939  0.87876403  1
  Fe  Fe59  1  0.37099434  0.62402149  0.13204712  1
  Fe  Fe60  1  0.62208204  0.87408541  0.63506798  1
  Fe  Fe61  1  0.37274290  0.12701213  0.13576501  1
  Fe  Fe62  1  0.62952430  0.37299946  0.13039816  1
  Fe  Fe63  1  0.12714749  0.37495043  0.63959484  1
  Pb  Pb64  1  -0.00091229  -0.00184505  -0.00648138  1
  Pb  Pb65  1  -0.00294509  0.00483682  0.25198962  1
  Pb  Pb66  1  -0.00169791  -0.00028881  0.50091304  1
  Pb  Pb67  1  -0.00053656  -0.00015694  0.75561728  1
  Pb  Pb68  1  -0.00390762  0.25294554  -0.01359437  1
  Pb  Pb69  1  -0.00912830  0.25433559  0.25645039  1
  Pb  Pb70  1  -0.00781833  0.26073444  0.50930932  1
  Pb  Pb71  1  0.00061803  0.25928030  0.75076151  1
  Pb  Pb72  1  0.00107966  0.50115882  -0.01639490  1
  Pb  Pb73  1  -0.00928415  0.49858804  0.25114098  1
  Pb  Pb74  1  -0.00364278  0.49371823  0.50896745  1
  Pb  Pb75  1  0.00926228  0.50031639  0.75082147  1
  Pb  Pb76  1  0.00385731  0.73495816  -0.00527689  1
  Pb  Pb77  1  -0.00459038  0.74269483  0.24703601  1
  Pb  Pb78  1  0.00660232  0.74203461  0.50427625  1
  Pb  Pb79  1  -0.00024299  0.74406362  0.75872677  1
  Pb  Pb80  1  0.25514097  -0.00126700  0.00167265  1
  Pb  Pb81  1  0.25440210  -0.00409529  0.24735107  1
  Pb  Pb82  1  0.25043194  -0.00034811  0.49805550  1
  Pb  Pb83  1  0.25553246  -0.00951591  0.75781619  1
  Pb  Pb84  1  0.25701880  0.24441732  0.00047828  1
  Pb  Pb85  1  0.25567364  0.25694707  0.25589334  1
  Pb  Pb86  1  0.24661176  0.25738501  0.50535812  1
  Pb  Pb87  1  0.25209013  0.25589670  0.74560670  1
  Pb  Pb88  1  0.24623215  0.50686690  -0.00224126  1
  Pb  Pb89  1  0.25468298  0.49474864  0.25207449  1
  Pb  Pb90  1  0.23825724  0.50246422  0.50795936  1
  Pb  Pb91  1  0.24492491  0.49918409  0.74667831  1
  Pb  Pb92  1  0.24529073  0.74454068  -0.00290769  1
  Pb  Pb93  1  0.25396806  0.75126176  0.24209122  1
  Pb  Pb94  1  0.24474574  0.74339551  0.50256563  1
  Pb  Pb95  1  0.25379095  0.76180216  0.75962924  1
  Pb  Pb96  1  0.49194298  0.00285510  0.00355120  1
  Pb  Pb97  1  0.49558335  0.00059295  0.24608949  1
  Pb  Pb98  1  0.50909311  -0.00134778  0.50203060  1
  Pb  Pb99  1  0.50086145  0.00096606  0.74988562  1
  Pb  Pb100  1  0.51514895  0.24625253  0.00251670  1
  Pb  Pb101  1  0.50664042  0.24662547  0.24861056  1
  Pb  Pb102  1  0.50475338  0.26038665  0.50456348  1
  Pb  Pb103  1  0.51112985  0.25198751  0.74695738  1
  Pb  Pb104  1  0.51208037  0.49794743  0.00241486  1
  Pb  Pb105  1  0.50521506  0.50308777  0.24448425  1
  Pb  Pb106  1  0.50118429  0.49352895  0.50232623  1
  Pb  Pb107  1  0.50772407  0.49665003  0.75041216  1
  Pb  Pb108  1  0.49724666  0.73854190  0.00688445  1
  Pb  Pb109  1  0.49553844  0.75021121  0.24177560  1
  Pb  Pb110  1  0.50297169  0.75626761  0.49663469  1
  Pb  Pb111  1  0.50101353  0.74815978  0.75491106  1
  Pb  Pb112  1  0.74462304  0.00823931  -0.00435955  1
  Pb  Pb113  1  0.74965907  0.01212136  0.25710205  1
  Pb  Pb114  1  0.74273803  0.00307186  0.50191683  1
  Pb  Pb115  1  0.74044590  0.00679943  0.75240386  1
  Pb  Pb116  1  0.74827971  0.24807708  -0.01349465  1
  Pb  Pb117  1  0.74858419  0.24492921  0.25410356  1
  Pb  Pb118  1  0.75107305  0.25302069  0.50029407  1
  Pb  Pb119  1  0.74248255  0.26015984  0.75020129  1
  Pb  Pb120  1  0.75208826  0.49510917  -0.01260234  1
  Pb  Pb121  1  0.75058257  0.50629367  0.24567321  1
  Pb  Pb122  1  0.75354824  0.49508797  0.50037602  1
  Pb  Pb123  1  0.74849661  0.49444338  0.75280418  1
  Pb  Pb124  1  0.75261910  0.73836837  0.00144815  1
  Pb  Pb125  1  0.75076217  0.73748213  0.24961942  1
  Pb  Pb126  1  0.74936519  0.74812408  0.49721269  1
  Pb  Pb127  1  0.74670796  0.73761874  0.76022993  1
  O  O128  1  0.12022342  0.00024085  0.16566456  1
  O  O129  1  0.12523059  -0.00133506  0.41603212  1
  O  O130  1  0.13078822  -0.00170143  0.66919600  1
  O  O131  1  0.12773768  0.00834217  0.91231766  1
  O  O132  1  0.12319701  0.25375984  0.16879581  1
  O  O133  1  0.12544044  0.25340282  0.41693977  1
  O  O134  1  0.12971863  0.23821138  0.66149400  1
  O  O135  1  0.13008876  0.24197818  0.91092406  1
  O  O136  1  0.12354625  0.48875058  0.16359137  1
  O  O137  1  0.12540522  0.49872818  0.41854013  1
  O  O138  1  0.12556073  0.50226642  0.66318865  1
  O  O139  1  0.13031078  0.49809671  0.90556428  1
  O  O140  1  0.12062135  0.76065005  0.15831009  1
  O  O141  1  0.12470329  0.75041919  0.41768961  1
  O  O142  1  0.12742390  0.75843186  0.66886926  1
  O  O143  1  0.12889668  0.74843595  0.90657246  1
  O  O144  1  0.37262280  0.00063069  0.16499980  1
  O  O145  1  0.36775231  0.00599809  0.41253228  1
  O  O146  1  0.37161965  -0.00094135  0.66410014  1
  O  O147  1  0.37285849  0.00853995  0.91369969  1
  O  O148  1  0.37030572  0.25586882  0.16744791  1
  O  O149  1  0.36977321  0.24150575  0.41523165  1
  O  O150  1  0.37230220  0.24096907  0.65391636  1
  O  O151  1  0.37283689  0.24741546  0.91332430  1
  O  O152  1  0.36988334  0.49139356  0.16403485  1
  O  O153  1  0.37053939  0.51073423  0.41503305  1
  O  O154  1  0.38105831  0.50990079  0.65913369  1
  O  O155  1  0.37468992  0.49638676  0.90935474  1
  O  O156  1  0.37270442  0.75341252  0.15930365  1
  O  O157  1  0.37115828  0.74402438  0.41371342  1
  O  O158  1  0.37687573  0.74722014  0.66733215  1
  O  O159  1  0.37509685  0.74323316  0.91184113  1
  O  O160  1  0.63028951  -0.00626732  0.16604262  1
  O  O161  1  0.62366917  -0.00661664  0.41165761  1
  O  O162  1  0.62139624  -0.00349451  0.66689409  1
  O  O163  1  0.62512258  -0.00648769  0.91462982  1
  O  O164  1  0.62722306  0.25255123  0.16808461  1
  O  O165  1  0.62332836  0.25695433  0.41399888  1
  O  O166  1  0.62256380  0.24519612  0.65805177  1
  O  O167  1  0.62070818  0.24670538  0.90968919  1
  O  O168  1  0.62571942  0.49579143  0.16222859  1
  O  O169  1  0.62290524  0.49621558  0.41242158  1
  O  O170  1  0.62589398  0.51151816  0.66428232  1
  O  O171  1  0.62080878  0.49910219  0.91147218  1
  O  O172  1  0.62935685  0.76091447  0.16137593  1
  O  O173  1  0.62344467  0.75474260  0.41196838  1
  O  O174  1  0.62448210  0.74768897  0.66637297  1
  O  O175  1  0.62466732  0.75984571  0.91658729  1
  O  O176  1  0.87850419  -0.00082230  0.16730606  1
  O  O177  1  0.87709902  -0.00612444  0.41797553  1
  O  O178  1  0.88211058  -0.00825161  0.66841607  1
  O  O179  1  0.87581170  -0.00330819  0.91243777  1
  O  O180  1  0.88033707  0.25255616  0.16515652  1
  O  O181  1  0.87637272  0.25137009  0.42072423  1
  O  O182  1  0.87909185  0.23730817  0.65948380  1
  O  O183  1  0.87814533  0.24561089  0.90328013  1
  O  O184  1  0.88205633  0.49178412  0.15691632  1
  O  O185  1  0.87648237  0.50047603  0.42068934  1
  O  O186  1  0.87254661  0.51077442  0.66249869  1
  O  O187  1  0.87563224  0.49749955  0.90185778  1
  O  O188  1  0.87906355  0.76004112  0.15934334  1
  O  O189  1  0.87551808  0.75502224  0.41866672  1
  O  O190  1  0.87683424  0.75869378  0.66840203  1
  O  O191  1  0.87434577  0.76077003  0.91195301  1
  O  O192  1  0.00083888  0.12605567  0.17123983  1
  O  O193  1  0.00575737  0.12391980  0.41966911  1
  O  O194  1  0.01026426  0.11676027  0.66624805  1
  O  O195  1  0.00764957  0.12340550  0.90382687  1
  O  O196  1  0.00238591  0.37116886  0.16530505  1
  O  O197  1  0.00660508  0.37627180  0.41971119  1
  O  O198  1  0.00199056  0.37201918  0.66520472  1
  O  O199  1  0.00399785  0.37002934  0.90302671  1
  O  O200  1  0.00161268  0.62566535  0.16574072  1
  O  O201  1  0.00451246  0.62649134  0.41798126  1
  O  O202  1  -0.00744124  0.63289796  0.66531591  1
  O  O203  1  0.00057861  0.62681039  0.90413604  1
  O  O204  1  -0.00095864  0.88008099  0.16685869  1
  O  O205  1  0.00265712  0.87403862  0.41640338  1
  O  O206  1  0.00484638  0.87615364  0.66807431  1
  O  O207  1  -0.00501873  0.87950619  0.90955341  1
  O  O208  1  0.24342466  0.12675735  0.16593641  1
  O  O209  1  0.24596364  0.12534601  0.41975819  1
  O  O210  1  0.25185246  0.11977251  0.66507360  1
  O  O211  1  0.25065312  0.12554863  0.91356878  1
  O  O212  1  0.24576281  0.37195051  0.16550911  1
  O  O213  1  0.24306597  0.37631558  0.42081387  1
  O  O214  1  0.25619440  0.37576032  0.66079320  1
  O  O215  1  0.25842316  0.37066634  0.91431701  1
  O  O216  1  0.24703445  0.62401320  0.16614444  1
  O  O217  1  0.24763148  0.62644371  0.41764423  1
  O  O218  1  0.25984636  0.62774768  0.66245763  1
  O  O219  1  0.25729103  0.62193637  0.90943138  1
  O  O220  1  0.23916394  0.87987377  0.15615021  1
  O  O221  1  0.24460121  0.87382282  0.41500258  1
  O  O222  1  0.25192142  0.87382622  0.66868930  1
  O  O223  1  0.24774567  0.87763885  0.92017907  1
  O  O224  1  0.49939003  0.12567525  0.16665084  1
  O  O225  1  0.49273470  0.12263426  0.40634326  1
  O  O226  1  0.48882946  0.11883471  0.65886833  1
  O  O227  1  0.49359154  0.12345394  0.91066028  1
  O  O228  1  0.49235280  0.37318057  0.15888854  1
  O  O229  1  0.50268122  0.37608642  0.41265982  1
  O  O230  1  0.49717989  0.37665108  0.66591811  1
  O  O231  1  0.48886569  0.37152786  0.91439438  1
  O  O232  1  0.49787283  0.62495451  0.16256548  1
  O  O233  1  0.49488948  0.62767427  0.40675554  1
  O  O234  1  0.50180093  0.63011688  0.66427679  1
  O  O235  1  0.49378327  0.62467012  0.91576716  1
  O  O236  1  0.50691683  0.87790039  0.15641856  1
  O  O237  1  0.50200357  0.87423467  0.40958812  1
  O  O238  1  0.49446348  0.87281034  0.66600216  1
  O  O239  1  0.50501498  0.87740952  0.91247593  1
  O  O240  1  0.75673845  0.12550314  0.16748096  1
  O  O241  1  0.75187031  0.12354670  0.42102003  1
  O  O242  1  0.75561035  0.11422947  0.65698291  1
  O  O243  1  0.75027973  0.12084826  0.90489399  1
  O  O244  1  0.76039395  0.37325288  0.15480265  1
  O  O245  1  0.74347790  0.37613351  0.41333964  1
  O  O246  1  0.74734146  0.37585891  0.66380017  1
  O  O247  1  0.75092401  0.37224435  0.90505050  1
  O  O248  1  0.75393709  0.62601738  0.16012981  1
  O  O249  1  0.74866923  0.62686386  0.41802141  1
  O  O250  1  0.74918145  0.63269746  0.66602594  1
  O  O251  1  0.74976133  0.62911356  0.91277328  1
  O  O252  1  0.75655136  0.87866891  0.16066167  1
  O  O253  1  0.74669415  0.87461629  0.41207449  1
  O  O254  1  0.75451840  0.87825268  0.65758211  1
  O  O255  1  0.75133701  0.87819320  0.91199686  1
  O  O256  1  0.12111037  0.12806948  0.05004955  1
  O  O257  1  0.12557273  0.12595014  0.30064268  1
  O  O258  1  0.12680410  0.11645152  0.55106215  1
  O  O259  1  0.13186208  0.12502540  0.79367654  1
  O  O260  1  0.12420893  0.37017790  0.04899545  1
  O  O261  1  0.12479945  0.37593734  0.30541252  1
  O  O262  1  0.12543149  0.37506754  0.53830548  1
  O  O263  1  0.13415408  0.36996737  0.77798738  1
  O  O264  1  0.12655934  0.62233768  0.03398084  1
  O  O265  1  0.12476174  0.62442683  0.30020524  1
  O  O266  1  0.12801341  0.63435844  0.54509424  1
  O  O267  1  0.12350755  0.62254926  0.77432494  1
  O  O268  1  0.11270757  0.88115837  0.04585721  1
  O  O269  1  0.12313679  0.87344883  0.29708206  1
  O  O270  1  0.12444029  0.87610755  0.55776456  1
  O  O271  1  0.13515884  0.87920869  0.78402863  1
  O  O272  1  0.37082364  0.12597908  0.03609686  1
  O  O273  1  0.36942872  0.12632226  0.29745455  1
  O  O274  1  0.36938522  0.11819007  0.54513602  1
  O  O275  1  0.37548207  0.12916509  0.79896883  1
  O  O276  1  0.37042898  0.37183177  0.04887133  1
  O  O277  1  0.36242863  0.37598346  0.29527741  1
  O  O278  1  0.38279720  0.37542470  0.52734060  1
  O  O279  1  0.37503238  0.37390646  0.79675565  1
  O  O280  1  0.37065808  0.62339884  0.03245523  1
  O  O281  1  0.37146498  0.62596554  0.29655153  1
  O  O282  1  0.37551313  0.63077734  0.54762571  1
  O  O283  1  0.37995481  0.62467992  0.79894589  1
  O  O284  1  0.37690921  0.88588449  0.02921928  1
  O  O285  1  0.36981317  0.87586273  0.28465905  1
  O  O286  1  0.37449448  0.87291913  0.54896531  1
  O  O287  1  0.36611187  0.87490012  0.79402713  1
  O  O288  1  0.62707998  0.12600190  0.03809847  1
  O  O289  1  0.63770530  0.12851040  0.29045828  1
  O  O290  1  0.62069584  0.11181700  0.53227881  1
  O  O291  1  0.61984045  0.11642129  0.78088005  1
  O  O292  1  0.62170709  0.37066447  0.03003259  1
  O  O293  1  0.62437199  0.37646325  0.29800062  1
  O  O294  1  0.61334498  0.37918812  0.53625570  1
  O  O295  1  0.62038538  0.37153913  0.78282915  1
  O  O296  1  0.61847791  0.63024097  0.03393613  1
  O  O297  1  0.63368493  0.62372914  0.28190807  1
  O  O298  1  0.62337317  0.63009156  0.55080021  1
  O  O299  1  0.62252800  0.63465223  0.78945248  1
  O  O300  1  0.62992315  0.87957386  0.04571828  1
  O  O301  1  0.62605511  0.87378379  0.29739349  1
  O  O302  1  0.61498001  0.87666145  0.53524831  1
  O  O303  1  0.62199060  0.87470463  0.79811785  1
  O  O304  1  0.87885542  0.12555817  0.05054614  1
  O  O305  1  0.87477533  0.12493397  0.28902911  1
  O  O306  1  0.88510483  0.11207139  0.55767449  1
  O  O307  1  0.87770195  0.11438908  0.77246964  1
  O  O308  1  0.88227426  0.36824189  0.04554623  1
  O  O309  1  0.88368600  0.37621214  0.28889745  1
  O  O310  1  0.87984024  0.37702172  0.54350798  1
  O  O311  1  0.87121023  0.36920117  0.77036568  1
  O  O312  1  0.88055742  0.63054500  0.03081232  1
  O  O313  1  0.87574109  0.62687078  0.28703344  1
  O  O314  1  0.87174554  0.63416229  0.55533761  1
  O  O315  1  0.87048677  0.63792284  0.78118920  1
  O  O316  1  0.87653943  0.88299313  0.04820096  1
  O  O317  1  0.87559989  0.87379550  0.29832941  1
  O  O318  1  0.87831678  0.87477937  0.55084905  1
  O  O319  1  0.87158750  0.87715885  0.79607873  1
