# generated using pymatgen
data_VFe(PbO3)2
_symmetry_space_group_name_H-M   'P 1'
_cell_length_a   15.37392916
_cell_length_b   15.38300670
_cell_length_c   18.54765911
_cell_angle_alpha   90.03747588
_cell_angle_beta   90.00042691
_cell_angle_gamma   89.99231655
_symmetry_Int_Tables_number   1
_chemical_formula_structural   VFe(PbO3)2
_chemical_formula_sum   'V32 Fe32 Pb64 O192'
_cell_volume   4386.46949415
_cell_formula_units_Z   32
loop_
 _symmetry_equiv_pos_site_id
 _symmetry_equiv_pos_as_xyz
  1  'x, y, z'
loop_
 _atom_site_type_symbol
 _atom_site_label
 _atom_site_symmetry_multiplicity
 _atom_site_fract_x
 _atom_site_fract_y
 _atom_site_fract_z
 _atom_site_occupancy
  V  V0  1  0.87765391  0.87360377  0.38482098  1
  V  V1  1  0.37352235  0.12552417  0.14697252  1
  V  V2  1  0.12379121  0.12362857  0.39076343  1
  V  V3  1  0.62238696  0.13083174  0.14262426  1
  V  V4  1  0.37612218  0.87565589  0.89029606  1
  V  V5  1  0.12497781  0.87945253  0.13916346  1
  V  V6  1  0.62665334  0.12543936  0.39080097  1
  V  V7  1  0.62655721  0.62624330  0.89225806  1
  V  V8  1  0.87523522  0.87248508  0.63944058  1
  V  V9  1  0.62335996  0.12713311  0.88659998  1
  V  V10  1  0.62492694  0.37597999  0.38666205  1
  V  V11  1  0.37571129  0.62374121  0.63856044  1
  V  V12  1  0.62264304  0.37671946  0.14027392  1
  V  V13  1  0.37315882  0.87468116  0.38978469  1
  V  V14  1  0.12322821  0.87550344  0.64195504  1
  V  V15  1  0.37531525  0.87446319  0.14320629  1
  V  V16  1  0.37350237  0.62561458  0.38818653  1
  V  V17  1  0.87392672  0.12510205  0.64119371  1
  V  V18  1  0.12432095  0.12579419  0.88498492  1
  V  V19  1  0.87400666  0.62662571  0.89056217  1
  V  V20  1  0.87437788  0.62362638  0.63896961  1
  V  V21  1  0.62360550  0.87521567  0.89310418  1
  V  V22  1  0.62138419  0.62674777  0.14280802  1
  V  V23  1  0.62687689  0.87344011  0.63784502  1
  V  V24  1  0.37485195  0.87199723  0.63581104  1
  V  V25  1  0.37607580  0.12350192  0.88394113  1
  V  V26  1  0.62240123  0.88179104  0.14662425  1
  V  V27  1  0.12820418  0.12908661  0.14036029  1
  V  V28  1  0.12341232  0.62511974  0.38735240  1
  V  V29  1  0.12728206  0.37607421  0.13734626  1
  V  V30  1  0.37816516  0.62666280  0.88978621  1
  V  V31  1  0.62735639  0.37607821  0.63543013  1
  Fe  Fe32  1  0.62477604  0.62482341  0.38332385  1
  Fe  Fe33  1  0.87167780  0.37508159  0.88204587  1
  Fe  Fe34  1  0.12659312  0.62709760  0.88515394  1
  Fe  Fe35  1  0.87354573  0.87593560  0.89612276  1
  Fe  Fe36  1  0.62507081  0.87450521  0.37993711  1
  Fe  Fe37  1  0.87555740  0.37368508  0.38235991  1
  Fe  Fe38  1  0.12282131  0.12166047  0.63319671  1
  Fe  Fe39  1  0.87277213  0.12448944  0.88455625  1
  Fe  Fe40  1  0.37435660  0.12359235  0.39589747  1
  Fe  Fe41  1  0.37593431  0.37207072  0.13855948  1
  Fe  Fe42  1  0.37434115  0.37598232  0.39694572  1
  Fe  Fe43  1  0.62744983  0.62617554  0.63470958  1
  Fe  Fe44  1  0.12480209  0.37531182  0.38857621  1
  Fe  Fe45  1  0.87358831  0.37665143  0.63721333  1
  Fe  Fe46  1  0.87698554  0.62508996  0.37849960  1
  Fe  Fe47  1  0.87167274  0.87610121  0.13043167  1
  Fe  Fe48  1  0.12546282  0.37483961  0.88087968  1
  Fe  Fe49  1  0.87684272  0.62550761  0.13691489  1
  Fe  Fe50  1  0.87708374  0.12444405  0.14003830  1
  Fe  Fe51  1  0.37643469  0.12145661  0.62792944  1
  Fe  Fe52  1  0.87623678  0.12199512  0.38148317  1
  Fe  Fe53  1  0.62486218  0.37721313  0.88693955  1
  Fe  Fe54  1  0.12314771  0.62823134  0.64242629  1
  Fe  Fe55  1  0.87480771  0.37285345  0.14116234  1
  Fe  Fe56  1  0.12592159  0.87325953  0.38348832  1
  Fe  Fe57  1  0.37728514  0.37629034  0.62842350  1
  Fe  Fe58  1  0.12718515  0.87700312  0.88701665  1
  Fe  Fe59  1  0.12260390  0.37520467  0.63327285  1
  Fe  Fe60  1  0.37762913  0.37425055  0.88143410  1
  Fe  Fe61  1  0.62805016  0.12374887  0.63317041  1
  Fe  Fe62  1  0.12872333  0.62417119  0.12960830  1
  Fe  Fe63  1  0.37297245  0.62358377  0.13614332  1
  Pb  Pb64  1  -0.00764759  0.00147497  -0.00134288  1
  Pb  Pb65  1  -0.00276521  0.00064826  0.24796056  1
  Pb  Pb66  1  0.00369869  0.00198745  0.49827123  1
  Pb  Pb67  1  -0.01133205  -0.00287278  0.75653640  1
  Pb  Pb68  1  -0.01056156  0.25630378  -0.00397678  1
  Pb  Pb69  1  0.00071391  0.25926312  0.25401683  1
  Pb  Pb70  1  -0.00182491  0.25645357  0.49893532  1
  Pb  Pb71  1  0.00284731  0.25705384  0.74575790  1
  Pb  Pb72  1  0.00198511  0.50061698  -0.00601371  1
  Pb  Pb73  1  -0.00520079  0.50198413  0.24686961  1
  Pb  Pb74  1  -0.00357031  0.48817870  0.50050421  1
  Pb  Pb75  1  0.00897471  0.49513994  0.74926879  1
  Pb  Pb76  1  0.00499681  0.74781835  -0.00211228  1
  Pb  Pb77  1  -0.00601454  0.74595064  0.24206145  1
  Pb  Pb78  1  0.00470385  0.74206739  0.49974065  1
  Pb  Pb79  1  0.00660492  0.75285487  0.75811903  1
  Pb  Pb80  1  0.25022431  0.00348460  -0.00178411  1
  Pb  Pb81  1  0.24698559  0.00167108  0.25717403  1
  Pb  Pb82  1  0.24638838  0.00640591  0.50295160  1
  Pb  Pb83  1  0.24639089  -0.00092653  0.74553741  1
  Pb  Pb84  1  0.25547229  0.25844158  -0.00580300  1
  Pb  Pb85  1  0.25052159  0.26114357  0.26274081  1
  Pb  Pb86  1  0.24874892  0.25424423  0.50140257  1
  Pb  Pb87  1  0.25139544  0.25218236  0.73450904  1
  Pb  Pb88  1  0.24820494  0.50145873  -0.00586681  1
  Pb  Pb89  1  0.25205290  0.49422751  0.24814246  1
  Pb  Pb90  1  0.24220822  0.49290444  0.50388031  1
  Pb  Pb91  1  0.24522379  0.48931095  0.74575364  1
  Pb  Pb92  1  0.24762261  0.74228845  0.00165015  1
  Pb  Pb93  1  0.24362614  0.75241518  0.24856178  1
  Pb  Pb94  1  0.24508306  0.74170933  0.50261877  1
  Pb  Pb95  1  0.24136351  0.74996771  0.75606013  1
  Pb  Pb96  1  0.50295628  0.00257886  0.00050276  1
  Pb  Pb97  1  0.49447739  0.00741587  0.25841205  1
  Pb  Pb98  1  0.50236251  0.00550848  0.50156344  1
  Pb  Pb99  1  0.50157417  0.00368222  0.74332640  1
  Pb  Pb100  1  0.49491701  0.25768728  -0.00197355  1
  Pb  Pb101  1  0.48318698  0.24964475  0.26310163  1
  Pb  Pb102  1  0.49479928  0.24742201  0.50193380  1
  Pb  Pb103  1  0.49625223  0.25511268  0.74135627  1
  Pb  Pb104  1  0.49087654  0.49765276  0.00219996  1
  Pb  Pb105  1  0.49700963  0.49921997  0.25056641  1
  Pb  Pb106  1  0.49914941  0.49962224  0.49982402  1
  Pb  Pb107  1  0.50261311  0.48965867  0.75157702  1
  Pb  Pb108  1  0.49552762  0.74455614  0.00598149  1
  Pb  Pb109  1  0.50874509  0.74944167  0.25649162  1
  Pb  Pb110  1  0.50737135  0.74576423  0.49747829  1
  Pb  Pb111  1  0.49986577  0.74856080  0.74767914  1
  Pb  Pb112  1  0.75791170  0.00492554  0.00507478  1
  Pb  Pb113  1  0.75442537  0.00236066  0.24967438  1
  Pb  Pb114  1  0.74675615  0.00068101  0.49668929  1
  Pb  Pb115  1  0.75924437  -0.00207765  0.75666159  1
  Pb  Pb116  1  0.76087341  0.25555415  0.00154229  1
  Pb  Pb117  1  0.76218002  0.24918029  0.25234339  1
  Pb  Pb118  1  0.75676608  0.25201430  0.49725401  1
  Pb  Pb119  1  0.75420768  0.25153607  0.75106650  1
  Pb  Pb120  1  0.76148752  0.49721452  0.00597773  1
  Pb  Pb121  1  0.75828190  0.50327048  0.25063259  1
  Pb  Pb122  1  0.75666440  0.50230255  0.49256717  1
  Pb  Pb123  1  0.74746994  0.48961208  0.75292286  1
  Pb  Pb124  1  0.75722643  0.74876179  0.00751472  1
  Pb  Pb125  1  0.74584379  0.74846814  0.24927424  1
  Pb  Pb126  1  0.74702320  0.74404990  0.49196108  1
  Pb  Pb127  1  0.75735767  0.75377780  0.75212488  1
  O  O128  1  0.13129870  0.00051850  0.16721021  1
  O  O129  1  0.12519083  -0.00002816  0.41413340  1
  O  O130  1  0.12286804  -0.00758213  0.66518585  1
  O  O131  1  0.13078321  0.00830911  0.91520142  1
  O  O132  1  0.12763376  0.24531688  0.16319295  1
  O  O133  1  0.12525086  0.24112150  0.41198535  1
  O  O134  1  0.12247899  0.24707188  0.65955676  1
  O  O135  1  0.12841219  0.24166664  0.90953770  1
  O  O136  1  0.12909134  0.49183258  0.15512952  1
  O  O137  1  0.12733425  0.50983055  0.41070433  1
  O  O138  1  0.12374857  0.50343698  0.66353123  1
  O  O139  1  0.12616527  0.50151857  0.91132880  1
  O  O140  1  0.13180300  0.76129827  0.15635724  1
  O  O141  1  0.12757316  0.74512319  0.41500135  1
  O  O142  1  0.12409915  0.75732809  0.66914711  1
  O  O143  1  0.12715934  0.75121100  0.91692790  1
  O  O144  1  0.37538126  0.00051816  0.17210846  1
  O  O145  1  0.37466653  -0.00938555  0.41174258  1
  O  O146  1  0.37664026  -0.00927218  0.66279245  1
  O  O147  1  0.37799419  0.00087921  0.91679702  1
  O  O148  1  0.37501817  0.24597380  0.17201007  1
  O  O149  1  0.37694985  0.24866663  0.41888141  1
  O  O150  1  0.37974096  0.24928705  0.65223656  1
  O  O151  1  0.37879434  0.24443248  0.90969018  1
  O  O152  1  0.37552772  0.49712744  0.16605527  1
  O  O153  1  0.37430616  0.50982743  0.41457436  1
  O  O154  1  0.37906430  0.50830994  0.65782782  1
  O  O155  1  0.37927069  0.50828803  0.90906581  1
  O  O156  1  0.37407297  0.75874771  0.16274346  1
  O  O157  1  0.37363427  0.74578833  0.41428333  1
  O  O158  1  0.37609925  0.75239896  0.66771266  1
  O  O159  1  0.37891866  0.74956824  0.91664430  1
  O  O160  1  0.61941172  0.00523880  0.16911050  1
  O  O161  1  0.62574771  0.00153015  0.40974634  1
  O  O162  1  0.62675183  -0.01091742  0.66360197  1
  O  O163  1  0.61843422  0.00152496  0.91639657  1
  O  O164  1  0.62232083  0.24666734  0.16283491  1
  O  O165  1  0.62575728  0.24798925  0.41282081  1
  O  O166  1  0.62666215  0.25600712  0.65749305  1
  O  O167  1  0.61977900  0.24234323  0.90773685  1
  O  O168  1  0.62101220  0.49748506  0.16253468  1
  O  O169  1  0.62515948  0.49401294  0.40875774  1
  O  O170  1  0.62709916  0.49772915  0.66012213  1
  O  O171  1  0.62165015  0.51192900  0.91641564  1
  O  O172  1  0.61971836  0.74800419  0.16249494  1
  O  O173  1  0.62336818  0.75197271  0.41321605  1
  O  O174  1  0.62655996  0.75636500  0.66661375  1
  O  O175  1  0.62142584  0.74679169  0.92012210  1
  O  O176  1  0.87422798  -0.00167906  0.16544328  1
  O  O177  1  0.87566044  -0.00667281  0.41129288  1
  O  O178  1  0.87313803  -0.00397543  0.66757789  1
  O  O179  1  0.87128213  0.00342376  0.91887142  1
  O  O180  1  0.87496888  0.24828210  0.16690325  1
  O  O181  1  0.87312783  0.24667678  0.41157033  1
  O  O182  1  0.87126311  0.24262470  0.65972475  1
  O  O183  1  0.87180227  0.24814954  0.91268330  1
  O  O184  1  0.87392270  0.49831993  0.16414115  1
  O  O185  1  0.87395364  0.50009346  0.40903963  1
  O  O186  1  0.87197217  0.50877344  0.65839774  1
  O  O187  1  0.86987910  0.50757461  0.91224318  1
  O  O188  1  0.87448244  0.75309562  0.16090474  1
  O  O189  1  0.87744877  0.75538911  0.40843583  1
  O  O190  1  0.87456375  0.75239123  0.66942446  1
  O  O191  1  0.86938105  0.74442231  0.91649593  1
  O  O192  1  0.01145166  0.12092696  0.16196940  1
  O  O193  1  0.00399147  0.12017568  0.41170938  1
  O  O194  1  -0.00881988  0.11885509  0.66401065  1
  O  O195  1  0.00775167  0.12338452  0.90677271  1
  O  O196  1  0.00995014  0.36955448  0.16093077  1
  O  O197  1  0.00024427  0.37410984  0.41349106  1
  O  O198  1  -0.00332015  0.37575941  0.66408226  1
  O  O199  1  -0.00139199  0.37507864  0.91082826  1
  O  O200  1  0.00606622  0.62572781  0.16067047  1
  O  O201  1  0.00634698  0.62819934  0.40817173  1
  O  O202  1  -0.00969824  0.63129197  0.66691770  1
  O  O203  1  -0.00785795  0.62683833  0.90790299  1
  O  O204  1  0.00818666  0.88060338  0.15412322  1
  O  O205  1  -0.00355783  0.87370065  0.41154751  1
  O  O206  1  0.00148705  0.87447695  0.66486989  1
  O  O207  1  0.00169550  0.87710419  0.91675299  1
  O  O208  1  0.24711864  0.12318149  0.17013386  1
  O  O209  1  0.24368946  0.12050683  0.41470402  1
  O  O210  1  0.25115298  0.11871963  0.65917142  1
  O  O211  1  0.25317661  0.12431072  0.91123451  1
  O  O212  1  0.24487078  0.36824442  0.16566175  1
  O  O213  1  0.24792174  0.37629542  0.41918087  1
  O  O214  1  0.25195730  0.37780925  0.65488181  1
  O  O215  1  0.25242597  0.37405437  0.91044079  1
  O  O216  1  0.24931678  0.62623496  0.16591470  1
  O  O217  1  0.25112183  0.62757376  0.41369944  1
  O  O218  1  0.25967404  0.63005253  0.66451306  1
  O  O219  1  0.25982204  0.62855509  0.90827844  1
  O  O220  1  0.25510720  0.88107662  0.16684624  1
  O  O221  1  0.25564750  0.87043663  0.41616443  1
  O  O222  1  0.24686519  0.87417598  0.66145041  1
  O  O223  1  0.25720528  0.87693000  0.91776983  1
  O  O224  1  0.50103369  0.12493399  0.17205482  1
  O  O225  1  0.50826568  0.12223814  0.41549017  1
  O  O226  1  0.50260849  0.11909882  0.66092561  1
  O  O227  1  0.50028464  0.12231322  0.91545681  1
  O  O228  1  0.50682908  0.37137483  0.16800574  1
  O  O229  1  0.50904673  0.37403879  0.41468727  1
  O  O230  1  0.50704923  0.37848517  0.65859806  1
  O  O231  1  0.50067970  0.37718593  0.91798787  1
  O  O232  1  0.50234319  0.62425488  0.16686808  1
  O  O233  1  0.49329949  0.62616785  0.41098495  1
  O  O234  1  0.49578502  0.63177944  0.66363751  1
  O  O235  1  0.50021087  0.62916050  0.91781707  1
  O  O236  1  0.49341887  0.87849025  0.16943597  1
  O  O237  1  0.49240136  0.87089141  0.41084650  1
  O  O238  1  0.50414736  0.87226760  0.66003659  1
  O  O239  1  0.49946525  0.87479263  0.92274711  1
  O  O240  1  0.73960106  0.12330549  0.16420790  1
  O  O241  1  0.74606180  0.12191620  0.41282374  1
  O  O242  1  0.75429628  0.11988396  0.66514042  1
  O  O243  1  0.73821786  0.12145021  0.90904180  1
  O  O244  1  0.73835897  0.37301533  0.16486290  1
  O  O245  1  0.74279582  0.37222245  0.41173934  1
  O  O246  1  0.74525164  0.37611876  0.66300022  1
  O  O247  1  0.74752051  0.37701084  0.91704621  1
  O  O248  1  0.73956919  0.62447223  0.16304376  1
  O  O249  1  0.75152568  0.62696237  0.40832439  1
  O  O250  1  0.75639421  0.63235455  0.66423447  1
  O  O251  1  0.74514053  0.62833104  0.91572737  1
  O  O252  1  0.74348046  0.87573352  0.16268183  1
  O  O253  1  0.75664896  0.87406020  0.40736491  1
  O  O254  1  0.74783888  0.87292905  0.66345423  1
  O  O255  1  0.73951819  0.87462415  0.91909955  1
  O  O256  1  0.13253143  0.12624690  0.05000845  1
  O  O257  1  0.12498102  0.12150437  0.29939879  1
  O  O258  1  0.12160819  0.11301569  0.53406987  1
  O  O259  1  0.12800557  0.12143012  0.79409615  1
  O  O260  1  0.13023601  0.36966186  0.04631700  1
  O  O261  1  0.12790875  0.37014250  0.28777500  1
  O  O262  1  0.11849198  0.37927576  0.53148220  1
  O  O263  1  0.12470152  0.37754252  0.78040685  1
  O  O264  1  0.13070847  0.62682804  0.02895998  1
  O  O265  1  0.12794467  0.62793932  0.29646827  1
  O  O266  1  0.12397319  0.63723906  0.54242174  1
  O  O267  1  0.12460586  0.63602431  0.78367707  1
  O  O268  1  0.13430658  0.88630067  0.04862290  1
  O  O269  1  0.13024327  0.87387934  0.28451673  1
  O  O270  1  0.12170424  0.87225801  0.55085818  1
  O  O271  1  0.12971900  0.87185022  0.78746016  1
  O  O272  1  0.37480442  0.12609353  0.05623967  1
  O  O273  1  0.38163008  0.12446609  0.29432942  1
  O  O274  1  0.37960884  0.11442611  0.52654075  1
  O  O275  1  0.37887483  0.11980262  0.79326209  1
  O  O276  1  0.37806755  0.36856166  0.03864586  1
  O  O277  1  0.37158128  0.37049221  0.29455629  1
  O  O278  1  0.38164361  0.38244781  0.52739008  1
  O  O279  1  0.38660344  0.37720345  0.78149052  1
  O  O280  1  0.37731341  0.62729407  0.03624514  1
  O  O281  1  0.37186245  0.62540335  0.29722613  1
  O  O282  1  0.37511295  0.62832770  0.54744591  1
  O  O283  1  0.38459855  0.63137065  0.79941064  1
  O  O284  1  0.37561758  0.87967962  0.05269274  1
  O  O285  1  0.37016848  0.87193608  0.29863559  1
  O  O286  1  0.37486423  0.87071739  0.54519542  1
  O  O287  1  0.37791467  0.87541826  0.79958983  1
  O  O288  1  0.61871367  0.12648629  0.05198277  1
  O  O289  1  0.62496551  0.12723904  0.29992759  1
  O  O290  1  0.62891186  0.11409104  0.53425077  1
  O  O291  1  0.61990092  0.12208409  0.79553015  1
  O  O292  1  0.62104645  0.37514023  0.04925283  1
  O  O293  1  0.62440822  0.37342561  0.29619383  1
  O  O294  1  0.62838082  0.37793118  0.54463422  1
  O  O295  1  0.62409596  0.38443733  0.78688725  1
  O  O296  1  0.61945488  0.62544698  0.05200851  1
  O  O297  1  0.62002545  0.63056589  0.28355290  1
  O  O298  1  0.62473026  0.63185843  0.53562502  1
  O  O299  1  0.62520948  0.62793528  0.80138088  1
  O  O300  1  0.61648174  0.88121725  0.05568527  1
  O  O301  1  0.62259417  0.86642133  0.28026479  1
  O  O302  1  0.62817916  0.87216687  0.54675628  1
  O  O303  1  0.62193255  0.87367087  0.80233148  1
  O  O304  1  0.87147920  0.12503520  0.03907342  1
  O  O305  1  0.87209025  0.11967805  0.28137850  1
  O  O306  1  0.87266558  0.11954285  0.55003793  1
  O  O307  1  0.87018023  0.11650808  0.78469779  1
  O  O308  1  0.87098123  0.36944809  0.03952385  1
  O  O309  1  0.87698028  0.37145906  0.28064916  1
  O  O310  1  0.87542206  0.37511940  0.53653623  1
  O  O311  1  0.86324056  0.37344476  0.78127038  1
  O  O312  1  0.86769908  0.62287507  0.03650994  1
  O  O313  1  0.87962946  0.62346892  0.27797800  1
  O  O314  1  0.87688851  0.62976394  0.54750462  1
  O  O315  1  0.86747065  0.62910155  0.80002114  1
  O  O316  1  0.86777659  0.87819337  0.02979784  1
  O  O317  1  0.87961357  0.87566534  0.29347226  1
  O  O318  1  0.87531057  0.87168455  0.54895167  1
  O  O319  1  0.86930129  0.88073066  0.79448652  1
