# generated using pymatgen
data_VFe(PbO3)2
_symmetry_space_group_name_H-M   'P 1'
_cell_length_a   15.39981031
_cell_length_b   15.40806216
_cell_length_c   18.45279860
_cell_angle_alpha   89.99110927
_cell_angle_beta   90.02228603
_cell_angle_gamma   90.00520425
_symmetry_Int_Tables_number   1
_chemical_formula_structural   VFe(PbO3)2
_chemical_formula_sum   'V32 Fe32 Pb64 O192'
_cell_volume   4378.50243045
_cell_formula_units_Z   32
loop_
 _symmetry_equiv_pos_site_id
 _symmetry_equiv_pos_as_xyz
  1  'x, y, z'
loop_
 _atom_site_type_symbol
 _atom_site_label
 _atom_site_symmetry_multiplicity
 _atom_site_fract_x
 _atom_site_fract_y
 _atom_site_fract_z
 _atom_site_occupancy
  V  V0  1  0.12387403  0.62572905  0.38846222  1
  V  V1  1  0.12302088  0.37469445  0.65423874  1
  V  V2  1  0.87632330  0.62493131  0.64440252  1
  V  V3  1  0.62124819  0.62764268  0.13588212  1
  V  V4  1  0.37678346  0.11580420  0.90261760  1
  V  V5  1  0.62141478  0.62444362  0.88284158  1
  V  V6  1  0.12489727  0.87475996  0.89530477  1
  V  V7  1  0.37641120  0.62511804  0.39393240  1
  V  V8  1  0.62576799  0.37985302  0.13554099  1
  V  V9  1  0.87513648  0.37388714  0.38723412  1
  V  V10  1  0.62152688  0.12123764  0.89997599  1
  V  V11  1  0.62824110  0.62488290  0.39524779  1
  V  V12  1  0.62877765  0.12712317  0.64641791  1
  V  V13  1  0.87853844  0.12479940  0.38472641  1
  V  V14  1  0.37318846  0.36994122  0.64337853  1
  V  V15  1  0.12872357  0.62452977  0.89149516  1
  V  V16  1  0.88116366  0.37660120  0.89821114  1
  V  V17  1  0.12645643  0.12440561  0.64876614  1
  V  V18  1  0.37694047  0.62519313  0.13638962  1
  V  V19  1  0.38027185  0.12414249  0.38750111  1
  V  V20  1  0.37684959  0.37502195  0.89088497  1
  V  V21  1  0.62514627  0.37602912  0.88750977  1
  V  V22  1  0.12473111  0.37477144  0.38579291  1
  V  V23  1  0.63323543  0.12436235  0.38654905  1
  V  V24  1  0.87685002  0.37328283  0.64842089  1
  V  V25  1  0.37424496  0.86644376  0.89281628  1
  V  V26  1  0.87892627  0.12788360  0.65125818  1
  V  V27  1  0.12548579  0.12573906  0.38266156  1
  V  V28  1  0.12273070  0.62476807  0.64389846  1
  V  V29  1  0.37495087  0.12348586  0.64245176  1
  V  V30  1  0.37079832  0.87513936  0.64183693  1
  V  V31  1  0.37219612  0.62184607  0.64555963  1
  Fe  Fe32  1  0.62619166  0.87708218  0.64929550  1
  Fe  Fe33  1  0.37862646  0.12582456  0.12453716  1
  Fe  Fe34  1  0.62795245  0.37183760  0.64196286  1
  Fe  Fe35  1  0.37586596  0.87581584  0.38680700  1
  Fe  Fe36  1  0.37909892  0.87117983  0.13174945  1
  Fe  Fe37  1  0.37796661  0.37974954  0.13300776  1
  Fe  Fe38  1  0.87538538  0.62314583  0.38409893  1
  Fe  Fe39  1  0.12654767  0.38020747  0.12308963  1
  Fe  Fe40  1  0.12926035  0.37515707  0.89309530  1
  Fe  Fe41  1  0.12524214  0.87682851  0.38257382  1
  Fe  Fe42  1  0.37463129  0.37485229  0.38596576  1
  Fe  Fe43  1  0.87331433  0.87409082  0.89024852  1
  Fe  Fe44  1  0.37560102  0.62269766  0.87964303  1
  Fe  Fe45  1  0.62391377  0.12454761  0.12171762  1
  Fe  Fe46  1  0.87444155  0.62365138  0.89242861  1
  Fe  Fe47  1  0.87347155  0.87546114  0.38351399  1
  Fe  Fe48  1  0.87353645  0.37740133  0.12080924  1
  Fe  Fe49  1  0.62411338  0.87186960  0.12665744  1
  Fe  Fe50  1  0.87252672  0.87353885  0.12293929  1
  Fe  Fe51  1  0.87330088  0.12665443  0.89527005  1
  Fe  Fe52  1  0.87069350  0.62506850  0.12499584  1
  Fe  Fe53  1  0.12594487  0.87181228  0.12804055  1
  Fe  Fe54  1  0.62142514  0.87262994  0.88487737  1
  Fe  Fe55  1  0.62615306  0.62143300  0.63665854  1
  Fe  Fe56  1  0.87166303  0.12621784  0.12172553  1
  Fe  Fe57  1  0.87795964  0.87816357  0.64639820  1
  Fe  Fe58  1  0.62438358  0.37297808  0.38730036  1
  Fe  Fe59  1  0.12655513  0.12457448  0.12316289  1
  Fe  Fe60  1  0.12457792  0.87539821  0.64147227  1
  Fe  Fe61  1  0.12618636  0.62512753  0.12875626  1
  Fe  Fe62  1  0.62344630  0.87710127  0.38723275  1
  Fe  Fe63  1  0.12825582  0.12449687  0.89876733  1
  Pb  Pb64  1  -0.00730745  0.00311942  -0.00148582  1
  Pb  Pb65  1  -0.00270848  -0.00525599  0.23070338  1
  Pb  Pb66  1  -0.00026109  -0.00950393  0.49995579  1
  Pb  Pb67  1  -0.00535863  -0.00079193  0.76216990  1
  Pb  Pb68  1  0.00645131  0.24357663  -0.00075001  1
  Pb  Pb69  1  0.00052145  0.25164384  0.22579989  1
  Pb  Pb70  1  0.00052009  0.24685346  0.49743088  1
  Pb  Pb71  1  0.00704173  0.24402294  0.76881253  1
  Pb  Pb72  1  0.01105471  0.50446530  0.00414036  1
  Pb  Pb73  1  -0.00499456  0.50531867  0.23235321  1
  Pb  Pb74  1  -0.00162934  0.49918303  0.49806566  1
  Pb  Pb75  1  -0.00576294  0.50314106  0.76298707  1
  Pb  Pb76  1  -0.00287764  0.74757608  0.00011045  1
  Pb  Pb77  1  -0.00301957  0.75321920  0.23595031  1
  Pb  Pb78  1  -0.00649900  0.76167182  0.49977009  1
  Pb  Pb79  1  -0.00737806  0.75466699  0.75676311  1
  Pb  Pb80  1  0.24400058  -0.00645836  0.01032190  1
  Pb  Pb81  1  0.25140632  -0.00196444  0.23409908  1
  Pb  Pb82  1  0.24374981  -0.00281839  0.49616212  1
  Pb  Pb83  1  0.24419031  0.00780193  0.75883955  1
  Pb  Pb84  1  0.25324882  0.24723192  0.00395893  1
  Pb  Pb85  1  0.25308413  0.25184946  0.23228579  1
  Pb  Pb86  1  0.24874023  0.24741317  0.49624408  1
  Pb  Pb87  1  0.24014140  0.24751295  0.76527945  1
  Pb  Pb88  1  0.25298378  0.49630876  0.00160846  1
  Pb  Pb89  1  0.25295327  0.49554706  0.24264898  1
  Pb  Pb90  1  0.24813260  0.49915955  0.50030348  1
  Pb  Pb91  1  0.24763975  0.49471998  0.75710467  1
  Pb  Pb92  1  0.24314475  0.74771168  0.00575914  1
  Pb  Pb93  1  0.24471631  0.76393550  0.24751694  1
  Pb  Pb94  1  0.24348954  0.75612137  0.50067811  1
  Pb  Pb95  1  0.25192911  0.74327365  0.75339745  1
  Pb  Pb96  1  0.50021338  -0.01352551  0.00950496  1
  Pb  Pb97  1  0.50259126  -0.00317023  0.23690357  1
  Pb  Pb98  1  0.50604850  -0.00753037  0.50436618  1
  Pb  Pb99  1  0.50189525  -0.00269780  0.75706766  1
  Pb  Pb100  1  0.49641923  0.24877205  0.00545556  1
  Pb  Pb101  1  0.49963324  0.25334164  0.24169725  1
  Pb  Pb102  1  0.50195212  0.25463130  0.49984843  1
  Pb  Pb103  1  0.49774633  0.24460099  0.75732923  1
  Pb  Pb104  1  0.49583798  0.49829196  -0.00106013  1
  Pb  Pb105  1  0.50273520  0.49125182  0.25492487  1
  Pb  Pb106  1  0.50588241  0.49899071  0.50497315  1
  Pb  Pb107  1  0.50003224  0.50188188  0.74753768  1
  Pb  Pb108  1  0.50168256  0.75407895  0.00005108  1
  Pb  Pb109  1  0.50333222  0.76304120  0.25364894  1
  Pb  Pb110  1  0.50838629  0.75057519  0.50591485  1
  Pb  Pb111  1  0.50678488  0.75255349  0.74890783  1
  Pb  Pb112  1  0.75616813  -0.00800039  -0.00237183  1
  Pb  Pb113  1  0.74856065  -0.00617421  0.23265299  1
  Pb  Pb114  1  0.75248627  -0.01778987  0.50945200  1
  Pb  Pb115  1  0.75887802  -0.00564354  0.76397928  1
  Pb  Pb116  1  0.74936973  0.24869608  0.00184458  1
  Pb  Pb117  1  0.74865345  0.25044285  0.23637759  1
  Pb  Pb118  1  0.74619706  0.25301196  0.50101982  1
  Pb  Pb119  1  0.75729649  0.24317519  0.76426609  1
  Pb  Pb120  1  0.75445184  0.50155807  0.00005725  1
  Pb  Pb121  1  0.75541806  0.50513721  0.24598121  1
  Pb  Pb122  1  0.74243528  0.49739299  0.50379912  1
  Pb  Pb123  1  0.75522281  0.50395070  0.75648237  1
  Pb  Pb124  1  0.75628301  0.75138325  -0.00630469  1
  Pb  Pb125  1  0.76266140  0.75705465  0.24492567  1
  Pb  Pb126  1  0.75333600  0.75432538  0.50068836  1
  Pb  Pb127  1  0.75103954  0.75780900  0.75323392  1
  O  O128  1  0.12746623  -0.00109967  0.15327803  1
  O  O129  1  0.12548353  0.00591834  0.41070877  1
  O  O130  1  0.12552997  0.00504676  0.67282359  1
  O  O131  1  0.13381966  -0.00832866  0.91330727  1
  O  O132  1  0.12704581  0.25308481  0.14836364  1
  O  O133  1  0.12448208  0.25079507  0.41596069  1
  O  O134  1  0.12449412  0.24774815  0.67726050  1
  O  O135  1  0.12898044  0.25202936  0.91613522  1
  O  O136  1  0.12755078  0.50307216  0.16137754  1
  O  O137  1  0.12612521  0.49952314  0.41647835  1
  O  O138  1  0.12367673  0.49971919  0.67473150  1
  O  O139  1  0.12668163  0.50719085  0.90752514  1
  O  O140  1  0.12812410  0.74681191  0.16004441  1
  O  O141  1  0.12538982  0.74143476  0.41242898  1
  O  O142  1  0.12415726  0.74439418  0.66861211  1
  O  O143  1  0.13067861  0.75155742  0.91502750  1
  O  O144  1  0.37911450  -0.00037268  0.15181447  1
  O  O145  1  0.37171978  0.00835892  0.41412011  1
  O  O146  1  0.37356627  0.00133584  0.66967778  1
  O  O147  1  0.37782451  -0.00020575  0.91492485  1
  O  O148  1  0.37872723  0.25309543  0.15580916  1
  O  O149  1  0.37186362  0.24319109  0.41604294  1
  O  O150  1  0.37268806  0.25077174  0.66894810  1
  O  O151  1  0.37838309  0.25952107  0.91415672  1
  O  O152  1  0.38197871  0.50821712  0.16651546  1
  O  O153  1  0.37239535  0.50632329  0.42045408  1
  O  O154  1  0.37034553  0.49224411  0.66496580  1
  O  O155  1  0.37716115  0.49808939  0.91078946  1
  O  O156  1  0.38397195  0.73878827  0.16087020  1
  O  O157  1  0.37351713  0.74055165  0.42094971  1
  O  O158  1  0.37179013  0.75530907  0.66153201  1
  O  O159  1  0.37694328  0.75052631  0.90790182  1
  O  O160  1  0.62262901  -0.00073594  0.14814202  1
  O  O161  1  0.62314961  0.01125604  0.41623273  1
  O  O162  1  0.62344592  0.01254034  0.67329105  1
  O  O163  1  0.61617024  0.00565529  0.90739399  1
  O  O164  1  0.62418879  0.26040433  0.15403104  1
  O  O165  1  0.62252861  0.24083606  0.41779893  1
  O  O166  1  0.62344939  0.24424398  0.67353390  1
  O  O167  1  0.61843215  0.26171516  0.91447933  1
  O  O168  1  0.62444707  0.49941750  0.16385261  1
  O  O169  1  0.62276992  0.50337074  0.41736471  1
  O  O170  1  0.62495048  0.49617926  0.66757575  1
  O  O171  1  0.62107327  0.49891128  0.90982543  1
  O  O172  1  0.62178989  0.74157949  0.15630860  1
  O  O173  1  0.62195478  0.74418274  0.41789417  1
  O  O174  1  0.62452636  0.74725925  0.66558923  1
  O  O175  1  0.61908434  0.74125232  0.90246565  1
  O  O176  1  0.87231887  0.00033753  0.15059494  1
  O  O177  1  0.87449556  0.00877169  0.41324150  1
  O  O178  1  0.87494551  0.01081317  0.67133551  1
  O  O179  1  0.87273730  -0.00010512  0.91065166  1
  O  O180  1  0.87140235  0.25351006  0.15164995  1
  O  O181  1  0.87770879  0.24914417  0.41863032  1
  O  O182  1  0.87629975  0.24980302  0.67602419  1
  O  O183  1  0.86916807  0.25881778  0.91309645  1
  O  O184  1  0.86816911  0.50023521  0.15534854  1
  O  O185  1  0.87569453  0.49512290  0.41756530  1
  O  O186  1  0.87907591  0.49442221  0.66966355  1
  O  O187  1  0.87012004  0.49549596  0.91382103  1
  O  O188  1  0.86980715  0.74806896  0.15383166  1
  O  O189  1  0.87403519  0.74716897  0.41738028  1
  O  O190  1  0.87721715  0.74172755  0.66269579  1
  O  O191  1  0.87424021  0.74861068  0.90893938  1
  O  O192  1  -0.00089384  0.12622114  0.14928479  1
  O  O193  1  0.00154538  0.12851688  0.41457360  1
  O  O194  1  -0.00245829  0.12828392  0.67262825  1
  O  O195  1  0.00057580  0.12617503  0.91186798  1
  O  O196  1  -0.00088982  0.37955332  0.14790618  1
  O  O197  1  0.00132951  0.37404431  0.41838326  1
  O  O198  1  -0.00452537  0.37130396  0.67777005  1
  O  O199  1  -0.00280072  0.37749871  0.90948226  1
  O  O200  1  -0.00226388  0.62389519  0.15065482  1
  O  O201  1  0.00752898  0.61960310  0.41210074  1
  O  O202  1  -0.00280626  0.62010388  0.67215787  1
  O  O203  1  0.00831478  0.62775777  0.91162444  1
  O  O204  1  -0.00136372  0.87181648  0.14945474  1
  O  O205  1  0.00003386  0.87626426  0.41470765  1
  O  O206  1  0.00219456  0.87656528  0.67402953  1
  O  O207  1  0.00851020  0.87361252  0.90909206  1
  O  O208  1  0.25278172  0.12602531  0.15407789  1
  O  O209  1  0.24872077  0.12778100  0.41311644  1
  O  O210  1  0.25146603  0.12620814  0.67164265  1
  O  O211  1  0.26058949  0.12855497  0.91572839  1
  O  O212  1  0.25184795  0.38100446  0.15700031  1
  O  O213  1  0.24641646  0.37442794  0.41660039  1
  O  O214  1  0.25214546  0.37227603  0.67217500  1
  O  O215  1  0.25937001  0.37963483  0.91143415  1
  O  O216  1  0.26154613  0.62275981  0.15491866  1
  O  O217  1  0.24697295  0.62205446  0.41816745  1
  O  O218  1  0.24691203  0.62247410  0.66987229  1
  O  O219  1  0.24803925  0.62689695  0.91179328  1
  O  O220  1  0.25425033  0.86990060  0.15596122  1
  O  O221  1  0.25029515  0.87365813  0.41794415  1
  O  O222  1  0.25509149  0.87772026  0.66889143  1
  O  O223  1  0.25700540  0.87377157  0.91671968  1
  O  O224  1  0.50293262  0.12964971  0.15566401  1
  O  O225  1  0.49565829  0.12689815  0.40993937  1
  O  O226  1  0.49926514  0.12757103  0.66990042  1
  O  O227  1  0.49762709  0.13309181  0.91845038  1
  O  O228  1  0.50668859  0.38012103  0.16283469  1
  O  O229  1  0.49804774  0.37325845  0.41959315  1
  O  O230  1  0.49070716  0.37173032  0.66398140  1
  O  O231  1  0.49994118  0.38040193  0.91347423  1
  O  O232  1  0.50548591  0.61961706  0.16601592  1
  O  O233  1  0.49691611  0.62321912  0.41829551  1
  O  O234  1  0.49417643  0.62179350  0.66305486  1
  O  O235  1  0.50420592  0.62104014  0.90779840  1
  O  O236  1  0.50220836  0.86985869  0.16306582  1
  O  O237  1  0.49907610  0.87593108  0.42255376  1
  O  O238  1  0.48906686  0.87860868  0.66753251  1
  O  O239  1  0.49308261  0.87595206  0.91116213  1
  O  O240  1  0.74638132  0.12936178  0.15473244  1
  O  O241  1  0.74864214  0.13108632  0.40703969  1
  O  O242  1  0.74856248  0.12942579  0.67020431  1
  O  O243  1  0.73880109  0.13189940  0.90957098  1
  O  O244  1  0.74344334  0.37814328  0.15672047  1
  O  O245  1  0.75299617  0.37131385  0.41664682  1
  O  O246  1  0.75997335  0.37173322  0.67010492  1
  O  O247  1  0.73966538  0.37816966  0.91028106  1
  O  O248  1  0.73873618  0.62126826  0.15927658  1
  O  O249  1  0.74474129  0.62244885  0.41562556  1
  O  O250  1  0.75921249  0.61822976  0.66360487  1
  O  O251  1  0.73754929  0.62146124  0.90866841  1
  O  O252  1  0.74736925  0.87206803  0.15275971  1
  O  O253  1  0.74791592  0.87642839  0.41928347  1
  O  O254  1  0.75255222  0.87787050  0.67136459  1
  O  O255  1  0.74423929  0.87613347  0.90388571  1
  O  O256  1  0.13027214  0.12121814  0.02092561  1
  O  O257  1  0.12468553  0.12858014  0.29207399  1
  O  O258  1  0.12445215  0.12679595  0.55760351  1
  O  O259  1  0.13348953  0.12652725  0.79489999  1
  O  O260  1  0.12865577  0.39078521  0.02095717  1
  O  O261  1  0.12349771  0.37462106  0.29519550  1
  O  O262  1  0.12195635  0.37328516  0.56304689  1
  O  O263  1  0.13115247  0.37104801  0.78994627  1
  O  O264  1  0.12772749  0.62504540  0.02746363  1
  O  O265  1  0.12730841  0.62350077  0.29802489  1
  O  O266  1  0.12132661  0.62148942  0.55276828  1
  O  O267  1  0.12878308  0.63034866  0.79951798  1
  O  O268  1  0.13477527  0.87064744  0.02588423  1
  O  O269  1  0.13028694  0.86961154  0.28320397  1
  O  O270  1  0.12310985  0.87844264  0.54112468  1
  O  O271  1  0.13245479  0.87184865  0.80342902  1
  O  O272  1  0.37698637  0.13369021  0.02174795  1
  O  O273  1  0.37694750  0.12489448  0.29674170  1
  O  O274  1  0.37456293  0.12357933  0.55157824  1
  O  O275  1  0.37985211  0.12516713  0.80968708  1
  O  O276  1  0.37973335  0.38795904  0.03264465  1
  O  O277  1  0.37878507  0.37924372  0.28662526  1
  O  O278  1  0.36863638  0.36856881  0.55210405  1
  O  O279  1  0.37862117  0.37429951  0.79880322  1
  O  O280  1  0.38296547  0.62301232  0.04432399  1
  O  O281  1  0.37561611  0.62519659  0.30361553  1
  O  O282  1  0.36666795  0.62225628  0.55403785  1
  O  O283  1  0.37013046  0.62370777  0.77977557  1
  O  O284  1  0.38815289  0.86855381  0.02999124  1
  O  O285  1  0.38001800  0.86903768  0.28734577  1
  O  O286  1  0.37070238  0.87966534  0.55052092  1
  O  O287  1  0.37214527  0.87486526  0.80137199  1
  O  O288  1  0.62307630  0.13442100  0.01929647  1
  O  O289  1  0.62769037  0.12552754  0.29578640  1
  O  O290  1  0.62837196  0.12700861  0.55530328  1
  O  O291  1  0.61427216  0.13404547  0.80741485  1
  O  O292  1  0.62233324  0.38522000  0.04397577  1
  O  O293  1  0.62201105  0.37340047  0.28845440  1
  O  O294  1  0.63066261  0.36740896  0.54121916  1
  O  O295  1  0.62190066  0.37384504  0.79565556  1
  O  O296  1  0.61835556  0.62354052  0.04420177  1
  O  O297  1  0.62482914  0.62515278  0.30461950  1
  O  O298  1  0.62360846  0.61812561  0.53622105  1
  O  O299  1  0.62257471  0.62002533  0.79066587  1
  O  O300  1  0.61214502  0.86937214  0.02426644  1
  O  O301  1  0.61983624  0.87523022  0.28780674  1
  O  O302  1  0.62435458  0.88753824  0.54736404  1
  O  O303  1  0.61465976  0.87473298  0.78105648  1
  O  O304  1  0.86923711  0.12603308  0.01941173  1
  O  O305  1  0.87955068  0.12772325  0.29417664  1
  O  O306  1  0.87728775  0.13160709  0.56066965  1
  O  O307  1  0.86969044  0.12911206  0.79179482  1
  O  O308  1  0.86509654  0.37907503  0.01956606  1
  O  O309  1  0.87661237  0.37309069  0.29634547  1
  O  O310  1  0.88032348  0.37065296  0.55758884  1
  O  O311  1  0.87170353  0.37754182  0.80494200  1
  O  O312  1  0.86584210  0.62693066  0.02231703  1
  O  O313  1  0.86851687  0.62266117  0.28488914  1
  O  O314  1  0.88146999  0.61813613  0.55338808  1
  O  O315  1  0.87461535  0.61527469  0.79011482  1
  O  O316  1  0.86995768  0.87471394  0.01983061  1
  O  O317  1  0.87013426  0.87257748  0.28370712  1
  O  O318  1  0.87777264  0.88158429  0.54384383  1
  O  O319  1  0.87794057  0.87763683  0.78534717  1
