# generated using pymatgen
data_VFe(PbO3)2
_symmetry_space_group_name_H-M   'P 1'
_cell_length_a   15.38172442
_cell_length_b   15.38580398
_cell_length_c   18.56469671
_cell_angle_alpha   90.00667357
_cell_angle_beta   89.98437093
_cell_angle_gamma   90.00521007
_symmetry_Int_Tables_number   1
_chemical_formula_structural   VFe(PbO3)2
_chemical_formula_sum   'V32 Fe32 Pb64 O192'
_cell_volume   4393.52456394
_cell_formula_units_Z   32
loop_
 _symmetry_equiv_pos_site_id
 _symmetry_equiv_pos_as_xyz
  1  'x, y, z'
loop_
 _atom_site_type_symbol
 _atom_site_label
 _atom_site_symmetry_multiplicity
 _atom_site_fract_x
 _atom_site_fract_y
 _atom_site_fract_z
 _atom_site_occupancy
  V  V0  1  0.87545183  0.38105413  0.13715220  1
  V  V1  1  0.37406634  0.62539213  0.64084586  1
  V  V2  1  0.87902727  0.87593915  0.39740755  1
  V  V3  1  0.37582714  0.37452163  0.64300553  1
  V  V4  1  0.87609666  0.12809535  0.13895360  1
  V  V5  1  0.87683455  0.87568205  0.14005160  1
  V  V6  1  0.87566372  0.12252766  0.64074077  1
  V  V7  1  0.12507902  0.37499808  0.63922671  1
  V  V8  1  0.62425142  0.37570395  0.88774258  1
  V  V9  1  0.87039389  0.87621845  0.88563336  1
  V  V10  1  0.62649878  0.87453699  0.38706837  1
  V  V11  1  0.61710917  0.87461126  0.89060798  1
  V  V12  1  0.12610595  0.36669259  0.88611582  1
  V  V13  1  0.37581132  0.87676668  0.63958043  1
  V  V14  1  0.12692606  0.62315627  0.88820611  1
  V  V15  1  0.12147663  0.87218228  0.88848719  1
  V  V16  1  0.62099138  0.87460512  0.64199444  1
  V  V17  1  0.36910945  0.87584736  0.89590125  1
  V  V18  1  0.12258682  0.62217610  0.39189371  1
  V  V19  1  0.37539338  0.12649408  0.89595512  1
  V  V20  1  0.12272172  0.87483042  0.63772318  1
  V  V21  1  0.62623239  0.12540724  0.38613256  1
  V  V22  1  0.12751123  0.87362412  0.13942502  1
  V  V23  1  0.37572999  0.12454589  0.64154356  1
  V  V24  1  0.62224345  0.62359122  0.64377650  1
  V  V25  1  0.12801268  0.87225711  0.38770558  1
  V  V26  1  0.62257982  0.12596564  0.64383517  1
  V  V27  1  0.62490323  0.37514105  0.38724643  1
  V  V28  1  0.63043222  0.87545909  0.13710826  1
  V  V29  1  0.12580385  0.37470859  0.13852809  1
  V  V30  1  0.62993254  0.62550389  0.13763191  1
  V  V31  1  0.37142016  0.37493581  0.38478620  1
  Fe  Fe32  1  0.12713973  0.11885379  0.88216690  1
  Fe  Fe33  1  0.62591621  0.62448156  0.38412485  1
  Fe  Fe34  1  0.87671549  0.62766636  0.13378819  1
  Fe  Fe35  1  0.87119333  0.12453568  0.38544119  1
  Fe  Fe36  1  0.37633855  0.62762151  0.89302741  1
  Fe  Fe37  1  0.37685883  0.87387177  0.13711975  1
  Fe  Fe38  1  0.13036860  0.62303526  0.63528559  1
  Fe  Fe39  1  0.87841894  0.12467952  0.88327358  1
  Fe  Fe40  1  0.87148229  0.62487900  0.39471137  1
  Fe  Fe41  1  0.37512601  0.12497257  0.13692621  1
  Fe  Fe42  1  0.37598944  0.62409732  0.38211795  1
  Fe  Fe43  1  0.37792448  0.12588636  0.37990281  1
  Fe  Fe44  1  0.37114548  0.37399085  0.89951600  1
  Fe  Fe45  1  0.63057206  0.37560415  0.12875951  1
  Fe  Fe46  1  0.87643682  0.62652804  0.88274217  1
  Fe  Fe47  1  0.62434580  0.62797434  0.88369224  1
  Fe  Fe48  1  0.86894311  0.87794490  0.63434669  1
  Fe  Fe49  1  0.87846570  0.37499412  0.87742211  1
  Fe  Fe50  1  0.11958114  0.62576620  0.13454911  1
  Fe  Fe51  1  0.87630898  0.62800680  0.63514409  1
  Fe  Fe52  1  0.37683078  0.87419955  0.37892350  1
  Fe  Fe53  1  0.62013961  0.37448275  0.63930079  1
  Fe  Fe54  1  0.87145474  0.37409828  0.64349682  1
  Fe  Fe55  1  0.62438491  0.12188234  0.89650330  1
  Fe  Fe56  1  0.62920851  0.12540301  0.12641902  1
  Fe  Fe57  1  0.12147554  0.12370806  0.14380025  1
  Fe  Fe58  1  0.12404447  0.37544341  0.38089452  1
  Fe  Fe59  1  0.12887576  0.12631905  0.64042871  1
  Fe  Fe60  1  0.37274362  0.62505043  0.13268376  1
  Fe  Fe61  1  0.37686540  0.37563983  0.12447479  1
  Fe  Fe62  1  0.12379048  0.12414845  0.38036505  1
  Fe  Fe63  1  0.87508499  0.37360662  0.38481410  1
  Pb  Pb64  1  0.00866204  0.00468426  0.00010969  1
  Pb  Pb65  1  -0.00117442  0.00753968  0.25511272  1
  Pb  Pb66  1  0.00462530  0.00725028  0.50008863  1
  Pb  Pb67  1  0.00013407  0.00896145  0.75153853  1
  Pb  Pb68  1  0.00030161  0.24496216  -0.00640842  1
  Pb  Pb69  1  -0.00073180  0.25973965  0.25684834  1
  Pb  Pb70  1  -0.00100902  0.25039731  0.49324509  1
  Pb  Pb71  1  -0.00606098  0.24784783  0.75038327  1
  Pb  Pb72  1  -0.00080200  0.50907547  -0.00394657  1
  Pb  Pb73  1  -0.00321096  0.49389663  0.25251573  1
  Pb  Pb74  1  -0.01402406  0.48941133  0.50378091  1
  Pb  Pb75  1  -0.00646097  0.50449415  0.74555703  1
  Pb  Pb76  1  0.00182776  0.74333889  0.00220716  1
  Pb  Pb77  1  -0.00675111  0.74149473  0.25185421  1
  Pb  Pb78  1  -0.00250976  0.74203936  0.50743774  1
  Pb  Pb79  1  -0.00694361  0.74505934  0.74535745  1
  Pb  Pb80  1  0.25089140  0.00299425  0.00853731  1
  Pb  Pb81  1  0.25446809  0.00920872  0.25030565  1
  Pb  Pb82  1  0.24933859  0.00649019  0.49439095  1
  Pb  Pb83  1  0.24635956  0.00239971  0.75195702  1
  Pb  Pb84  1  0.24878904  0.23238767  0.00975259  1
  Pb  Pb85  1  0.25028980  0.24555350  0.24435152  1
  Pb  Pb86  1  0.24090981  0.24186876  0.49372387  1
  Pb  Pb87  1  0.25410917  0.25559467  0.75566019  1
  Pb  Pb88  1  0.25538329  0.50222323  0.00197765  1
  Pb  Pb89  1  0.25257745  0.50408105  0.24180888  1
  Pb  Pb90  1  0.24530032  0.50389033  0.49829551  1
  Pb  Pb91  1  0.26010833  0.49500163  0.75725034  1
  Pb  Pb92  1  0.25095246  0.74658737  0.00509656  1
  Pb  Pb93  1  0.26162278  0.74539998  0.24839659  1
  Pb  Pb94  1  0.24785850  0.74698965  0.49871572  1
  Pb  Pb95  1  0.25590554  0.74737948  0.75075321  1
  Pb  Pb96  1  0.48783319  0.00102825  0.01079178  1
  Pb  Pb97  1  0.49265382  0.00282978  0.24424811  1
  Pb  Pb98  1  0.49756540  0.00097903  0.49224279  1
  Pb  Pb99  1  0.50381253  0.00537617  0.75736664  1
  Pb  Pb100  1  0.50841726  0.25644739  0.00466872  1
  Pb  Pb101  1  0.50185124  0.24902146  0.23312125  1
  Pb  Pb102  1  0.50447564  0.25655192  0.49844223  1
  Pb  Pb103  1  0.49933835  0.25302093  0.75796461  1
  Pb  Pb104  1  0.49614220  0.50149027  -0.00277685  1
  Pb  Pb105  1  0.49899426  0.50101481  0.23846008  1
  Pb  Pb106  1  0.50306484  0.49673997  0.49697573  1
  Pb  Pb107  1  0.49427649  0.50830593  0.75904125  1
  Pb  Pb108  1  0.49115811  0.74789941  0.00580757  1
  Pb  Pb109  1  0.49620514  0.74752437  0.24788563  1
  Pb  Pb110  1  0.49606292  0.74726121  0.49221162  1
  Pb  Pb111  1  0.49710912  0.74306943  0.75641763  1
  Pb  Pb112  1  0.74911583  0.00537196  -0.00207073  1
  Pb  Pb113  1  0.75426537  0.00498094  0.24932397  1
  Pb  Pb114  1  0.75065687  -0.00403881  0.50273942  1
  Pb  Pb115  1  0.74492467  0.01090548  0.75529041  1
  Pb  Pb116  1  0.74773527  0.25101021  -0.00613744  1
  Pb  Pb117  1  0.75576739  0.25127131  0.24652718  1
  Pb  Pb118  1  0.75429862  0.25894397  0.50167792  1
  Pb  Pb119  1  0.75144827  0.25060783  0.75292567  1
  Pb  Pb120  1  0.75289832  0.49836260  -0.01071008  1
  Pb  Pb121  1  0.75251534  0.51168634  0.25463510  1
  Pb  Pb122  1  0.75433550  0.49832957  0.50226138  1
  Pb  Pb123  1  0.75470986  0.49986127  0.74747183  1
  Pb  Pb124  1  0.75671509  0.74188634  -0.00231251  1
  Pb  Pb125  1  0.75072601  0.74140523  0.25519387  1
  Pb  Pb126  1  0.75363670  0.74736739  0.50473383  1
  Pb  Pb127  1  0.74931709  0.74501891  0.74930729  1
  O  O128  1  0.11904934  -0.01125851  0.16672600  1
  O  O129  1  0.12300074  -0.00952843  0.41224066  1
  O  O130  1  0.13109496  -0.00730891  0.66468125  1
  O  O131  1  0.12669015  -0.00942539  0.91404108  1
  O  O132  1  0.11858930  0.25625848  0.16249059  1
  O  O133  1  0.12594054  0.24988327  0.41017227  1
  O  O134  1  0.13090047  0.25620731  0.66419055  1
  O  O135  1  0.12588864  0.25073496  0.90308842  1
  O  O136  1  0.11661194  0.49300953  0.16118353  1
  O  O137  1  0.12667671  0.50597039  0.41143187  1
  O  O138  1  0.13208947  0.49236814  0.66447108  1
  O  O139  1  0.12463731  0.50808474  0.90707924  1
  O  O140  1  0.11548512  0.75923356  0.16585675  1
  O  O141  1  0.12317288  0.75400314  0.41684074  1
  O  O142  1  0.13271797  0.75928630  0.66346042  1
  O  O143  1  0.12623091  0.75407680  0.91429983  1
  O  O144  1  0.37678364  -0.00258840  0.16246686  1
  O  O145  1  0.37798578  -0.00108021  0.41085489  1
  O  O146  1  0.37735928  0.00464983  0.66534723  1
  O  O147  1  0.37411299  -0.00091281  0.92047523  1
  O  O148  1  0.37370587  0.25301521  0.15700526  1
  O  O149  1  0.37645420  0.25766999  0.41006260  1
  O  O150  1  0.37563533  0.24564902  0.66822994  1
  O  O151  1  0.37038649  0.24180014  0.91542334  1
  O  O152  1  0.37348587  0.49969033  0.15831737  1
  O  O153  1  0.37591646  0.49349369  0.41318579  1
  O  O154  1  0.37543015  0.50027261  0.66817556  1
  O  O155  1  0.37160213  0.50205641  0.91554238  1
  O  O156  1  0.37848306  0.74892174  0.16266852  1
  O  O157  1  0.37584588  0.75065445  0.41270465  1
  O  O158  1  0.37605825  0.75109018  0.66549541  1
  O  O159  1  0.37439042  0.75621828  0.91852496  1
  O  O160  1  0.63283174  -0.00722969  0.15569424  1
  O  O161  1  0.62450928  -0.00182372  0.41318025  1
  O  O162  1  0.61971344  0.00193262  0.67016475  1
  O  O163  1  0.62578963  -0.01117791  0.91992841  1
  O  O164  1  0.63133451  0.24966618  0.15901283  1
  O  O165  1  0.62224065  0.25341118  0.41217452  1
  O  O166  1  0.62048997  0.24455018  0.67060175  1
  O  O167  1  0.62529153  0.25407528  0.91161173  1
  O  O168  1  0.63279239  0.50682680  0.15802205  1
  O  O169  1  0.62202596  0.49180990  0.41195392  1
  O  O170  1  0.61918739  0.50672654  0.66556863  1
  O  O171  1  0.62523385  0.49528775  0.90873036  1
  O  O172  1  0.63143496  0.74908966  0.16355591  1
  O  O173  1  0.62576655  0.75790841  0.41020198  1
  O  O174  1  0.61876159  0.74873972  0.66627023  1
  O  O175  1  0.62865694  0.76046668  0.91493930  1
  O  O176  1  0.87115770  -0.00256760  0.16434501  1
  O  O177  1  0.87058444  -0.00515241  0.41909431  1
  O  O178  1  0.87226017  0.00449226  0.66454986  1
  O  O179  1  0.88159713  -0.00969868  0.91355187  1
  O  O180  1  0.87580634  0.24506448  0.15855691  1
  O  O181  1  0.87153816  0.24909997  0.41654369  1
  O  O182  1  0.87453020  0.24121194  0.66417597  1
  O  O183  1  0.88116108  0.25204138  0.91014741  1
  O  O184  1  0.87658749  0.49622767  0.15594236  1
  O  O185  1  0.87240570  0.49827240  0.41772562  1
  O  O186  1  0.87450220  0.50260151  0.66314281  1
  O  O187  1  0.87974661  0.49966037  0.90703307  1
  O  O188  1  0.87349882  0.75754894  0.16386066  1
  O  O189  1  0.87179330  0.75793139  0.41912465  1
  O  O190  1  0.87273209  0.75413560  0.66359131  1
  O  O191  1  0.87855250  0.75995963  0.91140574  1
  O  O192  1  -0.00846340  0.11829245  0.16413475  1
  O  O193  1  -0.00149693  0.11995064  0.41305649  1
  O  O194  1  -0.00329772  0.12223287  0.65923686  1
  O  O195  1  0.00395766  0.12083260  0.91488679  1
  O  O196  1  -0.00668959  0.37183670  0.16480663  1
  O  O197  1  0.00127503  0.37570734  0.41604924  1
  O  O198  1  0.00901820  0.37384874  0.65879411  1
  O  O199  1  0.01171702  0.37826708  0.91253237  1
  O  O200  1  -0.00243406  0.62662025  0.16953093  1
  O  O201  1  0.00604088  0.63005378  0.41570218  1
  O  O202  1  0.00555280  0.62793243  0.66071702  1
  O  O203  1  0.00662807  0.63227718  0.91040054  1
  O  O204  1  -0.00908275  0.87734661  0.16699497  1
  O  O205  1  -0.00178550  0.87491054  0.41532022  1
  O  O206  1  0.00692404  0.87639858  0.65531052  1
  O  O207  1  0.00495357  0.87368137  0.90999158  1
  O  O208  1  0.24712705  0.12368192  0.16495133  1
  O  O209  1  0.25134977  0.12270458  0.41038589  1
  O  O210  1  0.25913604  0.12374415  0.66642101  1
  O  O211  1  0.25241816  0.11949927  0.91670134  1
  O  O212  1  0.24281002  0.37571014  0.15463207  1
  O  O213  1  0.25499047  0.37699375  0.40752979  1
  O  O214  1  0.25296339  0.37342847  0.67126029  1
  O  O215  1  0.23615208  0.37887224  0.91890037  1
  O  O216  1  0.24439909  0.62659378  0.16096064  1
  O  O217  1  0.24491132  0.62802398  0.41394090  1
  O  O218  1  0.25480931  0.62617756  0.66859564  1
  O  O219  1  0.24294091  0.63185146  0.91424979  1
  O  O220  1  0.24306873  0.87174235  0.15377048  1
  O  O221  1  0.24404289  0.87324200  0.40738415  1
  O  O222  1  0.25549833  0.87704132  0.66727618  1
  O  O223  1  0.24643460  0.87386442  0.91624907  1
  O  O224  1  0.50487735  0.12254142  0.15389955  1
  O  O225  1  0.50517798  0.12639994  0.41369230  1
  O  O226  1  0.49454947  0.12541202  0.67072135  1
  O  O227  1  0.49232387  0.12162982  0.91820159  1
  O  O228  1  0.50380565  0.37842705  0.15472234  1
  O  O229  1  0.49915397  0.37429387  0.41225794  1
  O  O230  1  0.49422480  0.37313514  0.67233564  1
  O  O231  1  0.50510096  0.37288097  0.91235930  1
  O  O232  1  0.51019237  0.62576069  0.15584453  1
  O  O233  1  0.50155420  0.62413125  0.41436771  1
  O  O234  1  0.49789007  0.62614246  0.66985749  1
  O  O235  1  0.50320756  0.62890807  0.91799569  1
  O  O236  1  0.51393462  0.87211074  0.15959686  1
  O  O237  1  0.50741630  0.87616055  0.41177137  1
  O  O238  1  0.49772751  0.87678447  0.67083590  1
  O  O239  1  0.50139593  0.87534128  0.91403269  1
  O  O240  1  0.75701935  0.12221120  0.16141894  1
  O  O241  1  0.74262503  0.12482770  0.41776515  1
  O  O242  1  0.74940539  0.12368494  0.66631743  1
  O  O243  1  0.75412540  0.11947276  0.91183385  1
  O  O244  1  0.76020418  0.37189075  0.16060780  1
  O  O245  1  0.74174490  0.37362641  0.41102493  1
  O  O246  1  0.74468457  0.37345172  0.66879532  1
  O  O247  1  0.74711674  0.37506919  0.90467392  1
  O  O248  1  0.75068790  0.62729329  0.16515545  1
  O  O249  1  0.74532682  0.62551016  0.42212660  1
  O  O250  1  0.74098762  0.62794836  0.66051307  1
  O  O251  1  0.75039049  0.62891501  0.91113550  1
  O  O252  1  0.75218716  0.87356162  0.16629924  1
  O  O253  1  0.74493440  0.87731866  0.41623924  1
  O  O254  1  0.73997927  0.87695287  0.66660464  1
  O  O255  1  0.75459745  0.87718426  0.90720640  1
  O  O256  1  0.12682613  0.12118944  0.04226976  1
  O  O257  1  0.12414267  0.11820711  0.27965048  1
  O  O258  1  0.13365787  0.12067427  0.54071401  1
  O  O259  1  0.12578097  0.11370682  0.78163406  1
  O  O260  1  0.11893547  0.37399736  0.04796018  1
  O  O261  1  0.11459496  0.37664819  0.28171889  1
  O  O262  1  0.13296966  0.37616669  0.54833428  1
  O  O263  1  0.12970278  0.37436259  0.79506256  1
  O  O264  1  0.11570557  0.62950669  0.03467830  1
  O  O265  1  0.12284207  0.62735743  0.30122957  1
  O  O266  1  0.13620300  0.62866225  0.53584024  1
  O  O267  1  0.12852644  0.62821653  0.79714058  1
  O  O268  1  0.11703294  0.87423905  0.04829562  1
  O  O269  1  0.12296403  0.86996752  0.29770723  1
  O  O270  1  0.12984264  0.87503981  0.54673591  1
  O  O271  1  0.12452978  0.87255151  0.79774985  1
  O  O272  1  0.36385019  0.11883450  0.03534048  1
  O  O273  1  0.37605629  0.12226972  0.27995777  1
  O  O274  1  0.37760608  0.12649985  0.55097575  1
  O  O275  1  0.37551008  0.12196550  0.80462888  1
  O  O276  1  0.37403396  0.37734941  0.02333840  1
  O  O277  1  0.37571440  0.37712449  0.29434518  1
  O  O278  1  0.37393261  0.37462857  0.55252499  1
  O  O279  1  0.36385370  0.37160398  0.79774494  1
  O  O280  1  0.37240888  0.63094861  0.03123525  1
  O  O281  1  0.37216459  0.62600476  0.28224757  1
  O  O282  1  0.37488231  0.62381491  0.54993229  1
  O  O283  1  0.37934198  0.62868769  0.79158258  1
  O  O284  1  0.38116127  0.87596058  0.03580703  1
  O  O285  1  0.38186029  0.86956856  0.27905630  1
  O  O286  1  0.37638014  0.87705179  0.54900363  1
  O  O287  1  0.37203602  0.87780970  0.80497926  1
  O  O288  1  0.63310210  0.12680479  0.02536758  1
  O  O289  1  0.62825186  0.12447077  0.29529082  1
  O  O290  1  0.62110177  0.12546801  0.55338030  1
  O  O291  1  0.62038197  0.11475593  0.79539395  1
  O  O292  1  0.63212873  0.37113121  0.02932730  1
  O  O293  1  0.62466106  0.37529571  0.29683511  1
  O  O294  1  0.61553902  0.37184698  0.53998904  1
  O  O295  1  0.62058889  0.37224703  0.79659639  1
  O  O296  1  0.63559481  0.62995339  0.04686516  1
  O  O297  1  0.63652516  0.62255969  0.28449140  1
  O  O298  1  0.61665084  0.62494511  0.55312451  1
  O  O299  1  0.61797722  0.63000757  0.78413115  1
  O  O300  1  0.63302614  0.86962436  0.04675551  1
  O  O301  1  0.62720091  0.87741840  0.29669198  1
  O  O302  1  0.61909629  0.87576597  0.55138496  1
  O  O303  1  0.61844406  0.87763455  0.79947823  1
  O  O304  1  0.87812682  0.12439114  0.04783380  1
  O  O305  1  0.86899489  0.12026497  0.28585362  1
  O  O306  1  0.87111519  0.12177798  0.54995188  1
  O  O307  1  0.88245640  0.12168990  0.78309903  1
  O  O308  1  0.87907165  0.37520316  0.04639257  1
  O  O309  1  0.87957932  0.37124529  0.28442259  1
  O  O310  1  0.87151351  0.37448707  0.54215180  1
  O  O311  1  0.88134199  0.37107476  0.77632775  1
  O  O312  1  0.88071115  0.63204949  0.03365401  1
  O  O313  1  0.86622125  0.62790008  0.29337916  1
  O  O314  1  0.87531757  0.63086756  0.53367595  1
  O  O315  1  0.87836035  0.63178103  0.78225935  1
  O  O316  1  0.87737977  0.87708374  0.04947121  1
  O  O317  1  0.87411593  0.87626380  0.30674577  1
  O  O318  1  0.86569967  0.87859873  0.53510458  1
  O  O319  1  0.87417173  0.87683599  0.79457577  1
