# generated using pymatgen
data_VFe(PbO3)2
_symmetry_space_group_name_H-M   'P 1'
_cell_length_a   15.38538631
_cell_length_b   15.39790869
_cell_length_c   18.47517279
_cell_angle_alpha   89.97008318
_cell_angle_beta   89.99699655
_cell_angle_gamma   90.01023177
_symmetry_Int_Tables_number   1
_chemical_formula_structural   VFe(PbO3)2
_chemical_formula_sum   'V32 Fe32 Pb64 O192'
_cell_volume   4376.81900270
_cell_formula_units_Z   32
loop_
 _symmetry_equiv_pos_site_id
 _symmetry_equiv_pos_as_xyz
  1  'x, y, z'
loop_
 _atom_site_type_symbol
 _atom_site_label
 _atom_site_symmetry_multiplicity
 _atom_site_fract_x
 _atom_site_fract_y
 _atom_site_fract_z
 _atom_site_occupancy
  V  V0  1  0.62288515  0.12469605  0.90538131  1
  V  V1  1  0.37480589  0.12475858  0.13077448  1
  V  V2  1  0.87269111  0.62633714  0.88509273  1
  V  V3  1  0.87752300  0.87634784  0.38804014  1
  V  V4  1  0.12351246  0.37833124  0.89343974  1
  V  V5  1  0.87490963  0.12289654  0.64714391  1
  V  V6  1  0.62658968  0.37267003  0.38879847  1
  V  V7  1  0.62517206  0.62525835  0.14595354  1
  V  V8  1  0.37459176  0.12310088  0.64342828  1
  V  V9  1  0.37755520  0.87429498  0.64128287  1
  V  V10  1  0.12534638  0.37300441  0.38741492  1
  V  V11  1  0.62531782  0.37281716  0.63847454  1
  V  V12  1  0.12460209  0.37082152  0.63861190  1
  V  V13  1  0.62270906  0.37749604  0.89077985  1
  V  V14  1  0.62396432  0.86976855  0.89356721  1
  V  V15  1  0.87454616  0.87322890  0.13545067  1
  V  V16  1  0.87466635  0.87574020  0.64501980  1
  V  V17  1  0.87300999  0.37566648  0.89074175  1
  V  V18  1  0.37511423  0.12171053  0.89569168  1
  V  V19  1  0.62429829  0.12272674  0.64368672  1
  V  V20  1  0.37652650  0.62419335  0.88837815  1
  V  V21  1  0.62768542  0.37860532  0.13817143  1
  V  V22  1  0.87407171  0.11805561  0.90069219  1
  V  V23  1  0.37182143  0.12601528  0.38456314  1
  V  V24  1  0.37509316  0.37419135  0.89278177  1
  V  V25  1  0.62460345  0.88042599  0.63786206  1
  V  V26  1  0.12774724  0.62531778  0.14078888  1
  V  V27  1  0.62557429  0.12839613  0.38415292  1
  V  V28  1  0.87593850  0.62653443  0.14137439  1
  V  V29  1  0.87681477  0.37314286  0.39313128  1
  V  V30  1  0.12235353  0.12815478  0.38692297  1
  V  V31  1  0.87604629  0.12429351  0.38511580  1
  Fe  Fe32  1  0.37559999  0.62281478  0.63100530  1
  Fe  Fe33  1  0.12292839  0.62492854  0.38546983  1
  Fe  Fe34  1  0.12262512  0.37974239  0.13122134  1
  Fe  Fe35  1  0.37495060  0.37135119  0.38708039  1
  Fe  Fe36  1  0.12589817  0.62648988  0.63534885  1
  Fe  Fe37  1  0.37477310  0.37697119  0.13580817  1
  Fe  Fe38  1  0.12604894  0.62246071  0.88135966  1
  Fe  Fe39  1  0.12179650  0.87188957  0.13828807  1
  Fe  Fe40  1  0.12492792  0.87082227  0.88528134  1
  Fe  Fe41  1  0.62464390  0.62988448  0.63230450  1
  Fe  Fe42  1  0.12603089  0.12302363  0.64153399  1
  Fe  Fe43  1  0.12650559  0.12668220  0.89887332  1
  Fe  Fe44  1  0.37427228  0.62405183  0.37787336  1
  Fe  Fe45  1  0.62303562  0.62187257  0.88450668  1
  Fe  Fe46  1  0.37617598  0.62439526  0.14740789  1
  Fe  Fe47  1  0.62792654  0.87237208  0.14476308  1
  Fe  Fe48  1  0.87442950  0.38149634  0.13118548  1
  Fe  Fe49  1  0.37708079  0.87331758  0.89046906  1
  Fe  Fe50  1  0.37479212  0.87390224  0.13725678  1
  Fe  Fe51  1  0.12627260  0.87984229  0.64092166  1
  Fe  Fe52  1  0.87652944  0.62648828  0.39620081  1
  Fe  Fe53  1  0.87188916  0.87175875  0.88360417  1
  Fe  Fe54  1  0.12471324  0.12569955  0.12351879  1
  Fe  Fe55  1  0.62785083  0.62499775  0.38580996  1
  Fe  Fe56  1  0.87430289  0.12470341  0.12317951  1
  Fe  Fe57  1  0.37457947  0.36950787  0.63277171  1
  Fe  Fe58  1  0.62774130  0.87986900  0.37716812  1
  Fe  Fe59  1  0.62362604  0.12782737  0.12732500  1
  Fe  Fe60  1  0.87558825  0.36894816  0.63819453  1
  Fe  Fe61  1  0.12387670  0.88031220  0.38123155  1
  Fe  Fe62  1  0.37340436  0.87951156  0.37753935  1
  Fe  Fe63  1  0.87388772  0.62319528  0.62972389  1
  Pb  Pb64  1  0.01022085  -0.00864675  -0.00060609  1
  Pb  Pb65  1  0.00596415  -0.00014408  0.24016449  1
  Pb  Pb66  1  0.01046660  0.00268385  0.50516199  1
  Pb  Pb67  1  0.01146551  -0.00305826  0.76076722  1
  Pb  Pb68  1  -0.00276824  0.24642337  0.00471392  1
  Pb  Pb69  1  -0.00091840  0.24984180  0.23217295  1
  Pb  Pb70  1  -0.00368131  0.25094760  0.50320776  1
  Pb  Pb71  1  0.00656865  0.24298245  0.75971302  1
  Pb  Pb72  1  -0.00110002  0.49489453  0.00048702  1
  Pb  Pb73  1  -0.00016175  0.50631645  0.25355263  1
  Pb  Pb74  1  0.00243783  0.50956720  0.50565292  1
  Pb  Pb75  1  -0.00107310  0.50419234  0.74320779  1
  Pb  Pb76  1  0.00678817  0.75213153  -0.00499959  1
  Pb  Pb77  1  0.00233551  0.74022478  0.25733765  1
  Pb  Pb78  1  0.01505054  0.74720319  0.50059021  1
  Pb  Pb79  1  0.01001865  0.74652840  0.74817616  1
  Pb  Pb80  1  0.24261931  -0.01461964  0.00226145  1
  Pb  Pb81  1  0.24443880  -0.00846050  0.24300089  1
  Pb  Pb82  1  0.23883675  -0.00378854  0.50228519  1
  Pb  Pb83  1  0.24843597  -0.00891253  0.75981112  1
  Pb  Pb84  1  0.24455746  0.25600197  0.00469041  1
  Pb  Pb85  1  0.24800871  0.25536720  0.23934831  1
  Pb  Pb86  1  0.25144853  0.25080978  0.50058990  1
  Pb  Pb87  1  0.24344684  0.24351293  0.75635291  1
  Pb  Pb88  1  0.25158448  0.49598777  0.00430291  1
  Pb  Pb89  1  0.25597518  0.49946307  0.25060041  1
  Pb  Pb90  1  0.25863058  0.51146944  0.49686624  1
  Pb  Pb91  1  0.25140853  0.50280840  0.74211952  1
  Pb  Pb92  1  0.25046686  0.75130377  -0.00081898  1
  Pb  Pb93  1  0.25543055  0.75528157  0.25034251  1
  Pb  Pb94  1  0.25197082  0.75048162  0.48698552  1
  Pb  Pb95  1  0.24337599  0.74839129  0.74859055  1
  Pb  Pb96  1  0.50066808  -0.01656389  0.01183778  1
  Pb  Pb97  1  0.50273327  -0.00477419  0.24284224  1
  Pb  Pb98  1  0.50103807  -0.00203762  0.49064785  1
  Pb  Pb99  1  0.49455231  -0.00597158  0.75937088  1
  Pb  Pb100  1  0.49827995  0.25224137  0.00389917  1
  Pb  Pb101  1  0.49288051  0.25418537  0.24624179  1
  Pb  Pb102  1  0.49689708  0.25302799  0.50042283  1
  Pb  Pb103  1  0.50039257  0.24798743  0.75268350  1
  Pb  Pb104  1  0.48713765  0.50437296  0.00787535  1
  Pb  Pb105  1  0.49321933  0.49993171  0.25551687  1
  Pb  Pb106  1  0.49312162  0.51135447  0.49619315  1
  Pb  Pb107  1  0.49985835  0.50488780  0.74439989  1
  Pb  Pb108  1  0.48582764  0.74339555  0.01191078  1
  Pb  Pb109  1  0.49281253  0.75493072  0.25208179  1
  Pb  Pb110  1  0.49912421  0.74820789  0.48478287  1
  Pb  Pb111  1  0.50347716  0.74429088  0.74790632  1
  Pb  Pb112  1  0.73875269  -0.00492113  0.00859867  1
  Pb  Pb113  1  0.74589177  -0.00026982  0.24143398  1
  Pb  Pb114  1  0.75253180  0.00189501  0.49512350  1
  Pb  Pb115  1  0.75258995  -0.00377429  0.75982003  1
  Pb  Pb116  1  0.75413052  0.24804618  0.00408480  1
  Pb  Pb117  1  0.75456112  0.24717012  0.23798772  1
  Pb  Pb118  1  0.75497070  0.25231201  0.50249312  1
  Pb  Pb119  1  0.75007160  0.24675447  0.75715925  1
  Pb  Pb120  1  0.75298629  0.49748434  -0.00057708  1
  Pb  Pb121  1  0.75187190  0.50814398  0.25776751  1
  Pb  Pb122  1  0.75045946  0.50816859  0.50468894  1
  Pb  Pb123  1  0.74898600  0.50663420  0.74393322  1
  Pb  Pb124  1  0.74199296  0.75339831  0.00308032  1
  Pb  Pb125  1  0.75148172  0.73981165  0.25925354  1
  Pb  Pb126  1  0.74441725  0.74514261  0.49660610  1
  Pb  Pb127  1  0.75144138  0.75163636  0.74717183  1
  O  O128  1  0.12238368  0.00138704  0.15585768  1
  O  O129  1  0.12438063  0.00845082  0.41453207  1
  O  O130  1  0.12512032  0.00206989  0.67491818  1
  O  O131  1  0.12483859  -0.00140339  0.91230328  1
  O  O132  1  0.12480179  0.25045549  0.15449057  1
  O  O133  1  0.12240038  0.24991491  0.41693249  1
  O  O134  1  0.12473295  0.25001405  0.67067364  1
  O  O135  1  0.12548518  0.26086539  0.91681098  1
  O  O136  1  0.11903445  0.50883087  0.16496642  1
  O  O137  1  0.11956415  0.48640334  0.40957406  1
  O  O138  1  0.12489916  0.48948733  0.65940429  1
  O  O139  1  0.12642337  0.49804243  0.91358204  1
  O  O140  1  0.11907405  0.74230579  0.16457686  1
  O  O141  1  0.12181995  0.75406337  0.40876349  1
  O  O142  1  0.12550472  0.75412366  0.66180348  1
  O  O143  1  0.12560911  0.74361351  0.91417332  1
  O  O144  1  0.37686208  0.00859237  0.15331694  1
  O  O145  1  0.37634678  0.01192565  0.40947902  1
  O  O146  1  0.37939065  0.00450975  0.67085452  1
  O  O147  1  0.37881754  0.00650934  0.91609120  1
  O  O148  1  0.37728276  0.24744984  0.15882437  1
  O  O149  1  0.37627001  0.24275496  0.41619150  1
  O  O150  1  0.37774757  0.24206005  0.66820628  1
  O  O151  1  0.37629522  0.25307073  0.91838875  1
  O  O152  1  0.37828579  0.49846369  0.16838598  1
  O  O153  1  0.37527890  0.49565957  0.40800409  1
  O  O154  1  0.37645865  0.49433082  0.66059097  1
  O  O155  1  0.37769797  0.50071387  0.91506803  1
  O  O156  1  0.37598648  0.74947971  0.16678342  1
  O  O157  1  0.37518479  0.75211139  0.40364034  1
  O  O158  1  0.37963854  0.75855503  0.65749750  1
  O  O159  1  0.37854611  0.74207285  0.91200367  1
  O  O160  1  0.62748405  0.00342754  0.15853667  1
  O  O161  1  0.62718194  0.00815131  0.41151818  1
  O  O162  1  0.62446838  0.00171969  0.67320178  1
  O  O163  1  0.62575081  -0.00338229  0.92037837  1
  O  O164  1  0.62693951  0.25860709  0.15694979  1
  O  O165  1  0.62879962  0.24933844  0.41767918  1
  O  O166  1  0.62463554  0.24546899  0.67200877  1
  O  O167  1  0.62451480  0.25838941  0.91903938  1
  O  O168  1  0.62922847  0.50029584  0.16791886  1
  O  O169  1  0.63097832  0.48688339  0.41057762  1
  O  O170  1  0.62449864  0.48953201  0.65557710  1
  O  O171  1  0.62360742  0.49400525  0.91393974  1
  O  O172  1  0.63073819  0.74141092  0.16616742  1
  O  O173  1  0.62900198  0.75480508  0.40656246  1
  O  O174  1  0.62385234  0.75940565  0.66057229  1
  O  O175  1  0.62602258  0.75261070  0.91215308  1
  O  O176  1  0.87333082  -0.00826273  0.14985571  1
  O  O177  1  0.87445311  0.00325354  0.41490488  1
  O  O178  1  0.86981828  0.00531491  0.67367459  1
  O  O179  1  0.87080269  0.00215785  0.91198571  1
  O  O180  1  0.87267321  0.25330717  0.15369852  1
  O  O181  1  0.87540735  0.24708663  0.41794545  1
  O  O182  1  0.87171042  0.24136098  0.67329470  1
  O  O183  1  0.87358642  0.25775808  0.91564746  1
  O  O184  1  0.87372595  0.50878053  0.16516233  1
  O  O185  1  0.87522121  0.48719403  0.41371961  1
  O  O186  1  0.87291554  0.49533704  0.66142266  1
  O  O187  1  0.87209329  0.50105283  0.91286291  1
  O  O188  1  0.87358091  0.74521085  0.16689213  1
  O  O189  1  0.87481907  0.76139494  0.41258475  1
  O  O190  1  0.86940312  0.75834519  0.65757404  1
  O  O191  1  0.86999073  0.74149596  0.90871697  1
  O  O192  1  -0.00238513  0.12505611  0.15264157  1
  O  O193  1  -0.00125866  0.12666748  0.41264940  1
  O  O194  1  -0.00816446  0.12322827  0.66983535  1
  O  O195  1  -0.00802172  0.13045159  0.91357992  1
  O  O196  1  -0.00181249  0.37994921  0.16180134  1
  O  O197  1  -0.00166229  0.36572914  0.41417801  1
  O  O198  1  0.00639231  0.36852806  0.66649105  1
  O  O199  1  0.00233091  0.38017755  0.91135461  1
  O  O200  1  -0.00512039  0.62635086  0.16458472  1
  O  O201  1  0.00033669  0.62232569  0.41914454  1
  O  O202  1  -0.00209422  0.62499283  0.66119451  1
  O  O203  1  -0.00963670  0.62083037  0.90813313  1
  O  O204  1  -0.01034807  0.86998748  0.16185177  1
  O  O205  1  -0.00653794  0.88302275  0.41354394  1
  O  O206  1  -0.00965244  0.88218360  0.66402616  1
  O  O207  1  -0.00380061  0.87183359  0.91123557  1
  O  O208  1  0.25676633  0.12810557  0.15316878  1
  O  O209  1  0.25325086  0.12946208  0.40746899  1
  O  O210  1  0.25856290  0.12365484  0.66756716  1
  O  O211  1  0.25964421  0.13048750  0.91648312  1
  O  O212  1  0.24802125  0.37858697  0.16207191  1
  O  O213  1  0.24157016  0.36663800  0.40977634  1
  O  O214  1  0.24369682  0.36807751  0.66316315  1
  O  O215  1  0.24930992  0.37863993  0.91562717  1
  O  O216  1  0.24314175  0.62386596  0.15935992  1
  O  O217  1  0.24850908  0.62157267  0.40774437  1
  O  O218  1  0.25223007  0.62465296  0.66225393  1
  O  O219  1  0.25884645  0.62160602  0.91048575  1
  O  O220  1  0.24819319  0.87423501  0.15916771  1
  O  O221  1  0.25000970  0.88143771  0.41078234  1
  O  O222  1  0.26074727  0.88240330  0.66245180  1
  O  O223  1  0.25209561  0.87237329  0.91541447  1
  O  O224  1  0.49557944  0.12883398  0.15668517  1
  O  O225  1  0.49993452  0.12866976  0.40973601  1
  O  O226  1  0.49906952  0.12423018  0.67137452  1
  O  O227  1  0.49470157  0.13092268  0.92166236  1
  O  O228  1  0.50987247  0.37857558  0.16321572  1
  O  O229  1  0.50971245  0.36697829  0.41067579  1
  O  O230  1  0.50729214  0.36627345  0.66338495  1
  O  O231  1  0.50332198  0.37507620  0.91503888  1
  O  O232  1  0.51038320  0.62334079  0.16735857  1
  O  O233  1  0.50178169  0.62154884  0.40585246  1
  O  O234  1  0.50039040  0.62541784  0.66341435  1
  O  O235  1  0.49533734  0.62204555  0.91586273  1
  O  O236  1  0.50107951  0.87491016  0.16248028  1
  O  O237  1  0.50058116  0.88232229  0.40689758  1
  O  O238  1  0.49947553  0.88190452  0.66782062  1
  O  O239  1  0.50717467  0.87630304  0.91658383  1
  O  O240  1  0.75005666  0.12689877  0.15541837  1
  O  O241  1  0.75187985  0.12673960  0.41244315  1
  O  O242  1  0.74960709  0.12425546  0.67315802  1
  O  O243  1  0.75141446  0.13045136  0.91865259  1
  O  O244  1  0.74554587  0.37977454  0.16385864  1
  O  O245  1  0.75242016  0.36625330  0.41524634  1
  O  O246  1  0.74189475  0.36685232  0.66686167  1
  O  O247  1  0.74496560  0.37738711  0.91348931  1
  O  O248  1  0.75314417  0.62397038  0.16746824  1
  O  O249  1  0.75121476  0.62229669  0.41780239  1
  O  O250  1  0.74898657  0.62517651  0.66162337  1
  O  O251  1  0.75325473  0.62072311  0.91184876  1
  O  O252  1  0.76040220  0.86978838  0.16575657  1
  O  O253  1  0.75706967  0.88297792  0.41275714  1
  O  O254  1  0.74833599  0.88149072  0.66830800  1
  O  O255  1  0.74454054  0.87437618  0.91827927  1
  O  O256  1  0.12332685  0.12885538  0.02176639  1
  O  O257  1  0.12249737  0.12740693  0.29585835  1
  O  O258  1  0.12602507  0.11751365  0.54153940  1
  O  O259  1  0.12483209  0.13461389  0.79605372  1
  O  O260  1  0.12670674  0.38616636  0.03078459  1
  O  O261  1  0.12275476  0.36943145  0.29630084  1
  O  O262  1  0.12266797  0.36504687  0.54753225  1
  O  O263  1  0.12650025  0.37553059  0.80210747  1
  O  O264  1  0.12163273  0.62525478  0.04906725  1
  O  O265  1  0.11187883  0.62210510  0.28492145  1
  O  O266  1  0.12101491  0.62208999  0.53398778  1
  O  O267  1  0.12519448  0.62803412  0.78090177  1
  O  O268  1  0.11890097  0.87206268  0.03578674  1
  O  O269  1  0.12193313  0.88808668  0.28031183  1
  O  O270  1  0.12367994  0.89129154  0.53964965  1
  O  O271  1  0.12782329  0.87247701  0.78304853  1
  O  O272  1  0.37705593  0.12891785  0.03967333  1
  O  O273  1  0.37508226  0.12928914  0.29367272  1
  O  O274  1  0.37608259  0.12158180  0.55249422  1
  O  O275  1  0.37825861  0.12466915  0.80388332  1
  O  O276  1  0.37625410  0.38355274  0.03451564  1
  O  O277  1  0.37844902  0.36701391  0.28607627  1
  O  O278  1  0.37510060  0.36250497  0.53261552  1
  O  O279  1  0.37499647  0.37385593  0.80158139  1
  O  O280  1  0.38516508  0.62547343  0.04461531  1
  O  O281  1  0.37424332  0.62205242  0.27557023  1
  O  O282  1  0.37593381  0.61937280  0.53024666  1
  O  O283  1  0.37980822  0.62212625  0.79670720  1
  O  O284  1  0.38163603  0.86939317  0.03365038  1
  O  O285  1  0.37113232  0.88041627  0.27650295  1
  O  O286  1  0.38201581  0.88342227  0.55056829  1
  O  O287  1  0.37855006  0.88091581  0.79014485  1
  O  O288  1  0.62571576  0.12902007  0.02583004  1
  O  O289  1  0.62654973  0.13033343  0.29305216  1
  O  O290  1  0.62443667  0.12371975  0.55291450  1
  O  O291  1  0.62130657  0.12523893  0.81339318  1
  O  O292  1  0.62800262  0.38408115  0.04705998  1
  O  O293  1  0.62949873  0.36883683  0.29787647  1
  O  O294  1  0.62761048  0.36436621  0.54743737  1
  O  O295  1  0.62277191  0.37462979  0.79948736  1
  O  O296  1  0.62693637  0.62311351  0.05419007  1
  O  O297  1  0.64076578  0.62015822  0.28504415  1
  O  O298  1  0.62688340  0.62441343  0.53160102  1
  O  O299  1  0.61856410  0.62250010  0.78490785  1
  O  O300  1  0.63304988  0.87238769  0.04227550  1
  O  O301  1  0.62971279  0.88607798  0.27641493  1
  O  O302  1  0.62510804  0.88639858  0.54691662  1
  O  O303  1  0.62539902  0.87482651  0.80217299  1
  O  O304  1  0.87406214  0.13249993  0.02176383  1
  O  O305  1  0.87565820  0.12550704  0.29411304  1
  O  O306  1  0.87274117  0.12206182  0.55603317  1
  O  O307  1  0.86968386  0.12793142  0.80834125  1
  O  O308  1  0.87318920  0.38866333  0.03079398  1
  O  O309  1  0.87560930  0.37020991  0.30211100  1
  O  O310  1  0.87567410  0.35930499  0.53865276  1
  O  O311  1  0.87270962  0.37544510  0.79909674  1
  O  O312  1  0.87470948  0.62798154  0.05032435  1
  O  O313  1  0.87543125  0.62597254  0.29390578  1
  O  O314  1  0.87288518  0.62012047  0.52852178  1
  O  O315  1  0.87062903  0.62342614  0.79322405  1
  O  O316  1  0.87148116  0.86319054  0.04406826  1
  O  O317  1  0.87739303  0.87840323  0.29704847  1
  O  O318  1  0.86937630  0.88758730  0.55483525  1
  O  O319  1  0.86414645  0.87443341  0.78399228  1
