# generated using pymatgen
data_VFe(PbO3)2
_symmetry_space_group_name_H-M   'P 1'
_cell_length_a   15.36722624
_cell_length_b   15.38105009
_cell_length_c   18.53566692
_cell_angle_alpha   89.96871401
_cell_angle_beta   89.99899610
_cell_angle_gamma   89.99056979
_symmetry_Int_Tables_number   1
_chemical_formula_structural   VFe(PbO3)2
_chemical_formula_sum   'V32 Fe32 Pb64 O192'
_cell_volume   4381.16508241
_cell_formula_units_Z   32
loop_
 _symmetry_equiv_pos_site_id
 _symmetry_equiv_pos_as_xyz
  1  'x, y, z'
loop_
 _atom_site_type_symbol
 _atom_site_label
 _atom_site_symmetry_multiplicity
 _atom_site_fract_x
 _atom_site_fract_y
 _atom_site_fract_z
 _atom_site_occupancy
  V  V0  1  0.37457989  0.12378530  0.39133010  1
  V  V1  1  0.37449577  0.38055615  0.38656171  1
  V  V2  1  0.62322106  0.12483407  0.64300430  1
  V  V3  1  0.87457216  0.62650700  0.13702330  1
  V  V4  1  0.62697050  0.37358173  0.63622775  1
  V  V5  1  0.87631942  0.62306985  0.88596970  1
  V  V6  1  0.87263030  0.37367200  0.89603471  1
  V  V7  1  0.87583251  0.63145443  0.38898712  1
  V  V8  1  0.62563817  0.37464518  0.13963120  1
  V  V9  1  0.87466797  0.37659899  0.63883429  1
  V  V10  1  0.12685016  0.87497971  0.39563912  1
  V  V11  1  0.12363267  0.87678373  0.13562035  1
  V  V12  1  0.62443595  0.87676784  0.39349314  1
  V  V13  1  0.62617106  0.87647214  0.13503015  1
  V  V14  1  0.37398755  0.62214568  0.88744251  1
  V  V15  1  0.12359172  0.12341142  0.38856106  1
  V  V16  1  0.87524209  0.12803949  0.64525973  1
  V  V17  1  0.62090643  0.37574387  0.89069197  1
  V  V18  1  0.12403283  0.37235207  0.63711231  1
  V  V19  1  0.87502122  0.62317956  0.63869454  1
  V  V20  1  0.87612525  0.37739072  0.38566723  1
  V  V21  1  0.12606258  0.37615250  0.89531892  1
  V  V22  1  0.37529840  0.87562870  0.63802384  1
  V  V23  1  0.37557076  0.87369379  0.13765130  1
  V  V24  1  0.12727576  0.12664392  0.64131274  1
  V  V25  1  0.12336715  0.12541992  0.88979899  1
  V  V26  1  0.87412304  0.12488048  0.13619095  1
  V  V27  1  0.37564646  0.63372108  0.39045646  1
  V  V28  1  0.87497087  0.12223417  0.39029278  1
  V  V29  1  0.37634927  0.37509450  0.63947608  1
  V  V30  1  0.37571360  0.12677921  0.13824375  1
  V  V31  1  0.37490682  0.12923426  0.88778498  1
  Fe  Fe32  1  0.62745743  0.62665203  0.39072959  1
  Fe  Fe33  1  0.37499963  0.87641054  0.38695532  1
  Fe  Fe34  1  0.37364747  0.37284369  0.89487799  1
  Fe  Fe35  1  0.37416185  0.12655376  0.63531191  1
  Fe  Fe36  1  0.12529536  0.87603018  0.64298650  1
  Fe  Fe37  1  0.62689203  0.62882874  0.13006435  1
  Fe  Fe38  1  0.87407664  0.87566516  0.64602073  1
  Fe  Fe39  1  0.87240583  0.37562038  0.13563368  1
  Fe  Fe40  1  0.87567614  0.87443992  0.87707317  1
  Fe  Fe41  1  0.62530112  0.12823584  0.88209746  1
  Fe  Fe42  1  0.62469220  0.12201422  0.13981769  1
  Fe  Fe43  1  0.37427368  0.62375319  0.63344781  1
  Fe  Fe44  1  0.37367194  0.87393333  0.88327291  1
  Fe  Fe45  1  0.87487093  0.87378571  0.13302411  1
  Fe  Fe46  1  0.62355688  0.62131260  0.63544857  1
  Fe  Fe47  1  0.12348308  0.37299398  0.13721756  1
  Fe  Fe48  1  0.37696976  0.37613833  0.13054602  1
  Fe  Fe49  1  0.12405716  0.11980077  0.13412768  1
  Fe  Fe50  1  0.62575800  0.61991458  0.88987113  1
  Fe  Fe51  1  0.12456708  0.62905018  0.12951574  1
  Fe  Fe52  1  0.12372568  0.62110114  0.89000050  1
  Fe  Fe53  1  0.12601725  0.62151603  0.63563338  1
  Fe  Fe54  1  0.37620139  0.62640848  0.13314443  1
  Fe  Fe55  1  0.12660880  0.37342488  0.38272192  1
  Fe  Fe56  1  0.62384795  0.37409551  0.38548600  1
  Fe  Fe57  1  0.87571627  0.87645542  0.38921036  1
  Fe  Fe58  1  0.62430977  0.87451185  0.64501200  1
  Fe  Fe59  1  0.62184369  0.87394865  0.87627616  1
  Fe  Fe60  1  0.12758618  0.87366340  0.87746258  1
  Fe  Fe61  1  0.62649984  0.12437288  0.38314872  1
  Fe  Fe62  1  0.87645098  0.12921781  0.88018150  1
  Fe  Fe63  1  0.12386132  0.62604547  0.38847102  1
  Pb  Pb64  1  -0.00977849  -0.00849288  -0.00759627  1
  Pb  Pb65  1  -0.00808863  -0.00595224  0.24970705  1
  Pb  Pb66  1  0.00005329  -0.01056142  0.51041057  1
  Pb  Pb67  1  -0.00218530  -0.00737242  0.75278136  1
  Pb  Pb68  1  0.00494238  0.25193950  0.00614346  1
  Pb  Pb69  1  0.00375028  0.25402134  0.24597222  1
  Pb  Pb70  1  0.00032863  0.24878861  0.49632682  1
  Pb  Pb71  1  -0.00384496  0.24806831  0.75242027  1
  Pb  Pb72  1  0.00105554  0.49029334  0.00751991  1
  Pb  Pb73  1  0.00901047  0.50029704  0.24548102  1
  Pb  Pb74  1  0.00496379  0.50249287  0.49461177  1
  Pb  Pb75  1  0.00527908  0.50395069  0.75181023  1
  Pb  Pb76  1  0.00309190  0.75111496  -0.00865756  1
  Pb  Pb77  1  0.00201851  0.74599557  0.25012965  1
  Pb  Pb78  1  0.00738016  0.75775007  0.50871631  1
  Pb  Pb79  1  0.00543313  0.75268217  0.74780565  1
  Pb  Pb80  1  0.24595681  0.00187371  -0.00474100  1
  Pb  Pb81  1  0.25586944  -0.00724764  0.25014137  1
  Pb  Pb82  1  0.24926643  -0.00083363  0.50441311  1
  Pb  Pb83  1  0.25458703  -0.00907593  0.75313301  1
  Pb  Pb84  1  0.24023970  0.24944498  0.00769491  1
  Pb  Pb85  1  0.24540307  0.25544421  0.24482852  1
  Pb  Pb86  1  0.25531498  0.24567777  0.49870058  1
  Pb  Pb87  1  0.25836086  0.26082775  0.75412667  1
  Pb  Pb88  1  0.25549900  0.50149488  0.00656198  1
  Pb  Pb89  1  0.24621802  0.50124712  0.23927972  1
  Pb  Pb90  1  0.24850765  0.50672082  0.49945200  1
  Pb  Pb91  1  0.24705980  0.50528942  0.75213107  1
  Pb  Pb92  1  0.24649991  0.74389247  -0.00580379  1
  Pb  Pb93  1  0.24652382  0.74396675  0.24797683  1
  Pb  Pb94  1  0.24836758  0.74123157  0.50749302  1
  Pb  Pb95  1  0.24468994  0.74741487  0.74705382  1
  Pb  Pb96  1  0.50778467  -0.00090657  -0.00819756  1
  Pb  Pb97  1  0.49601619  -0.00595910  0.25091035  1
  Pb  Pb98  1  0.49828310  0.00233089  0.50129669  1
  Pb  Pb99  1  0.49714689  -0.00725406  0.75412822  1
  Pb  Pb100  1  0.50524319  0.24387735  0.00421057  1
  Pb  Pb101  1  0.50893423  0.24884304  0.25265626  1
  Pb  Pb102  1  0.49716863  0.24628086  0.49735331  1
  Pb  Pb103  1  0.50071877  0.25210919  0.75244735  1
  Pb  Pb104  1  0.48919791  0.50307504  0.00578452  1
  Pb  Pb105  1  0.50338366  0.50391250  0.24490424  1
  Pb  Pb106  1  0.50134170  0.50851073  0.50055333  1
  Pb  Pb107  1  0.50078369  0.50443502  0.75165916  1
  Pb  Pb108  1  0.50207393  0.74392502  -0.00712965  1
  Pb  Pb109  1  0.50330647  0.74514679  0.24757385  1
  Pb  Pb110  1  0.51190639  0.74946670  0.50766151  1
  Pb  Pb111  1  0.50442245  0.74653497  0.74774686  1
  Pb  Pb112  1  0.75164045  -0.00302220  -0.01483829  1
  Pb  Pb113  1  0.75447443  -0.00520192  0.24937303  1
  Pb  Pb114  1  0.75068721  -0.01124762  0.51005197  1
  Pb  Pb115  1  0.74996508  -0.00513728  0.75380264  1
  Pb  Pb116  1  0.74798142  0.23957162  0.00189243  1
  Pb  Pb117  1  0.74246532  0.24797061  0.25193063  1
  Pb  Pb118  1  0.74791376  0.24957071  0.49557750  1
  Pb  Pb119  1  0.74858672  0.24342979  0.75438852  1
  Pb  Pb120  1  0.75336432  0.49666800  0.00397773  1
  Pb  Pb121  1  0.74094741  0.50396784  0.25089758  1
  Pb  Pb122  1  0.74615355  0.50341500  0.49611758  1
  Pb  Pb123  1  0.74403534  0.50384588  0.75149832  1
  Pb  Pb124  1  0.74534907  0.75155028  -0.00985806  1
  Pb  Pb125  1  0.74776463  0.74718443  0.24990311  1
  Pb  Pb126  1  0.74908354  0.76184772  0.51031049  1
  Pb  Pb127  1  0.74436773  0.75323125  0.74942496  1
  O  O128  1  0.12615696  -0.00690432  0.16395739  1
  O  O129  1  0.12352247  -0.00090385  0.42019780  1
  O  O130  1  0.12356009  0.01166629  0.66289389  1
  O  O131  1  0.12707534  0.00794023  0.90669861  1
  O  O132  1  0.12473335  0.24314410  0.16500955  1
  O  O133  1  0.12470979  0.24496034  0.41397281  1
  O  O134  1  0.12351951  0.25226748  0.66845141  1
  O  O135  1  0.12422241  0.25090154  0.91824590  1
  O  O136  1  0.12220081  0.50270437  0.15713047  1
  O  O137  1  0.12557215  0.49896612  0.41207668  1
  O  O138  1  0.12502464  0.49173164  0.66430511  1
  O  O139  1  0.12226183  0.49178664  0.91626095  1
  O  O140  1  0.12465693  0.75930755  0.16218187  1
  O  O141  1  0.12454225  0.75650825  0.41790552  1
  O  O142  1  0.12581722  0.74727261  0.66246157  1
  O  O143  1  0.12497008  0.74814625  0.90740960  1
  O  O144  1  0.37632915  -0.00161346  0.16666041  1
  O  O145  1  0.37416813  0.00188508  0.41915321  1
  O  O146  1  0.37498203  -0.00034493  0.66177027  1
  O  O147  1  0.37268405  0.01267433  0.91188704  1
  O  O148  1  0.37722117  0.24336328  0.15769013  1
  O  O149  1  0.37397802  0.25000954  0.41407269  1
  O  O150  1  0.37480359  0.25522971  0.66662260  1
  O  O151  1  0.37141495  0.24280635  0.91879962  1
  O  O152  1  0.37795208  0.50015278  0.16413906  1
  O  O153  1  0.37387310  0.49821599  0.40815244  1
  O  O154  1  0.37414010  0.48995503  0.66273301  1
  O  O155  1  0.37446074  0.50240283  0.91538697  1
  O  O156  1  0.37649585  0.75569410  0.16334390  1
  O  O157  1  0.37421243  0.74858573  0.41284521  1
  O  O158  1  0.37426222  0.75667971  0.65903623  1
  O  O159  1  0.37404123  0.74150054  0.90608512  1
  O  O160  1  0.62370333  -0.00734187  0.16287482  1
  O  O161  1  0.62698413  -0.00338582  0.41498206  1
  O  O162  1  0.62597898  0.00977435  0.66160435  1
  O  O163  1  0.62247350  0.00158410  0.90605522  1
  O  O164  1  0.62563564  0.25293751  0.16491921  1
  O  O165  1  0.62552544  0.24856688  0.41650522  1
  O  O166  1  0.62527553  0.25429447  0.66620308  1
  O  O167  1  0.62669673  0.25776386  0.91768649  1
  O  O168  1  0.62675717  0.49615453  0.15925835  1
  O  O169  1  0.62487535  0.49936037  0.41506367  1
  O  O170  1  0.62428407  0.49239460  0.66470002  1
  O  O171  1  0.62987615  0.49007140  0.91682076  1
  O  O172  1  0.62606901  0.75864405  0.16188938  1
  O  O173  1  0.62544608  0.75590071  0.41859990  1
  O  O174  1  0.62380951  0.74574109  0.66403901  1
  O  O175  1  0.62528774  0.74733090  0.90729770  1
  O  O176  1  0.87376306  0.00246241  0.16498197  1
  O  O177  1  0.87639078  0.00682754  0.41753596  1
  O  O178  1  0.87405434  0.00900255  0.66535876  1
  O  O179  1  0.87718870  0.00278070  0.90455689  1
  O  O180  1  0.87313401  0.24197291  0.15933765  1
  O  O181  1  0.87766136  0.24630816  0.41322913  1
  O  O182  1  0.87496103  0.25486231  0.66724817  1
  O  O183  1  0.87785029  0.25645486  0.91550741  1
  O  O184  1  0.87357474  0.50928827  0.16380887  1
  O  O185  1  0.87682750  0.50126854  0.41177443  1
  O  O186  1  0.87561626  0.49922059  0.66562296  1
  O  O187  1  0.87602366  0.49532449  0.91847105  1
  O  O188  1  0.87311423  0.74579326  0.16293636  1
  O  O189  1  0.87605583  0.74654152  0.41295616  1
  O  O190  1  0.87466389  0.73883657  0.66290946  1
  O  O191  1  0.87600835  0.74065417  0.90279603  1
  O  O192  1  -0.00747522  0.12063022  0.16096283  1
  O  O193  1  -0.00178073  0.12486163  0.41729769  1
  O  O194  1  0.00425478  0.13232061  0.66729353  1
  O  O195  1  0.00641453  0.13049582  0.90956984  1
  O  O196  1  -0.00438264  0.37379853  0.16618202  1
  O  O197  1  -0.00331170  0.37267360  0.41368159  1
  O  O198  1  -0.00163702  0.37430162  0.66483167  1
  O  O199  1  0.00006401  0.37354489  0.91771557  1
  O  O200  1  -0.00564527  0.62999054  0.16100263  1
  O  O201  1  -0.00661453  0.62567597  0.41586630  1
  O  O202  1  -0.00510320  0.61933681  0.66335093  1
  O  O203  1  -0.00852411  0.61775799  0.91309672  1
  O  O204  1  0.00549030  0.87630929  0.16055547  1
  O  O205  1  0.00414456  0.87705154  0.42019589  1
  O  O206  1  -0.00048714  0.87693319  0.66583523  1
  O  O207  1  0.00208323  0.87507398  0.90661225  1
  O  O208  1  0.25866010  0.11960045  0.16376678  1
  O  O209  1  0.24752699  0.12271776  0.41759588  1
  O  O210  1  0.24362810  0.13185406  0.66246117  1
  O  O211  1  0.24779081  0.12931137  0.91372208  1
  O  O212  1  0.25197980  0.37222347  0.16009288  1
  O  O213  1  0.25761872  0.37197815  0.41222446  1
  O  O214  1  0.25148903  0.37188009  0.66258007  1
  O  O215  1  0.24245045  0.37275527  0.91653152  1
  O  O216  1  0.24957523  0.62986984  0.16235363  1
  O  O217  1  0.25606727  0.62567470  0.41392001  1
  O  O218  1  0.25181085  0.62023552  0.66664391  1
  O  O219  1  0.25518125  0.62020672  0.91162761  1
  O  O220  1  0.24718868  0.87636134  0.16162109  1
  O  O221  1  0.24471137  0.87762970  0.41719791  1
  O  O222  1  0.25600918  0.87923686  0.66165162  1
  O  O223  1  0.25001047  0.87798400  0.91275137  1
  O  O224  1  0.49312160  0.12104544  0.16608009  1
  O  O225  1  0.49802042  0.12337512  0.41449448  1
  O  O226  1  0.50507633  0.13209680  0.66151937  1
  O  O227  1  0.49395913  0.13050001  0.91023499  1
  O  O228  1  0.50662522  0.37350482  0.16179362  1
  O  O229  1  0.49082806  0.37293906  0.41359973  1
  O  O230  1  0.49770021  0.37268916  0.66069678  1
  O  O231  1  0.50636700  0.37366741  0.91317882  1
  O  O232  1  0.50347582  0.62842805  0.16338351  1
  O  O233  1  0.49328057  0.62477235  0.41369610  1
  O  O234  1  0.49706537  0.61981899  0.66524825  1
  O  O235  1  0.49422400  0.62037863  0.91071360  1
  O  O236  1  0.50379318  0.87567376  0.16257276  1
  O  O237  1  0.50538295  0.87648608  0.41642982  1
  O  O238  1  0.49322968  0.87839273  0.66220709  1
  O  O239  1  0.49731323  0.87557457  0.91208949  1
  O  O240  1  0.75558036  0.12208519  0.16361985  1
  O  O241  1  0.75750752  0.12658005  0.41168950  1
  O  O242  1  0.74629813  0.13246141  0.66554636  1
  O  O243  1  0.75129918  0.13035850  0.91111116  1
  O  O244  1  0.74542879  0.37480673  0.16482750  1
  O  O245  1  0.75620240  0.37332758  0.41464692  1
  O  O246  1  0.75139443  0.37558910  0.66375227  1
  O  O247  1  0.75233539  0.37351405  0.91560157  1
  O  O248  1  0.75312882  0.62741001  0.16407200  1
  O  O249  1  0.75897506  0.62410871  0.41483112  1
  O  O250  1  0.75561191  0.61848810  0.66243900  1
  O  O251  1  0.75948398  0.61775106  0.91249352  1
  O  O252  1  0.74432552  0.87620657  0.16000632  1
  O  O253  1  0.74669135  0.87600328  0.41908928  1
  O  O254  1  0.74955643  0.87621798  0.66898999  1
  O  O255  1  0.74957312  0.87391878  0.90254570  1
  O  O256  1  0.12915247  0.12526351  0.03485408  1
  O  O257  1  0.12400448  0.11969744  0.29787279  1
  O  O258  1  0.12346664  0.12959942  0.55021636  1
  O  O259  1  0.12699246  0.13186745  0.79908325  1
  O  O260  1  0.11737595  0.36625141  0.03622061  1
  O  O261  1  0.12460047  0.36982905  0.28300902  1
  O  O262  1  0.12397820  0.37083656  0.54646701  1
  O  O263  1  0.12411337  0.37340523  0.80377307  1
  O  O264  1  0.12626776  0.63373988  0.02922578  1
  O  O265  1  0.12086453  0.63626213  0.28876774  1
  O  O266  1  0.13147694  0.62430615  0.53437295  1
  O  O267  1  0.12524581  0.61224077  0.78890285  1
  O  O268  1  0.12450143  0.87715285  0.04463078  1
  O  O269  1  0.12437712  0.87622683  0.30483141  1
  O  O270  1  0.11857796  0.87823161  0.54140690  1
  O  O271  1  0.12992070  0.87886913  0.77575555  1
  O  O272  1  0.37663320  0.12158772  0.04744345  1
  O  O273  1  0.37289202  0.12317959  0.30037346  1
  O  O274  1  0.37324513  0.12969934  0.53581277  1
  O  O275  1  0.37308216  0.13228773  0.79620155  1
  O  O276  1  0.37699914  0.38326903  0.02989048  1
  O  O277  1  0.37583418  0.37629513  0.29597719  1
  O  O278  1  0.37481023  0.37350473  0.54862570  1
  O  O279  1  0.37282182  0.36834681  0.79484152  1
  O  O280  1  0.37565993  0.62010905  0.03312808  1
  O  O281  1  0.37595824  0.63251544  0.29927870  1
  O  O282  1  0.36998883  0.62153049  0.53334809  1
  O  O283  1  0.37391311  0.61661583  0.79586467  1
  O  O284  1  0.37557471  0.87619414  0.04699613  1
  O  O285  1  0.37498885  0.88230844  0.28790264  1
  O  O286  1  0.37548190  0.87807130  0.54650595  1
  O  O287  1  0.37460028  0.88494504  0.78366745  1
  O  O288  1  0.62046084  0.13172424  0.03995116  1
  O  O289  1  0.62522198  0.13210382  0.28312202  1
  O  O290  1  0.62718327  0.12874681  0.55170569  1
  O  O291  1  0.62382229  0.13665695  0.78277076  1
  O  O292  1  0.62701641  0.37118978  0.04867378  1
  O  O293  1  0.62520470  0.37066296  0.28588328  1
  O  O294  1  0.62746740  0.37318080  0.54525350  1
  O  O295  1  0.62363901  0.37521234  0.79929212  1
  O  O296  1  0.62850663  0.63163822  0.03008824  1
  O  O297  1  0.63077323  0.63001107  0.29022970  1
  O  O298  1  0.61861725  0.62260961  0.53391886  1
  O  O299  1  0.62421509  0.61081689  0.78904250  1
  O  O300  1  0.62423205  0.87633336  0.04398719  1
  O  O301  1  0.62644852  0.87397422  0.30253778  1
  O  O302  1  0.63160735  0.87292357  0.54284366  1
  O  O303  1  0.61752171  0.87745718  0.77424022  1
  O  O304  1  0.87259397  0.12177003  0.04489210  1
  O  O305  1  0.87845045  0.12046642  0.29950016  1
  O  O306  1  0.87657541  0.12977914  0.55405953  1
  O  O307  1  0.87525340  0.13783224  0.78040474  1
  O  O308  1  0.87566685  0.38016211  0.03610672  1
  O  O309  1  0.87460395  0.37620371  0.29475904  1
  O  O310  1  0.87554153  0.37575752  0.54831572  1
  O  O311  1  0.87419902  0.37777330  0.80490668  1
  O  O312  1  0.87286202  0.62605789  0.04619479  1
  O  O313  1  0.87605375  0.63107297  0.29773204  1
  O  O314  1  0.87618875  0.62263017  0.54800300  1
  O  O315  1  0.87623560  0.61456654  0.79496364  1
  O  O316  1  0.87927223  0.87837006  0.03397955  1
  O  O317  1  0.87518429  0.88347997  0.28969340  1
  O  O318  1  0.86915540  0.87762624  0.54268604  1
  O  O319  1  0.87669294  0.87589405  0.77576488  1
