# generated using pymatgen
data_VFe(PbO3)2
_symmetry_space_group_name_H-M   'P 1'
_cell_length_a   15.38485557
_cell_length_b   15.38158292
_cell_length_c   18.52070275
_cell_angle_alpha   90.01776771
_cell_angle_beta   90.02436956
_cell_angle_gamma   90.00732242
_symmetry_Int_Tables_number   1
_chemical_formula_structural   VFe(PbO3)2
_chemical_formula_sum   'V32 Fe32 Pb64 O192'
_cell_volume   4382.80201260
_cell_formula_units_Z   32
loop_
 _symmetry_equiv_pos_site_id
 _symmetry_equiv_pos_as_xyz
  1  'x, y, z'
loop_
 _atom_site_type_symbol
 _atom_site_label
 _atom_site_symmetry_multiplicity
 _atom_site_fract_x
 _atom_site_fract_y
 _atom_site_fract_z
 _atom_site_occupancy
  V  V0  1  0.13314326  0.37479771  0.88567699  1
  V  V1  1  0.87342060  0.37586474  0.13935271  1
  V  V2  1  0.12774148  0.62931611  0.64017666  1
  V  V3  1  0.62215388  0.62359661  0.88828334  1
  V  V4  1  0.62434860  0.37654536  0.88637523  1
  V  V5  1  0.88431378  0.37725955  0.88503773  1
  V  V6  1  0.87455430  0.87382065  0.13484107  1
  V  V7  1  0.12474956  0.87645734  0.38795714  1
  V  V8  1  0.12580976  0.87787523  0.64653966  1
  V  V9  1  0.37259712  0.62548930  0.39098161  1
  V  V10  1  0.37607288  0.62548793  0.14149358  1
  V  V11  1  0.87753963  0.62602180  0.63905519  1
  V  V12  1  0.62606094  0.87576319  0.39077119  1
  V  V13  1  0.37281203  0.12308627  0.63593815  1
  V  V14  1  0.87545141  0.87779649  0.38966069  1
  V  V15  1  0.37526829  0.87835671  0.38979643  1
  V  V16  1  0.12485688  0.12476592  0.88779853  1
  V  V17  1  0.12372078  0.37484320  0.39117338  1
  V  V18  1  0.62447441  0.87588440  0.88736518  1
  V  V19  1  0.62418955  0.12453323  0.39242664  1
  V  V20  1  0.62371300  0.37383084  0.14755310  1
  V  V21  1  0.62675778  0.37529557  0.63150670  1
  V  V22  1  0.37853124  0.37685756  0.88994191  1
  V  V23  1  0.87107823  0.37468248  0.39841597  1
  V  V24  1  0.87320479  0.12742774  0.13584894  1
  V  V25  1  0.12513359  0.12433296  0.39460724  1
  V  V26  1  0.37286985  0.37704965  0.14447095  1
  V  V27  1  0.12515777  0.87380067  0.13610712  1
  V  V28  1  0.37491887  0.62233331  0.88938404  1
  V  V29  1  0.87554023  0.12306338  0.39847895  1
  V  V30  1  0.87234288  0.62328739  0.14183196  1
  V  V31  1  0.87592908  0.87433813  0.64328838  1
  Fe  Fe32  1  0.12445075  0.87228424  0.88249829  1
  Fe  Fe33  1  0.37461659  0.12841446  0.88904138  1
  Fe  Fe34  1  0.12103538  0.37491070  0.13899581  1
  Fe  Fe35  1  0.62610992  0.12680423  0.13433225  1
  Fe  Fe36  1  0.87433600  0.12898387  0.88159582  1
  Fe  Fe37  1  0.62336451  0.62192829  0.14398669  1
  Fe  Fe38  1  0.87217465  0.62115112  0.88497576  1
  Fe  Fe39  1  0.87746001  0.37738837  0.62880033  1
  Fe  Fe40  1  0.12569443  0.62753938  0.38341451  1
  Fe  Fe41  1  0.62702160  0.37270017  0.38806064  1
  Fe  Fe42  1  0.62278280  0.12846480  0.87979548  1
  Fe  Fe43  1  0.37545364  0.37661435  0.62579716  1
  Fe  Fe44  1  0.37470849  0.12567807  0.13345017  1
  Fe  Fe45  1  0.87415970  0.87363174  0.88339514  1
  Fe  Fe46  1  0.37367421  0.87312779  0.89345610  1
  Fe  Fe47  1  0.37586955  0.37098665  0.39307459  1
  Fe  Fe48  1  0.62739762  0.62789710  0.62888584  1
  Fe  Fe49  1  0.62602482  0.62678500  0.38873605  1
  Fe  Fe50  1  0.37373973  0.12148892  0.38511947  1
  Fe  Fe51  1  0.87786230  0.12481926  0.63560370  1
  Fe  Fe52  1  0.62574294  0.87402518  0.63528674  1
  Fe  Fe53  1  0.12438141  0.62171073  0.14266089  1
  Fe  Fe54  1  0.37550488  0.87195347  0.12800729  1
  Fe  Fe55  1  0.62439861  0.12274228  0.64028412  1
  Fe  Fe56  1  0.12666097  0.12238575  0.63255361  1
  Fe  Fe57  1  0.37577489  0.62811986  0.62953771  1
  Fe  Fe58  1  0.37441485  0.87345733  0.63572657  1
  Fe  Fe59  1  0.12485055  0.62049310  0.88295234  1
  Fe  Fe60  1  0.62669979  0.87309959  0.13281263  1
  Fe  Fe61  1  0.87827138  0.62844014  0.38645230  1
  Fe  Fe62  1  0.12236878  0.12774838  0.13520987  1
  Fe  Fe63  1  0.12571810  0.37550277  0.63152812  1
  Pb  Pb64  1  -0.00419427  -0.00016397  -0.00872147  1
  Pb  Pb65  1  -0.00244516  -0.00161849  0.24495787  1
  Pb  Pb66  1  0.00165851  0.00757447  0.50676745  1
  Pb  Pb67  1  -0.00268657  -0.00188554  0.75258667  1
  Pb  Pb68  1  0.01363217  0.25212306  0.00296077  1
  Pb  Pb69  1  0.00049758  0.25011765  0.24963200  1
  Pb  Pb70  1  -0.00217851  0.25264764  0.50717901  1
  Pb  Pb71  1  -0.00030032  0.24926722  0.73686378  1
  Pb  Pb72  1  0.01029220  0.50347318  0.00379665  1
  Pb  Pb73  1  -0.00408918  0.50572264  0.25384258  1
  Pb  Pb74  1  0.00242599  0.49320228  0.50096089  1
  Pb  Pb75  1  0.00398066  0.50753237  0.74883362  1
  Pb  Pb76  1  -0.00057250  0.74365647  -0.01020508  1
  Pb  Pb77  1  -0.00315122  0.74243467  0.25168338  1
  Pb  Pb78  1  0.00186547  0.74854841  0.49758609  1
  Pb  Pb79  1  0.00306000  0.75238163  0.75839010  1
  Pb  Pb80  1  0.25664859  -0.00032567  -0.00179713  1
  Pb  Pb81  1  0.25708269  0.00638226  0.24316623  1
  Pb  Pb82  1  0.24937847  0.00024512  0.50185247  1
  Pb  Pb83  1  0.26589746  -0.00053342  0.75970169  1
  Pb  Pb84  1  0.25061121  0.24323769  0.00569608  1
  Pb  Pb85  1  0.25563151  0.24545066  0.25186451  1
  Pb  Pb86  1  0.24725246  0.25323640  0.50060701  1
  Pb  Pb87  1  0.25322480  0.25044166  0.74111677  1
  Pb  Pb88  1  0.24130719  0.49919106  0.00515183  1
  Pb  Pb89  1  0.24537232  0.49907714  0.25401589  1
  Pb  Pb90  1  0.25014357  0.49406281  0.50085635  1
  Pb  Pb91  1  0.24975789  0.50098017  0.74134246  1
  Pb  Pb92  1  0.24628581  0.75028141  -0.00387972  1
  Pb  Pb93  1  0.24506002  0.74631693  0.24970563  1
  Pb  Pb94  1  0.25920251  0.75277489  0.50374734  1
  Pb  Pb95  1  0.25345969  0.75840911  0.75607223  1
  Pb  Pb96  1  0.49601537  0.00327968  -0.00305088  1
  Pb  Pb97  1  0.49736716  0.00129574  0.23761584  1
  Pb  Pb98  1  0.51041681  -0.00424734  0.50588615  1
  Pb  Pb99  1  0.50040846  -0.00076695  0.74840383  1
  Pb  Pb100  1  0.50018212  0.23992787  0.00254380  1
  Pb  Pb101  1  0.49111619  0.24704751  0.25535329  1
  Pb  Pb102  1  0.49609061  0.25076793  0.49744152  1
  Pb  Pb103  1  0.49964441  0.24231073  0.74657364  1
  Pb  Pb104  1  0.50323421  0.50556131  0.00511994  1
  Pb  Pb105  1  0.49914918  0.48853746  0.26225016  1
  Pb  Pb106  1  0.50048040  0.50220857  0.49508446  1
  Pb  Pb107  1  0.49913063  0.50220662  0.73510927  1
  Pb  Pb108  1  0.50490319  0.75779628  0.00440900  1
  Pb  Pb109  1  0.50604763  0.75064342  0.24727783  1
  Pb  Pb110  1  0.49171863  0.75096561  0.50390517  1
  Pb  Pb111  1  0.49963569  0.75167091  0.74065521  1
  Pb  Pb112  1  0.74351987  0.00477795  -0.00720181  1
  Pb  Pb113  1  0.74769669  -0.00031620  0.24402139  1
  Pb  Pb114  1  0.74388400  0.00091960  0.50953654  1
  Pb  Pb115  1  0.75045321  0.00776345  0.74943988  1
  Pb  Pb116  1  0.74457999  0.24628713  -0.00441044  1
  Pb  Pb117  1  0.74822277  0.25499245  0.25398161  1
  Pb  Pb118  1  0.75312596  0.23721935  0.50886860  1
  Pb  Pb119  1  0.75439424  0.24336417  0.74356915  1
  Pb  Pb120  1  0.74281196  0.50439890  0.00254992  1
  Pb  Pb121  1  0.74107135  0.50180738  0.26053610  1
  Pb  Pb122  1  0.74503207  0.50866739  0.49730946  1
  Pb  Pb123  1  0.75589478  0.50275177  0.74531537  1
  Pb  Pb124  1  0.74285769  0.75012169  -0.00093096  1
  Pb  Pb125  1  0.74816152  0.74134103  0.25313678  1
  Pb  Pb126  1  0.74230564  0.75052320  0.50027863  1
  Pb  Pb127  1  0.75755055  0.74862759  0.75097005  1
  O  O128  1  0.11990107  -0.00751722  0.16132949  1
  O  O129  1  0.12399757  -0.00557197  0.41732728  1
  O  O130  1  0.12264603  -0.00688886  0.66429965  1
  O  O131  1  0.12452046  0.00894742  0.90753508  1
  O  O132  1  0.12167563  0.25174862  0.17007146  1
  O  O133  1  0.12364626  0.25095937  0.41471420  1
  O  O134  1  0.12802080  0.24829888  0.65867875  1
  O  O135  1  0.12559163  0.25477959  0.91402073  1
  O  O136  1  0.12465125  0.49730717  0.17307458  1
  O  O137  1  0.12471518  0.49493754  0.40860505  1
  O  O138  1  0.12318101  0.50925514  0.66007108  1
  O  O139  1  0.12695962  0.49361200  0.91705220  1
  O  O140  1  0.12193192  0.75495402  0.16305449  1
  O  O141  1  0.12512556  0.75961402  0.41117916  1
  O  O142  1  0.12097882  0.74744450  0.66627118  1
  O  O143  1  0.12503921  0.74497154  0.91135691  1
  O  O144  1  0.37186333  -0.00294912  0.15669160  1
  O  O145  1  0.37510753  -0.00383030  0.41529847  1
  O  O146  1  0.37252095  0.00325714  0.66269473  1
  O  O147  1  0.37372994  0.00149668  0.91545336  1
  O  O148  1  0.37681663  0.25786729  0.16530733  1
  O  O149  1  0.37451734  0.24361244  0.41681795  1
  O  O150  1  0.37494153  0.24486145  0.65519751  1
  O  O151  1  0.37575710  0.26141382  0.91398968  1
  O  O152  1  0.37689750  0.49810002  0.16982176  1
  O  O153  1  0.37318249  0.50772954  0.40873931  1
  O  O154  1  0.37466353  0.50227178  0.65675024  1
  O  O155  1  0.37800369  0.49958889  0.91838360  1
  O  O156  1  0.37288203  0.74288809  0.16175404  1
  O  O157  1  0.37412569  0.75438372  0.41465286  1
  O  O158  1  0.37108383  0.74928106  0.66712095  1
  O  O159  1  0.37545906  0.73827475  0.91245271  1
  O  O160  1  0.62892278  -0.00029487  0.16221156  1
  O  O161  1  0.62771918  0.00026536  0.41761200  1
  O  O162  1  0.62646192  -0.00271964  0.66819061  1
  O  O163  1  0.62435622  -0.00499596  0.90523359  1
  O  O164  1  0.62679223  0.25636792  0.16897726  1
  O  O165  1  0.62862668  0.24102992  0.41397207  1
  O  O166  1  0.62443803  0.25783020  0.65862075  1
  O  O167  1  0.61879347  0.26029376  0.90886332  1
  O  O168  1  0.62557851  0.49287634  0.17171111  1
  O  O169  1  0.62709369  0.50005959  0.41297628  1
  O  O170  1  0.62672359  0.49573091  0.65663646  1
  O  O171  1  0.61846065  0.49743937  0.91777308  1
  O  O172  1  0.62676553  0.74809036  0.16760454  1
  O  O173  1  0.62720821  0.75914992  0.40911658  1
  O  O174  1  0.63026229  0.74990209  0.66425931  1
  O  O175  1  0.62451294  0.74767121  0.91225718  1
  O  O176  1  0.87542779  0.00053113  0.16150643  1
  O  O177  1  0.87592607  -0.00294468  0.42080924  1
  O  O178  1  0.87973436  -0.00848939  0.66130627  1
  O  O179  1  0.87353960  0.00296132  0.91233202  1
  O  O180  1  0.87339407  0.25152933  0.16756635  1
  O  O181  1  0.87814855  0.24972706  0.42029864  1
  O  O182  1  0.87567932  0.25297942  0.65787934  1
  O  O183  1  0.86998474  0.26393093  0.91184346  1
  O  O184  1  0.87312419  0.50142897  0.16706795  1
  O  O185  1  0.87840888  0.49345169  0.41221346  1
  O  O186  1  0.87620187  0.50693030  0.65871035  1
  O  O187  1  0.86908433  0.48791867  0.91774913  1
  O  O188  1  0.87530371  0.74517940  0.16043707  1
  O  O189  1  0.87654379  0.75976387  0.41587588  1
  O  O190  1  0.87888780  0.74772204  0.66666635  1
  O  O191  1  0.87190300  0.74688913  0.91380173  1
  O  O192  1  -0.00594309  0.12513836  0.16670073  1
  O  O193  1  0.00100055  0.12230092  0.42029391  1
  O  O194  1  0.00233053  0.12136632  0.66246548  1
  O  O195  1  0.00522281  0.13329836  0.90945545  1
  O  O196  1  -0.00837152  0.37600541  0.16910750  1
  O  O197  1  0.00281533  0.37200817  0.41514683  1
  O  O198  1  0.00155186  0.37874098  0.66216564  1
  O  O199  1  -0.00063436  0.37701762  0.89914069  1
  O  O200  1  -0.00678893  0.62299017  0.16507556  1
  O  O201  1  0.00290631  0.62791790  0.41615415  1
  O  O202  1  -0.00186725  0.62677560  0.66434194  1
  O  O203  1  -0.00219264  0.61639607  0.91290281  1
  O  O204  1  -0.00207718  0.87353037  0.16470917  1
  O  O205  1  0.00394927  0.87775435  0.41372642  1
  O  O206  1  0.00093921  0.87035359  0.66852867  1
  O  O207  1  0.00057628  0.87625959  0.91493535  1
  O  O208  1  0.24788759  0.12693162  0.16351871  1
  O  O209  1  0.24527463  0.12055443  0.41495210  1
  O  O210  1  0.25573897  0.12298856  0.66165776  1
  O  O211  1  0.24260990  0.13212941  0.91482288  1
  O  O212  1  0.25629650  0.37667218  0.16373958  1
  O  O213  1  0.24332104  0.37373005  0.41171044  1
  O  O214  1  0.25169708  0.37746909  0.66039597  1
  O  O215  1  0.25644750  0.37898094  0.91288873  1
  O  O216  1  0.25719951  0.62130391  0.16808108  1
  O  O217  1  0.25288161  0.62999420  0.41334780  1
  O  O218  1  0.24341111  0.62739292  0.65720503  1
  O  O219  1  0.25788686  0.61795073  0.91246544  1
  O  O220  1  0.24190972  0.87232122  0.15705446  1
  O  O221  1  0.24580245  0.87752910  0.41161206  1
  O  O222  1  0.24292718  0.87131208  0.66513916  1
  O  O223  1  0.24627381  0.87337773  0.91830444  1
  O  O224  1  0.50045468  0.12789127  0.16104255  1
  O  O225  1  0.50745244  0.12058926  0.41153932  1
  O  O226  1  0.49242896  0.12384316  0.66128630  1
  O  O227  1  0.50106953  0.12858939  0.91461115  1
  O  O228  1  0.50119003  0.37617120  0.16917620  1
  O  O229  1  0.50264338  0.37299957  0.41662328  1
  O  O230  1  0.50517760  0.37602655  0.65531406  1
  O  O231  1  0.49772443  0.37905851  0.91624629  1
  O  O232  1  0.49177490  0.62162815  0.16828054  1
  O  O233  1  0.49307612  0.63057933  0.40981091  1
  O  O234  1  0.50239226  0.62659871  0.65745245  1
  O  O235  1  0.49747896  0.62161131  0.91719866  1
  O  O236  1  0.49910102  0.87129826  0.16136959  1
  O  O237  1  0.50491062  0.87809272  0.41114889  1
  O  O238  1  0.49941054  0.87485894  0.66292822  1
  O  O239  1  0.50669968  0.87084545  0.91225264  1
  O  O240  1  0.75462442  0.12748458  0.16690963  1
  O  O241  1  0.74861786  0.12223594  0.41972956  1
  O  O242  1  0.75190268  0.12367638  0.66263085  1
  O  O243  1  0.74767361  0.13138433  0.91105191  1
  O  O244  1  0.74924047  0.37531333  0.16915327  1
  O  O245  1  0.75560071  0.37021070  0.41682157  1
  O  O246  1  0.74545299  0.37717907  0.65566318  1
  O  O247  1  0.73770124  0.37861433  0.90987561  1
  O  O248  1  0.75551473  0.62282418  0.16715354  1
  O  O249  1  0.75444569  0.62835073  0.41472014  1
  O  O250  1  0.75822310  0.62661844  0.65956249  1
  O  O251  1  0.74295985  0.61816399  0.91616775  1
  O  O252  1  0.75756085  0.87302696  0.16403544  1
  O  O253  1  0.74765998  0.87898345  0.41364121  1
  O  O254  1  0.75998892  0.87170580  0.66268159  1
  O  O255  1  0.74244899  0.87239554  0.91169948  1
  O  O256  1  0.12036100  0.13768104  0.03572849  1
  O  O257  1  0.12118844  0.12109030  0.30343424  1
  O  O258  1  0.12752750  0.11430986  0.53245441  1
  O  O259  1  0.12851067  0.12843143  0.79712347  1
  O  O260  1  0.11892537  0.37666495  0.03838119  1
  O  O261  1  0.12142606  0.37100958  0.30005656  1
  O  O262  1  0.12707785  0.38021572  0.53086972  1
  O  O263  1  0.13575217  0.37739900  0.79469133  1
  O  O264  1  0.12548962  0.61094477  0.04240028  1
  O  O265  1  0.12625816  0.63188426  0.28279715  1
  O  O266  1  0.12144803  0.63214700  0.54893351  1
  O  O267  1  0.12385649  0.61787746  0.78335619  1
  O  O268  1  0.12126413  0.87358976  0.04551916  1
  O  O269  1  0.12392889  0.87937063  0.29708797  1
  O  O270  1  0.12346043  0.87358139  0.55534968  1
  O  O271  1  0.12402615  0.87025060  0.78233224  1
  O  O272  1  0.37224542  0.13378841  0.03204012  1
  O  O273  1  0.36993071  0.12549758  0.28465839  1
  O  O274  1  0.37253022  0.11898098  0.54491060  1
  O  O275  1  0.37189775  0.12615403  0.78881968  1
  O  O276  1  0.37795091  0.37828202  0.05391389  1
  O  O277  1  0.38168652  0.37157864  0.29139013  1
  O  O278  1  0.36927326  0.37776902  0.52485750  1
  O  O279  1  0.37955312  0.37848477  0.79924460  1
  O  O280  1  0.37609204  0.62098378  0.05068717  1
  O  O281  1  0.36963904  0.63145475  0.29989300  1
  O  O282  1  0.37468919  0.63758165  0.52917327  1
  O  O283  1  0.37759819  0.61907377  0.79874229  1
  O  O284  1  0.37765895  0.86879949  0.02743688  1
  O  O285  1  0.37393175  0.87535154  0.29868626  1
  O  O286  1  0.37255713  0.86686222  0.53498881  1
  O  O287  1  0.36506187  0.87565769  0.79200701  1
  O  O288  1  0.62974376  0.13376476  0.03451831  1
  O  O289  1  0.62941049  0.12116149  0.30156574  1
  O  O290  1  0.62712903  0.11668786  0.53895820  1
  O  O291  1  0.62009431  0.13161450  0.77889270  1
  O  O292  1  0.62295566  0.37498587  0.05655349  1
  O  O293  1  0.63003701  0.37517902  0.28791011  1
  O  O294  1  0.62597604  0.37485966  0.54030925  1
  O  O295  1  0.62119977  0.38029177  0.79588229  1
  O  O296  1  0.62458558  0.61522110  0.04370311  1
  O  O297  1  0.63204625  0.62618113  0.28675390  1
  O  O298  1  0.63182478  0.62925585  0.52802725  1
  O  O299  1  0.62371718  0.62073666  0.79781093  1
  O  O300  1  0.62636459  0.86734482  0.03289320  1
  O  O301  1  0.62745287  0.88094863  0.29981702  1
  O  O302  1  0.62798034  0.88177413  0.53430624  1
  O  O303  1  0.62500838  0.87155286  0.79659788  1
  O  O304  1  0.87279854  0.13117011  0.04487406  1
  O  O305  1  0.87418038  0.12318714  0.30751921  1
  O  O306  1  0.87453155  0.12479593  0.53381742  1
  O  O307  1  0.87249260  0.12796552  0.78193277  1
  O  O308  1  0.87431905  0.37519018  0.04868638  1
  O  O309  1  0.87347117  0.36933729  0.30708221  1
  O  O310  1  0.88550804  0.37689458  0.52863731  1
  O  O311  1  0.87053456  0.38163064  0.79417662  1
  O  O312  1  0.87053989  0.61923875  0.05091032  1
  O  O313  1  0.88072282  0.63054090  0.28631607  1
  O  O314  1  0.88082046  0.63129045  0.54811263  1
  O  O315  1  0.86913164  0.61712827  0.78525114  1
  O  O316  1  0.87479954  0.87600674  0.04420029  1
  O  O317  1  0.87569273  0.87879480  0.29854232  1
  O  O318  1  0.87981037  0.86958395  0.55233258  1
  O  O319  1  0.87820356  0.87045818  0.78372676  1
