# generated using pymatgen
data_VFe(PbO3)2
_symmetry_space_group_name_H-M   'P 1'
_cell_length_a   15.37051738
_cell_length_b   15.37656988
_cell_length_c   18.54406712
_cell_angle_alpha   90.00186734
_cell_angle_beta   90.01777583
_cell_angle_gamma   90.00612397
_symmetry_Int_Tables_number   1
_chemical_formula_structural   VFe(PbO3)2
_chemical_formula_sum   'V32 Fe32 Pb64 O192'
_cell_volume   4382.81277870
_cell_formula_units_Z   32
loop_
 _symmetry_equiv_pos_site_id
 _symmetry_equiv_pos_as_xyz
  1  'x, y, z'
loop_
 _atom_site_type_symbol
 _atom_site_label
 _atom_site_symmetry_multiplicity
 _atom_site_fract_x
 _atom_site_fract_y
 _atom_site_fract_z
 _atom_site_occupancy
  V  V0  1  0.37394052  0.87525421  0.38627056  1
  V  V1  1  0.37556911  0.36940836  0.63659957  1
  V  V2  1  0.12510214  0.62783967  0.39033262  1
  V  V3  1  0.12433835  0.87569269  0.64364565  1
  V  V4  1  0.12277351  0.62356383  0.63993950  1
  V  V5  1  0.62260375  0.37635560  0.88996815  1
  V  V6  1  0.37583221  0.37659298  0.88782617  1
  V  V7  1  0.87943215  0.12581278  0.13156724  1
  V  V8  1  0.87544497  0.12610506  0.38875299  1
  V  V9  1  0.12461186  0.87467485  0.13683199  1
  V  V10  1  0.62256139  0.62678885  0.88932377  1
  V  V11  1  0.37575980  0.37494976  0.14023630  1
  V  V12  1  0.62318099  0.87442915  0.89515477  1
  V  V13  1  0.62471785  0.62448209  0.14116475  1
  V  V14  1  0.12447836  0.62505712  0.13928369  1
  V  V15  1  0.87573826  0.62325369  0.14159304  1
  V  V16  1  0.37407085  0.87430163  0.89296445  1
  V  V17  1  0.62526636  0.12602699  0.64066944  1
  V  V18  1  0.87201329  0.87710979  0.64397813  1
  V  V19  1  0.87459817  0.87313454  0.88919113  1
  V  V20  1  0.37714478  0.13012100  0.89447994  1
  V  V21  1  0.37308630  0.62393320  0.14482862  1
  V  V22  1  0.37446379  0.62729117  0.63648998  1
  V  V23  1  0.12856576  0.37466727  0.88912229  1
  V  V24  1  0.12615052  0.62579993  0.88817670  1
  V  V25  1  0.88471873  0.87804360  0.38730211  1
  V  V26  1  0.87408468  0.37538922  0.63934475  1
  V  V27  1  0.12555551  0.12241997  0.39021189  1
  V  V28  1  0.87660602  0.37488563  0.38783943  1
  V  V29  1  0.63887600  0.87901883  0.38576286  1
  V  V30  1  0.37282007  0.37374637  0.38562122  1
  V  V31  1  0.62491812  0.87575639  0.63766470  1
  Fe  Fe32  1  0.12394444  0.12698660  0.12726803  1
  Fe  Fe33  1  0.87339788  0.12756177  0.88081784  1
  Fe  Fe34  1  0.87528523  0.62769426  0.64210852  1
  Fe  Fe35  1  0.87415724  0.37794192  0.88821409  1
  Fe  Fe36  1  0.37421454  0.12557011  0.38181377  1
  Fe  Fe37  1  0.37538306  0.87768831  0.63608870  1
  Fe  Fe38  1  0.12560439  0.12806698  0.63932919  1
  Fe  Fe39  1  0.37521287  0.12226963  0.63370139  1
  Fe  Fe40  1  0.37694957  0.87000694  0.13442879  1
  Fe  Fe41  1  0.12543426  0.37827170  0.13429655  1
  Fe  Fe42  1  0.87301349  0.62369375  0.88224457  1
  Fe  Fe43  1  0.12526762  0.37902579  0.63242590  1
  Fe  Fe44  1  0.12534765  0.87697485  0.38442229  1
  Fe  Fe45  1  0.62516158  0.37693945  0.14190811  1
  Fe  Fe46  1  0.62580866  0.12194180  0.38242446  1
  Fe  Fe47  1  0.12659902  0.87202835  0.88403250  1
  Fe  Fe48  1  0.37694390  0.62256553  0.88597551  1
  Fe  Fe49  1  0.87533225  0.37512905  0.13158819  1
  Fe  Fe50  1  0.37298121  0.62376940  0.38351756  1
  Fe  Fe51  1  0.12637585  0.12326343  0.88922568  1
  Fe  Fe52  1  0.87572126  0.87308112  0.13325270  1
  Fe  Fe53  1  0.62473910  0.37567412  0.63216490  1
  Fe  Fe54  1  0.62735387  0.87178533  0.13124914  1
  Fe  Fe55  1  0.87453322  0.12354573  0.64782897  1
  Fe  Fe56  1  0.12236199  0.37345020  0.39243893  1
  Fe  Fe57  1  0.37182425  0.12389466  0.13560262  1
  Fe  Fe58  1  0.62662385  0.12542686  0.12748810  1
  Fe  Fe59  1  0.62336434  0.12461342  0.89707222  1
  Fe  Fe60  1  0.87619432  0.62520138  0.38618125  1
  Fe  Fe61  1  0.62570593  0.62544544  0.63117551  1
  Fe  Fe62  1  0.62585242  0.37249673  0.38300410  1
  Fe  Fe63  1  0.62510052  0.62773863  0.38935584  1
  Pb  Pb64  1  0.00269924  0.00276367  -0.00787507  1
  Pb  Pb65  1  0.00514495  -0.00476190  0.24454434  1
  Pb  Pb66  1  0.00229473  0.01195828  0.50920143  1
  Pb  Pb67  1  0.00595163  0.01107936  0.75664934  1
  Pb  Pb68  1  -0.00229394  0.25073349  -0.00723029  1
  Pb  Pb69  1  0.00673596  0.25582667  0.24327590  1
  Pb  Pb70  1  0.00264844  0.24263376  0.50649831  1
  Pb  Pb71  1  0.00219570  0.24859891  0.74939572  1
  Pb  Pb72  1  -0.00073105  0.49274328  0.00042239  1
  Pb  Pb73  1  0.00272839  0.49254329  0.25273790  1
  Pb  Pb74  1  -0.00146669  0.49700333  0.50114267  1
  Pb  Pb75  1  -0.01288507  0.49607996  0.75491459  1
  Pb  Pb76  1  -0.00646916  0.75237527  -0.00100693  1
  Pb  Pb77  1  -0.00112194  0.74663402  0.25281320  1
  Pb  Pb78  1  -0.00531370  0.74477296  0.50331846  1
  Pb  Pb79  1  0.00499637  0.75525342  0.75439853  1
  Pb  Pb80  1  0.25008209  0.00604403  0.00309145  1
  Pb  Pb81  1  0.25823813  0.00621698  0.24705585  1
  Pb  Pb82  1  0.25758173  0.00061456  0.50382516  1
  Pb  Pb83  1  0.24662613  0.00403715  0.75123582  1
  Pb  Pb84  1  0.24998490  0.24192607  0.00507260  1
  Pb  Pb85  1  0.24793389  0.24706706  0.24552378  1
  Pb  Pb86  1  0.24504171  0.24318481  0.50027422  1
  Pb  Pb87  1  0.24453217  0.24505744  0.74721220  1
  Pb  Pb88  1  0.24600019  0.49483043  0.00101251  1
  Pb  Pb89  1  0.24942952  0.49752488  0.25370505  1
  Pb  Pb90  1  0.24599688  0.49382661  0.49878891  1
  Pb  Pb91  1  0.25793857  0.50609079  0.74839232  1
  Pb  Pb92  1  0.25582693  0.75111170  -0.00001883  1
  Pb  Pb93  1  0.24684811  0.75360258  0.25209558  1
  Pb  Pb94  1  0.25409654  0.75776380  0.49969064  1
  Pb  Pb95  1  0.24863090  0.75262232  0.75178256  1
  Pb  Pb96  1  0.49084346  -0.00224753  0.00770485  1
  Pb  Pb97  1  0.50151352  0.00280431  0.23726970  1
  Pb  Pb98  1  0.49053736  0.00180141  0.49582973  1
  Pb  Pb99  1  0.50183374  0.00285648  0.75147707  1
  Pb  Pb100  1  0.50963609  0.25081510  0.00959536  1
  Pb  Pb101  1  0.51036193  0.23865086  0.24765619  1
  Pb  Pb102  1  0.50279883  0.24811067  0.49187793  1
  Pb  Pb103  1  0.50952377  0.24326397  0.75306724  1
  Pb  Pb104  1  0.50460654  0.49422704  0.00404072  1
  Pb  Pb105  1  0.50240902  0.50620232  0.25717823  1
  Pb  Pb106  1  0.50661698  0.50022589  0.49430697  1
  Pb  Pb107  1  0.49990773  0.50357776  0.74293387  1
  Pb  Pb108  1  0.49876329  0.75609675  0.00529107  1
  Pb  Pb109  1  0.50209372  0.74478144  0.25211679  1
  Pb  Pb110  1  0.49988634  0.74992314  0.49522436  1
  Pb  Pb111  1  0.49534205  0.74628135  0.74699860  1
  Pb  Pb112  1  0.74592326  -0.00011926  -0.00070151  1
  Pb  Pb113  1  0.74738054  0.00099599  0.23741350  1
  Pb  Pb114  1  0.76061604  0.00966013  0.50460179  1
  Pb  Pb115  1  0.74549985  0.01083935  0.75899995  1
  Pb  Pb116  1  0.74859728  0.24729302  -0.00191207  1
  Pb  Pb117  1  0.74359802  0.25031000  0.24547531  1
  Pb  Pb118  1  0.74609163  0.25367008  0.49806684  1
  Pb  Pb119  1  0.75788073  0.25228167  0.75489538  1
  Pb  Pb120  1  0.75451452  0.49364717  0.00082601  1
  Pb  Pb121  1  0.74555768  0.49629119  0.25312641  1
  Pb  Pb122  1  0.74184804  0.50292895  0.49813494  1
  Pb  Pb123  1  0.75250356  0.50093983  0.74779507  1
  Pb  Pb124  1  0.75055359  0.75652469  0.00380506  1
  Pb  Pb125  1  0.75301006  0.74077950  0.25209155  1
  Pb  Pb126  1  0.75355124  0.73640388  0.50614726  1
  Pb  Pb127  1  0.75025835  0.74520016  0.74918488  1
  O  O128  1  0.12282344  -0.00880271  0.15195055  1
  O  O129  1  0.12227999  0.00622737  0.41405010  1
  O  O130  1  0.12301493  -0.00727997  0.66371157  1
  O  O131  1  0.12645599  -0.00460156  0.91203312  1
  O  O132  1  0.12489926  0.25180781  0.15866383  1
  O  O133  1  0.12004890  0.24266338  0.41573762  1
  O  O134  1  0.12647659  0.25644013  0.66473243  1
  O  O135  1  0.12883888  0.25800469  0.90889065  1
  O  O136  1  0.12430811  0.50825222  0.16576850  1
  O  O137  1  0.12097065  0.50764793  0.41622594  1
  O  O138  1  0.12840161  0.50723358  0.66201651  1
  O  O139  1  0.13050096  0.50198665  0.91270330  1
  O  O140  1  0.12299949  0.74375642  0.16549648  1
  O  O141  1  0.12429271  0.74547313  0.41540013  1
  O  O142  1  0.12533158  0.74808091  0.66728647  1
  O  O143  1  0.12700910  0.74367360  0.91368778  1
  O  O144  1  0.37129968  -0.00511213  0.16090184  1
  O  O145  1  0.36867115  -0.00454122  0.41014441  1
  O  O146  1  0.37644394  -0.00034011  0.67005497  1
  O  O147  1  0.37623352  -0.00350549  0.91480626  1
  O  O148  1  0.37047400  0.25856905  0.15866835  1
  O  O149  1  0.37107920  0.25541011  0.41046352  1
  O  O150  1  0.37561549  0.25373887  0.65885542  1
  O  O151  1  0.37474568  0.24927986  0.91500268  1
  O  O152  1  0.37393516  0.50129328  0.17001507  1
  O  O153  1  0.37318699  0.49348025  0.41216973  1
  O  O154  1  0.37543555  0.50186753  0.66211851  1
  O  O155  1  0.37586271  0.49578721  0.91467618  1
  O  O156  1  0.37319219  0.74420897  0.16745084  1
  O  O157  1  0.36972953  0.75481078  0.41140105  1
  O  O158  1  0.37393533  0.74951489  0.66377840  1
  O  O159  1  0.37748851  0.75210111  0.91438095  1
  O  O160  1  0.62893912  0.00004402  0.15342876  1
  O  O161  1  0.62161216  -0.00901916  0.41417120  1
  O  O162  1  0.62571704  0.00164552  0.66788356  1
  O  O163  1  0.62384046  -0.00586993  0.91770156  1
  O  O164  1  0.62616224  0.24922292  0.16147248  1
  O  O165  1  0.62727400  0.24759994  0.41368880  1
  O  O166  1  0.62418177  0.24476114  0.66263253  1
  O  O167  1  0.61992619  0.25883480  0.91497072  1
  O  O168  1  0.62570945  0.50733371  0.16819836  1
  O  O169  1  0.62610293  0.49832870  0.41108442  1
  O  O170  1  0.62249170  0.50002862  0.66047082  1
  O  O171  1  0.61956102  0.49834074  0.91291317  1
  O  O172  1  0.62690448  0.74068230  0.16341563  1
  O  O173  1  0.62277213  0.76611627  0.41486292  1
  O  O174  1  0.62662005  0.75658603  0.66300521  1
  O  O175  1  0.62290080  0.74490331  0.91421287  1
  O  O176  1  0.87916996  0.00403958  0.15829799  1
  O  O177  1  0.87665674  -0.00351158  0.41691819  1
  O  O178  1  0.87587086  -0.00914961  0.67222818  1
  O  O179  1  0.87273142  -0.00892599  0.90904811  1
  O  O180  1  0.88024647  0.24322092  0.15561297  1
  O  O181  1  0.87589443  0.24936427  0.41436359  1
  O  O182  1  0.87369078  0.25599752  0.66425317  1
  O  O183  1  0.87558240  0.25287840  0.91019568  1
  O  O184  1  0.87601997  0.50838021  0.16479507  1
  O  O185  1  0.87662185  0.49368369  0.40914485  1
  O  O186  1  0.87470604  0.49657770  0.66241685  1
  O  O187  1  0.87328922  0.50325108  0.91702274  1
  O  O188  1  0.87743480  0.74157425  0.16563343  1
  O  O189  1  0.87535720  0.76281743  0.41260849  1
  O  O190  1  0.87527251  0.75926809  0.66891842  1
  O  O191  1  0.87308502  0.74958917  0.91270629  1
  O  O192  1  -0.00180990  0.12235140  0.15886128  1
  O  O193  1  -0.00087426  0.12312837  0.41916020  1
  O  O194  1  0.00080326  0.12451727  0.66954725  1
  O  O195  1  -0.00158250  0.12368556  0.90958956  1
  O  O196  1  -0.00114039  0.37995730  0.16538012  1
  O  O197  1  -0.00753877  0.37278168  0.41867817  1
  O  O198  1  -0.00514599  0.37767520  0.66166506  1
  O  O199  1  0.00949517  0.38098022  0.90887979  1
  O  O200  1  0.00240001  0.62514085  0.16213399  1
  O  O201  1  0.00315042  0.62836900  0.41748675  1
  O  O202  1  0.00711179  0.62747280  0.66397485  1
  O  O203  1  0.00824744  0.62271372  0.90976112  1
  O  O204  1  0.00518655  0.86873873  0.16363103  1
  O  O205  1  -0.00197413  0.87723182  0.41483407  1
  O  O206  1  0.00094586  0.87198256  0.66638228  1
  O  O207  1  -0.00554485  0.86926323  0.90956565  1
  O  O208  1  0.24524273  0.12434194  0.16338299  1
  O  O209  1  0.24301598  0.12654046  0.40960538  1
  O  O210  1  0.25110082  0.12394888  0.66634170  1
  O  O211  1  0.25774125  0.12411169  0.91441948  1
  O  O212  1  0.25539011  0.38221969  0.16550457  1
  O  O213  1  0.25247719  0.37501814  0.41440304  1
  O  O214  1  0.25869280  0.37968022  0.66258712  1
  O  O215  1  0.25046893  0.37689901  0.91496813  1
  O  O216  1  0.24398187  0.62508152  0.16558474  1
  O  O217  1  0.24351296  0.62427341  0.41291031  1
  O  O218  1  0.24700427  0.62780220  0.66465952  1
  O  O219  1  0.24653337  0.62481919  0.91501207  1
  O  O220  1  0.24098841  0.86542978  0.15927048  1
  O  O221  1  0.25109276  0.87489825  0.41459075  1
  O  O222  1  0.24313923  0.87295022  0.66449153  1
  O  O223  1  0.25654990  0.87089857  0.91285875  1
  O  O224  1  0.49894960  0.12574410  0.15452375  1
  O  O225  1  0.49932301  0.12239461  0.41006443  1
  O  O226  1  0.50579047  0.12397838  0.66566174  1
  O  O227  1  0.49178352  0.12369757  0.92013820  1
  O  O228  1  0.49097637  0.37988948  0.16586070  1
  O  O229  1  0.49251656  0.37329368  0.40718334  1
  O  O230  1  0.49268255  0.37592543  0.66276745  1
  O  O231  1  0.49951599  0.37551095  0.91766859  1
  O  O232  1  0.50327184  0.62380455  0.16504414  1
  O  O233  1  0.49738946  0.62902859  0.41538131  1
  O  O234  1  0.49732829  0.62883679  0.66080107  1
  O  O235  1  0.50606300  0.62349294  0.91744263  1
  O  O236  1  0.50276099  0.86979379  0.16208964  1
  O  O237  1  0.48981962  0.87595142  0.40696690  1
  O  O238  1  0.50603323  0.87653971  0.66333791  1
  O  O239  1  0.49687560  0.87304930  0.91830735  1
  O  O240  1  0.76040233  0.12477292  0.15420525  1
  O  O241  1  0.75402916  0.12010135  0.41602079  1
  O  O242  1  0.74250911  0.12331416  0.66759795  1
  O  O243  1  0.75136999  0.12467928  0.91498279  1
  O  O244  1  0.75338001  0.37850783  0.16418139  1
  O  O245  1  0.75945242  0.37199026  0.41156208  1
  O  O246  1  0.75406066  0.37491149  0.66301838  1
  O  O247  1  0.73971057  0.37804878  0.91047363  1
  O  O248  1  0.75104600  0.62447785  0.16230544  1
  O  O249  1  0.75234553  0.63038266  0.41552165  1
  O  O250  1  0.74944839  0.62830528  0.66459299  1
  O  O251  1  0.73918306  0.62177571  0.91223653  1
  O  O252  1  0.75256640  0.87030189  0.16414556  1
  O  O253  1  0.75266863  0.88069140  0.40313212  1
  O  O254  1  0.75152007  0.87725668  0.66726475  1
  O  O255  1  0.75200817  0.87010464  0.91461375  1
  O  O256  1  0.13134189  0.12631418  0.02647777  1
  O  O257  1  0.12002421  0.12304071  0.29918846  1
  O  O258  1  0.11868744  0.12747802  0.53856233  1
  O  O259  1  0.13019585  0.12488091  0.78757993  1
  O  O260  1  0.12669905  0.38547592  0.03456249  1
  O  O261  1  0.11842006  0.37863362  0.29254876  1
  O  O262  1  0.12511135  0.38015901  0.53202673  1
  O  O263  1  0.13113602  0.37932287  0.79837518  1
  O  O264  1  0.12575863  0.62557562  0.04857375  1
  O  O265  1  0.12227321  0.62764408  0.29915232  1
  O  O266  1  0.12363469  0.62788296  0.54915202  1
  O  O267  1  0.12880790  0.62573225  0.79706596  1
  O  O268  1  0.12167344  0.86543578  0.04575455  1
  O  O269  1  0.12421214  0.87444754  0.28567770  1
  O  O270  1  0.12324711  0.87236014  0.55268521  1
  O  O271  1  0.12601556  0.86589942  0.78452349  1
  O  O272  1  0.36385479  0.12235760  0.03433104  1
  O  O273  1  0.36774971  0.12264694  0.28163624  1
  O  O274  1  0.37181028  0.11642725  0.53369402  1
  O  O275  1  0.37998707  0.12773997  0.80323082  1
  O  O276  1  0.37540589  0.38076845  0.04898527  1
  O  O277  1  0.36829166  0.37548639  0.29491504  1
  O  O278  1  0.37514660  0.37322186  0.54577092  1
  O  O279  1  0.37705790  0.37372240  0.79719059  1
  O  O280  1  0.37384951  0.62237236  0.05356492  1
  O  O281  1  0.37797082  0.62302345  0.28430058  1
  O  O282  1  0.37221726  0.62680914  0.54557434  1
  O  O283  1  0.37730789  0.62307918  0.78666354  1
  O  O284  1  0.37825064  0.86792590  0.03403442  1
  O  O285  1  0.36838526  0.87362301  0.29498661  1
  O  O286  1  0.36818411  0.88118168  0.53654686  1
  O  O287  1  0.37761655  0.87483129  0.80200636  1
  O  O288  1  0.62710096  0.13344151  0.02563257  1
  O  O289  1  0.62761910  0.12750662  0.28265335  1
  O  O290  1  0.62613854  0.12168882  0.54997791  1
  O  O291  1  0.61810351  0.12669135  0.79596981  1
  O  O292  1  0.61586826  0.37874809  0.04123424  1
  O  O293  1  0.63141630  0.37283096  0.28218545  1
  O  O294  1  0.62661831  0.37250053  0.53255369  1
  O  O295  1  0.61862921  0.37467871  0.79898849  1
  O  O296  1  0.62406545  0.62137204  0.05044244  1
  O  O297  1  0.62326005  0.63019641  0.28884165  1
  O  O298  1  0.62949594  0.62864100  0.53047324  1
  O  O299  1  0.61951552  0.62696063  0.79817305  1
  O  O300  1  0.62844395  0.86404491  0.03024757  1
  O  O301  1  0.62956208  0.87806662  0.29478237  1
  O  O302  1  0.62825303  0.87914179  0.54726048  1
  O  O303  1  0.62273828  0.87233029  0.80416456  1
  O  O304  1  0.88144723  0.12461798  0.04036228  1
  O  O305  1  0.87799645  0.12404108  0.29823917  1
  O  O306  1  0.87495758  0.11333070  0.54661107  1
  O  O307  1  0.86749946  0.12632886  0.77859867  1
  O  O308  1  0.87806639  0.38361242  0.03098959  1
  O  O309  1  0.88047375  0.37194953  0.29679076  1
  O  O310  1  0.87333187  0.37550900  0.54836875  1
  O  O311  1  0.87255919  0.38388721  0.78731533  1
  O  O312  1  0.87540003  0.62420891  0.05046602  1
  O  O313  1  0.87615636  0.63263815  0.28688161  1
  O  O314  1  0.87605570  0.63711770  0.54099214  1
  O  O315  1  0.87281050  0.61913713  0.78196855  1
  O  O316  1  0.87613573  0.86426005  0.03391865  1
  O  O317  1  0.88728152  0.87972712  0.29609768  1
  O  O318  1  0.87242922  0.87884425  0.55303851  1
  O  O319  1  0.87170234  0.87084685  0.79846238  1
