# generated using pymatgen
data_VFe(PbO3)2
_symmetry_space_group_name_H-M   'P 1'
_cell_length_a   15.38175234
_cell_length_b   15.39493575
_cell_length_c   18.49396081
_cell_angle_alpha   90.04617939
_cell_angle_beta   89.98230288
_cell_angle_gamma   89.99342966
_symmetry_Int_Tables_number   1
_chemical_formula_structural   VFe(PbO3)2
_chemical_formula_sum   'V32 Fe32 Pb64 O192'
_cell_volume   4379.38839829
_cell_formula_units_Z   32
loop_
 _symmetry_equiv_pos_site_id
 _symmetry_equiv_pos_as_xyz
  1  'x, y, z'
loop_
 _atom_site_type_symbol
 _atom_site_label
 _atom_site_symmetry_multiplicity
 _atom_site_fract_x
 _atom_site_fract_y
 _atom_site_fract_z
 _atom_site_occupancy
  V  V0  1  0.38117946  0.12632740  0.65335472  1
  V  V1  1  0.62575813  0.87601659  0.13830283  1
  V  V2  1  0.12431685  0.12320816  0.13613079  1
  V  V3  1  0.87522859  0.38126664  0.89452307  1
  V  V4  1  0.87354106  0.62432231  0.63577622  1
  V  V5  1  0.62509834  0.62310651  0.63430790  1
  V  V6  1  0.37065690  0.62160249  0.89168835  1
  V  V7  1  0.12523449  0.37753093  0.89029595  1
  V  V8  1  0.11913276  0.62450887  0.89373831  1
  V  V9  1  0.12375672  0.87540647  0.13547286  1
  V  V10  1  0.12666092  0.87633962  0.39395468  1
  V  V11  1  0.62767388  0.87610844  0.64023218  1
  V  V12  1  0.87221650  0.62503755  0.89361257  1
  V  V13  1  0.12771542  0.12313459  0.39500776  1
  V  V14  1  0.12709588  0.62479301  0.39007890  1
  V  V15  1  0.62067899  0.12304228  0.39594343  1
  V  V16  1  0.12487020  0.37491958  0.63819621  1
  V  V17  1  0.62588662  0.37551293  0.63865459  1
  V  V18  1  0.12608160  0.12592463  0.64564969  1
  V  V19  1  0.62583861  0.12534137  0.13686577  1
  V  V20  1  0.87394526  0.37702733  0.63441216  1
  V  V21  1  0.87430119  0.87455652  0.88693556  1
  V  V22  1  0.62646971  0.37386874  0.13930986  1
  V  V23  1  0.62309369  0.37256714  0.38606062  1
  V  V24  1  0.87195840  0.87778047  0.39247027  1
  V  V25  1  0.62354303  0.62505685  0.89662161  1
  V  V26  1  0.12557822  0.37519032  0.13941523  1
  V  V27  1  0.37421872  0.87661621  0.39590724  1
  V  V28  1  0.37280469  0.12300927  0.39257428  1
  V  V29  1  0.87484685  0.12272647  0.13970021  1
  V  V30  1  0.37397998  0.37298744  0.39238216  1
  V  V31  1  0.62659896  0.37677494  0.89129355  1
  Fe  Fe32  1  0.62207641  0.87960033  0.38526256  1
  Fe  Fe33  1  0.87641303  0.12319561  0.39659699  1
  Fe  Fe34  1  0.12260060  0.87155339  0.64303530  1
  Fe  Fe35  1  0.37415419  0.87767824  0.13064903  1
  Fe  Fe36  1  0.37671258  0.37938589  0.89575686  1
  Fe  Fe37  1  0.37283883  0.62680033  0.13329711  1
  Fe  Fe38  1  0.62378092  0.62522304  0.14067312  1
  Fe  Fe39  1  0.37538318  0.12693911  0.87699653  1
  Fe  Fe40  1  0.62698626  0.86982132  0.88244918  1
  Fe  Fe41  1  0.87607193  0.87848502  0.13545097  1
  Fe  Fe42  1  0.12005984  0.12652426  0.87925273  1
  Fe  Fe43  1  0.87632375  0.12722113  0.63109746  1
  Fe  Fe44  1  0.12469225  0.61941797  0.63263158  1
  Fe  Fe45  1  0.87752211  0.62790274  0.14309084  1
  Fe  Fe46  1  0.62952020  0.12543815  0.87609372  1
  Fe  Fe47  1  0.37514846  0.12399728  0.12999999  1
  Fe  Fe48  1  0.62183674  0.62946826  0.37901399  1
  Fe  Fe49  1  0.87530343  0.12999694  0.88310780  1
  Fe  Fe50  1  0.62694403  0.12813343  0.64646481  1
  Fe  Fe51  1  0.37384038  0.62698846  0.39294271  1
  Fe  Fe52  1  0.37637331  0.37034165  0.12739227  1
  Fe  Fe53  1  0.37638679  0.62257077  0.62888164  1
  Fe  Fe54  1  0.12626495  0.62843369  0.13186132  1
  Fe  Fe55  1  0.12893778  0.37154598  0.38212260  1
  Fe  Fe56  1  0.12304198  0.87083235  0.87693096  1
  Fe  Fe57  1  0.87358450  0.37080650  0.14512530  1
  Fe  Fe58  1  0.87641235  0.62684911  0.37906505  1
  Fe  Fe59  1  0.87347357  0.87406994  0.63151617  1
  Fe  Fe60  1  0.37539933  0.37449969  0.63582733  1
  Fe  Fe61  1  0.37645194  0.87418607  0.64430946  1
  Fe  Fe62  1  0.87809816  0.37224261  0.37890695  1
  Fe  Fe63  1  0.37641776  0.87105637  0.87739304  1
  Pb  Pb64  1  0.00349698  0.00093370  -0.01031548  1
  Pb  Pb65  1  -0.00605892  0.00718715  0.25412926  1
  Pb  Pb66  1  0.00026675  -0.01024228  0.50833695  1
  Pb  Pb67  1  -0.00321255  0.00222452  0.74543762  1
  Pb  Pb68  1  -0.00487559  0.25845695  0.00177009  1
  Pb  Pb69  1  0.00104487  0.25296811  0.25515250  1
  Pb  Pb70  1  -0.00499514  0.25061249  0.49589454  1
  Pb  Pb71  1  -0.00361464  0.24482687  0.75197809  1
  Pb  Pb72  1  -0.00218897  0.50775906  0.01042651  1
  Pb  Pb73  1  -0.00297973  0.49951215  0.24689382  1
  Pb  Pb74  1  0.00245437  0.50026350  0.48967272  1
  Pb  Pb75  1  -0.00078300  0.49770022  0.74862188  1
  Pb  Pb76  1  -0.00975866  0.75095951  0.00645739  1
  Pb  Pb77  1  -0.00301971  0.74835477  0.24800440  1
  Pb  Pb78  1  0.00073985  0.75639912  0.50361571  1
  Pb  Pb79  1  0.00455290  0.75424460  0.74661853  1
  Pb  Pb80  1  0.25450042  -0.00044402  -0.01865559  1
  Pb  Pb81  1  0.25280204  -0.00046219  0.24441003  1
  Pb  Pb82  1  0.25260186  -0.00961849  0.51442000  1
  Pb  Pb83  1  0.24801540  -0.00805761  0.75401132  1
  Pb  Pb84  1  0.25994769  0.24368526  -0.00405914  1
  Pb  Pb85  1  0.24695424  0.25201781  0.24666888  1
  Pb  Pb86  1  0.25564734  0.25082205  0.50639449  1
  Pb  Pb87  1  0.25138588  0.24706186  0.75804989  1
  Pb  Pb88  1  0.24839153  0.50864892  0.00581080  1
  Pb  Pb89  1  0.25852452  0.50269271  0.24586565  1
  Pb  Pb90  1  0.24969357  0.50927815  0.50371463  1
  Pb  Pb91  1  0.25675562  0.49990651  0.74660098  1
  Pb  Pb92  1  0.25712665  0.75621910  -0.00231051  1
  Pb  Pb93  1  0.25945352  0.74275883  0.24980783  1
  Pb  Pb94  1  0.24057690  0.75182652  0.50983485  1
  Pb  Pb95  1  0.25108797  0.74954252  0.74073735  1
  Pb  Pb96  1  0.49551549  -0.00048442  -0.01645795  1
  Pb  Pb97  1  0.50294769  -0.00448311  0.24749407  1
  Pb  Pb98  1  0.49393405  -0.00189953  0.51092046  1
  Pb  Pb99  1  0.50369690  -0.01142789  0.75752227  1
  Pb  Pb100  1  0.49144318  0.24334129  -0.00493420  1
  Pb  Pb101  1  0.49659427  0.24918891  0.24456821  1
  Pb  Pb102  1  0.49710381  0.25165156  0.50724251  1
  Pb  Pb103  1  0.48972815  0.25502109  0.75891986  1
  Pb  Pb104  1  0.50349292  0.50943293  0.00915656  1
  Pb  Pb105  1  0.49498594  0.51013536  0.24864926  1
  Pb  Pb106  1  0.49317397  0.50106857  0.49848777  1
  Pb  Pb107  1  0.49241085  0.49627838  0.75090714  1
  Pb  Pb108  1  0.49361781  0.75397794  0.00186180  1
  Pb  Pb109  1  0.49908700  0.74553407  0.24815362  1
  Pb  Pb110  1  0.49773860  0.74692172  0.49756761  1
  Pb  Pb111  1  0.49913360  0.75122636  0.74761751  1
  Pb  Pb112  1  0.74682465  0.00157526  -0.00944856  1
  Pb  Pb113  1  0.74712780  -0.00110650  0.25394799  1
  Pb  Pb114  1  0.74726850  0.01292399  0.51051992  1
  Pb  Pb115  1  0.75534690  0.00959313  0.74750471  1
  Pb  Pb116  1  0.75508420  0.25697112  0.00030727  1
  Pb  Pb117  1  0.76137349  0.24326519  0.25754322  1
  Pb  Pb118  1  0.74913317  0.24243015  0.50326268  1
  Pb  Pb119  1  0.75343561  0.24306523  0.75049886  1
  Pb  Pb120  1  0.75023010  0.50882661  0.01218569  1
  Pb  Pb121  1  0.75466111  0.50814334  0.24817749  1
  Pb  Pb122  1  0.75257966  0.50271565  0.48569131  1
  Pb  Pb123  1  0.74706411  0.49977140  0.74945843  1
  Pb  Pb124  1  0.75813874  0.74862807  0.00863322  1
  Pb  Pb125  1  0.74922766  0.74751230  0.24844104  1
  Pb  Pb126  1  0.74971874  0.75203121  0.49136557  1
  Pb  Pb127  1  0.74416383  0.75343468  0.74969129  1
  O  O128  1  0.12341885  0.00519224  0.16437869  1
  O  O129  1  0.12834266  0.00192438  0.42205867  1
  O  O130  1  0.12263481  0.00830639  0.66127225  1
  O  O131  1  0.11984087  -0.00264825  0.90470213  1
  O  O132  1  0.12343430  0.24189437  0.16281787  1
  O  O133  1  0.13006301  0.24134261  0.41684421  1
  O  O134  1  0.12167025  0.25906566  0.66526299  1
  O  O135  1  0.11862951  0.26253383  0.90888592  1
  O  O136  1  0.12594200  0.49118193  0.15707192  1
  O  O137  1  0.12845075  0.50434220  0.40777829  1
  O  O138  1  0.12036826  0.49285403  0.66633117  1
  O  O139  1  0.12178523  0.50214654  0.92201114  1
  O  O140  1  0.12430940  0.75972491  0.15532704  1
  O  O141  1  0.12899055  0.75053164  0.41708302  1
  O  O142  1  0.12294939  0.74235651  0.66294744  1
  O  O143  1  0.12431072  0.74042534  0.90873728  1
  O  O144  1  0.37342498  0.00133038  0.16332775  1
  O  O145  1  0.37283795  0.00107072  0.42448741  1
  O  O146  1  0.37427337  0.00886736  0.66980661  1
  O  O147  1  0.37606973  -0.00031116  0.89819372  1
  O  O148  1  0.37592385  0.24713204  0.16362965  1
  O  O149  1  0.37569173  0.24674191  0.42094446  1
  O  O150  1  0.37385222  0.25076224  0.66906400  1
  O  O151  1  0.37532787  0.25265944  0.90954996  1
  O  O152  1  0.37354386  0.49493328  0.15840943  1
  O  O153  1  0.37733719  0.48969836  0.40888332  1
  O  O154  1  0.37822808  0.49816184  0.66509690  1
  O  O155  1  0.37783937  0.50727489  0.91902048  1
  O  O156  1  0.37348996  0.75540088  0.16496207  1
  O  O157  1  0.37312358  0.75968616  0.41383344  1
  O  O158  1  0.37730925  0.74563776  0.65881248  1
  O  O159  1  0.37635863  0.73990455  0.90999174  1
  O  O160  1  0.62637988  0.00487570  0.16491659  1
  O  O161  1  0.62164660  0.00584432  0.42001978  1
  O  O162  1  0.62722307  -0.00754860  0.66193507  1
  O  O163  1  0.62926738  -0.00222804  0.90618299  1
  O  O164  1  0.62638523  0.24271535  0.16322481  1
  O  O165  1  0.61986482  0.24701158  0.41781365  1
  O  O166  1  0.62933143  0.26160029  0.66244937  1
  O  O167  1  0.63262515  0.26090370  0.90651848  1
  O  O168  1  0.62440290  0.48962107  0.16175700  1
  O  O169  1  0.61883390  0.48889170  0.40509468  1
  O  O170  1  0.62822671  0.49809522  0.66561874  1
  O  O171  1  0.62852393  0.50308431  0.92326110  1
  O  O172  1  0.62417935  0.75945911  0.15730296  1
  O  O173  1  0.62166628  0.75479390  0.41234905  1
  O  O174  1  0.62764743  0.74752742  0.66164245  1
  O  O175  1  0.62821563  0.74093103  0.91609796  1
  O  O176  1  0.87529909  0.00323819  0.16877032  1
  O  O177  1  0.87903421  -0.00652995  0.41787417  1
  O  O178  1  0.87610718  0.00081426  0.65644154  1
  O  O179  1  0.87498468  -0.00825014  0.90320571  1
  O  O180  1  0.87411405  0.24020150  0.16842178  1
  O  O181  1  0.87481558  0.25060505  0.41475505  1
  O  O182  1  0.87444860  0.25880088  0.65735568  1
  O  O183  1  0.87480396  0.25940471  0.91442177  1
  O  O184  1  0.87653171  0.49763869  0.16312590  1
  O  O185  1  0.87488379  0.49901533  0.40608104  1
  O  O186  1  0.87109888  0.50165162  0.66579520  1
  O  O187  1  0.87516360  0.50357637  0.92372056  1
  O  O188  1  0.87670119  0.75720857  0.16877029  1
  O  O189  1  0.87822413  0.75576342  0.41087256  1
  O  O190  1  0.87052685  0.73902475  0.65870600  1
  O  O191  1  0.87462603  0.74742926  0.91826116  1
  O  O192  1  0.00217993  0.12285326  0.16453864  1
  O  O193  1  0.01054315  0.12207016  0.41754758  1
  O  O194  1  0.00409367  0.13266638  0.66103758  1
  O  O195  1  -0.00264616  0.12812260  0.91569271  1
  O  O196  1  0.00783142  0.36651135  0.16420177  1
  O  O197  1  0.00435784  0.37277867  0.41044231  1
  O  O198  1  -0.00179776  0.37935381  0.66303011  1
  O  O199  1  0.00058328  0.38295010  0.92073104  1
  O  O200  1  0.00603488  0.62565462  0.16673413  1
  O  O201  1  0.00724062  0.62737833  0.40954858  1
  O  O202  1  -0.01010907  0.61916455  0.65815761  1
  O  O203  1  0.00047597  0.62278375  0.91640556  1
  O  O204  1  0.00811238  0.88220588  0.16475243  1
  O  O205  1  0.00267504  0.87545312  0.41774243  1
  O  O206  1  -0.00457473  0.87114964  0.66489942  1
  O  O207  1  -0.00723031  0.86716913  0.90898623  1
  O  O208  1  0.24224086  0.12418307  0.15852592  1
  O  O209  1  0.25022812  0.12284778  0.42310824  1
  O  O210  1  0.24351686  0.13203712  0.67019076  1
  O  O211  1  0.24627889  0.12832308  0.90376625  1
  O  O212  1  0.24469034  0.36622537  0.15973096  1
  O  O213  1  0.25685608  0.36882642  0.41258312  1
  O  O214  1  0.24195418  0.37667253  0.65989042  1
  O  O215  1  0.24075867  0.38286980  0.90929271  1
  O  O216  1  0.24762875  0.62515175  0.16721325  1
  O  O217  1  0.24548739  0.62629506  0.41665671  1
  O  O218  1  0.25041906  0.61781098  0.66176856  1
  O  O219  1  0.25036003  0.62026777  0.90939740  1
  O  O220  1  0.24048216  0.88175318  0.16163597  1
  O  O221  1  0.25240058  0.87875486  0.42276766  1
  O  O222  1  0.24886845  0.87751020  0.66448251  1
  O  O223  1  0.24965720  0.86952511  0.90260359  1
  O  O224  1  0.50793924  0.12319371  0.15876756  1
  O  O225  1  0.49838420  0.12389844  0.42069123  1
  O  O226  1  0.49763215  0.12970290  0.66381712  1
  O  O227  1  0.50433783  0.12872535  0.90215869  1
  O  O228  1  0.50760689  0.36683268  0.16137328  1
  O  O229  1  0.49885807  0.36696806  0.41736852  1
  O  O230  1  0.50860216  0.37660403  0.66320383  1
  O  O231  1  0.51229780  0.38119202  0.91485061  1
  O  O232  1  0.49753839  0.62580164  0.16440031  1
  O  O233  1  0.49979854  0.62475533  0.41455098  1
  O  O234  1  0.50722198  0.62166110  0.65820083  1
  O  O235  1  0.50290038  0.62236443  0.91496547  1
  O  O236  1  0.50639132  0.88150137  0.16032116  1
  O  O237  1  0.49225969  0.88153353  0.41694318  1
  O  O238  1  0.50886395  0.87344926  0.66419158  1
  O  O239  1  0.50123995  0.86859367  0.90983519  1
  O  O240  1  0.74715079  0.12241752  0.16521042  1
  O  O241  1  0.74106303  0.12480665  0.41640786  1
  O  O242  1  0.75397168  0.12840152  0.66464290  1
  O  O243  1  0.75248475  0.12708368  0.91338280  1
  O  O244  1  0.74106212  0.36744205  0.16821273  1
  O  O245  1  0.73958016  0.36968287  0.40471379  1
  O  O246  1  0.74931669  0.38044289  0.66462849  1
  O  O247  1  0.74893223  0.38321049  0.92040817  1
  O  O248  1  0.74901187  0.62654240  0.16483172  1
  O  O249  1  0.74834615  0.62521280  0.40705195  1
  O  O250  1  0.75023097  0.62115696  0.66541306  1
  O  O251  1  0.74922970  0.62266092  0.92010079  1
  O  O252  1  0.74394921  0.88109307  0.16414002  1
  O  O253  1  0.75495881  0.87647742  0.40835807  1
  O  O254  1  0.74651211  0.87003513  0.66285843  1
  O  O255  1  0.75680608  0.86752859  0.91269565  1
  O  O256  1  0.12086920  0.12247089  0.04533304  1
  O  O257  1  0.13012828  0.12077546  0.30396651  1
  O  O258  1  0.13007767  0.13204107  0.55469086  1
  O  O259  1  0.11483860  0.13528219  0.77899309  1
  O  O260  1  0.12396347  0.36916498  0.04816594  1
  O  O261  1  0.13008698  0.36470068  0.28279309  1
  O  O262  1  0.12291339  0.37530395  0.54692153  1
  O  O263  1  0.11754187  0.38420398  0.79921405  1
  O  O264  1  0.12794077  0.62002409  0.03214296  1
  O  O265  1  0.13113345  0.62963087  0.29912808  1
  O  O266  1  0.12948648  0.61820540  0.53263149  1
  O  O267  1  0.11792954  0.61450044  0.80291407  1
  O  O268  1  0.12292134  0.88101017  0.04424670  1
  O  O269  1  0.12836173  0.87798982  0.30339877  1
  O  O270  1  0.12203136  0.87097750  0.53997982  1
  O  O271  1  0.11940984  0.87064953  0.77627820  1
  O  O272  1  0.37451932  0.13087196  0.02967614  1
  O  O273  1  0.37249138  0.12178083  0.30172217  1
  O  O274  1  0.37070037  0.12827133  0.56105957  1
  O  O275  1  0.37349168  0.13718589  0.77492439  1
  O  O276  1  0.37589154  0.36598736  0.02658238  1
  O  O277  1  0.37882090  0.36627601  0.30133851  1
  O  O278  1  0.37885622  0.37052528  0.53589777  1
  O  O279  1  0.38445208  0.38072729  0.79347309  1
  O  O280  1  0.37104879  0.63100722  0.03275373  1
  O  O281  1  0.36928939  0.62524750  0.29130437  1
  O  O282  1  0.37485357  0.61566801  0.52676443  1
  O  O283  1  0.37632025  0.61690162  0.80035829  1
  O  O284  1  0.37364036  0.86902744  0.03041337  1
  O  O285  1  0.37006655  0.88348849  0.30496417  1
  O  O286  1  0.37735390  0.88665239  0.54319057  1
  O  O287  1  0.38460655  0.87179559  0.77501172  1
  O  O288  1  0.62942480  0.12357214  0.04609958  1
  O  O289  1  0.61992415  0.12355901  0.30493466  1
  O  O290  1  0.63432100  0.12513963  0.54468971  1
  O  O291  1  0.63560071  0.12794250  0.77432580  1
  O  O292  1  0.62974960  0.37165877  0.04805973  1
  O  O293  1  0.61553262  0.36474226  0.29580762  1
  O  O294  1  0.62644813  0.37803741  0.54741660  1
  O  O295  1  0.62957550  0.38557386  0.80010879  1
  O  O296  1  0.62311725  0.61741586  0.03974967  1
  O  O297  1  0.61768086  0.62661834  0.27797235  1
  O  O298  1  0.62920575  0.62212366  0.54318414  1
  O  O299  1  0.62616592  0.61961694  0.80554940  1
  O  O300  1  0.62746664  0.88120396  0.04726127  1
  O  O301  1  0.62140213  0.88670765  0.28590633  1
  O  O302  1  0.62599997  0.87397298  0.54869973  1
  O  O303  1  0.62435975  0.86422635  0.78250339  1
  O  O304  1  0.87471669  0.12292457  0.04853690  1
  O  O305  1  0.87442370  0.12015183  0.29571816  1
  O  O306  1  0.86780497  0.12769533  0.52863859  1
  O  O307  1  0.87627829  0.13267002  0.78245238  1
  O  O308  1  0.87380776  0.36402542  0.04415197  1
  O  O309  1  0.87820889  0.36410508  0.27767137  1
  O  O310  1  0.87324363  0.38136318  0.54325156  1
  O  O311  1  0.87529999  0.38448494  0.80333444  1
  O  O312  1  0.87805948  0.63440056  0.04037779  1
  O  O313  1  0.87759856  0.62814443  0.27891506  1
  O  O314  1  0.86928199  0.61997575  0.54459169  1
  O  O315  1  0.87261477  0.62466595  0.80274527  1
  O  O316  1  0.87640314  0.86904158  0.03606375  1
  O  O317  1  0.87994578  0.88107254  0.30107090  1
  O  O318  1  0.87947503  0.86870698  0.53174910  1
  O  O319  1  0.87166509  0.86640768  0.79566653  1
