# generated using pymatgen
data_VFe(PbO3)2
_symmetry_space_group_name_H-M   'P 1'
_cell_length_a   15.38083850
_cell_length_b   15.38638356
_cell_length_c   18.53920217
_cell_angle_alpha   89.98028964
_cell_angle_beta   90.00190805
_cell_angle_gamma   89.98751607
_symmetry_Int_Tables_number   1
_chemical_formula_structural   VFe(PbO3)2
_chemical_formula_sum   'V32 Fe32 Pb64 O192'
_cell_volume   4387.40343296
_cell_formula_units_Z   32
loop_
 _symmetry_equiv_pos_site_id
 _symmetry_equiv_pos_as_xyz
  1  'x, y, z'
loop_
 _atom_site_type_symbol
 _atom_site_label
 _atom_site_symmetry_multiplicity
 _atom_site_fract_x
 _atom_site_fract_y
 _atom_site_fract_z
 _atom_site_occupancy
  V  V0  1  0.37792590  0.12438666  0.64476790  1
  V  V1  1  0.87984322  0.12495064  0.13739249  1
  V  V2  1  0.62554213  0.87073043  0.39040338  1
  V  V3  1  0.62568800  0.87519650  0.64318199  1
  V  V4  1  0.12699029  0.87118314  0.88538125  1
  V  V5  1  0.12465164  0.87590970  0.64076830  1
  V  V6  1  0.62639979  0.62663195  0.88867025  1
  V  V7  1  0.87396014  0.12442894  0.64584571  1
  V  V8  1  0.12686165  0.12540546  0.64978147  1
  V  V9  1  0.37564912  0.87452037  0.13599928  1
  V  V10  1  0.87546809  0.87387206  0.14139171  1
  V  V11  1  0.87469399  0.87495611  0.88719826  1
  V  V12  1  0.37599681  0.87547361  0.39087543  1
  V  V13  1  0.37178002  0.87521882  0.64754079  1
  V  V14  1  0.12437545  0.62358754  0.64185312  1
  V  V15  1  0.87745348  0.12649036  0.38988436  1
  V  V16  1  0.62589071  0.12376678  0.14107228  1
  V  V17  1  0.12677460  0.87534971  0.13929121  1
  V  V18  1  0.62565909  0.37970683  0.88950365  1
  V  V19  1  0.62539618  0.37461505  0.38741152  1
  V  V20  1  0.12475641  0.61859179  0.13944892  1
  V  V21  1  0.37414395  0.37605917  0.64406473  1
  V  V22  1  0.87544311  0.37613129  0.64259411  1
  V  V23  1  0.12511767  0.36818643  0.13557213  1
  V  V24  1  0.37072000  0.12510808  0.13941777  1
  V  V25  1  0.62657969  0.12855268  0.88632669  1
  V  V26  1  0.62451530  0.62171721  0.64303738  1
  V  V27  1  0.12791492  0.12455084  0.38904010  1
  V  V28  1  0.62506220  0.37417939  0.63820547  1
  V  V29  1  0.87749364  0.87572338  0.64052608  1
  V  V30  1  0.62338170  0.62111383  0.38883614  1
  V  V31  1  0.62395616  0.37793274  0.13601310  1
  Fe  Fe32  1  0.37649970  0.62461523  0.38606313  1
  Fe  Fe33  1  0.37691046  0.62620800  0.64729132  1
  Fe  Fe34  1  0.12366643  0.37478148  0.38795569  1
  Fe  Fe35  1  0.12419059  0.37693195  0.87371239  1
  Fe  Fe36  1  0.37297065  0.62516486  0.13543186  1
  Fe  Fe37  1  0.37804104  0.37396410  0.88541182  1
  Fe  Fe38  1  0.37532677  0.12571381  0.38455750  1
  Fe  Fe39  1  0.12289966  0.62544054  0.88057561  1
  Fe  Fe40  1  0.87612308  0.62475504  0.14000890  1
  Fe  Fe41  1  0.62588443  0.12676771  0.63607267  1
  Fe  Fe42  1  0.37613081  0.62583789  0.87721972  1
  Fe  Fe43  1  0.62488999  0.12335546  0.38605632  1
  Fe  Fe44  1  0.62481344  0.62733069  0.13142943  1
  Fe  Fe45  1  0.12413976  0.12263893  0.13037547  1
  Fe  Fe46  1  0.62367619  0.87759251  0.13251787  1
  Fe  Fe47  1  0.12597844  0.62699731  0.38306878  1
  Fe  Fe48  1  0.87262152  0.62723019  0.64543073  1
  Fe  Fe49  1  0.87170910  0.12245187  0.88159138  1
  Fe  Fe50  1  0.87373187  0.62552323  0.38174364  1
  Fe  Fe51  1  0.87376862  0.87760539  0.38416519  1
  Fe  Fe52  1  0.12484077  0.87550506  0.38642481  1
  Fe  Fe53  1  0.87407191  0.37379561  0.38557559  1
  Fe  Fe54  1  0.37580717  0.37300565  0.13361911  1
  Fe  Fe55  1  0.87332828  0.62630825  0.87862957  1
  Fe  Fe56  1  0.37844544  0.12283474  0.88120105  1
  Fe  Fe57  1  0.87410527  0.37210997  0.13443719  1
  Fe  Fe58  1  0.62774663  0.87527855  0.88601309  1
  Fe  Fe59  1  0.37769701  0.87562899  0.88046223  1
  Fe  Fe60  1  0.12344687  0.12416519  0.88429515  1
  Fe  Fe61  1  0.87214519  0.37466930  0.88557984  1
  Fe  Fe62  1  0.37485016  0.37399338  0.38448146  1
  Fe  Fe63  1  0.12546876  0.37212776  0.64823290  1
  Pb  Pb64  1  0.00299080  0.00594018  -0.00273394  1
  Pb  Pb65  1  0.00140895  -0.00917585  0.25205134  1
  Pb  Pb66  1  -0.00204364  -0.00090256  0.49854375  1
  Pb  Pb67  1  0.00182411  0.00716322  0.75657791  1
  Pb  Pb68  1  -0.00013961  0.25233032  -0.01289652  1
  Pb  Pb69  1  0.00182966  0.26307880  0.25336858  1
  Pb  Pb70  1  0.00608042  0.26069720  0.50734566  1
  Pb  Pb71  1  -0.00158383  0.24695579  0.75832227  1
  Pb  Pb72  1  -0.00428990  0.49792426  -0.01165815  1
  Pb  Pb73  1  -0.00551247  0.49922695  0.25080453  1
  Pb  Pb74  1  -0.00017712  0.50388628  0.49377840  1
  Pb  Pb75  1  0.00031326  0.49672934  0.75341850  1
  Pb  Pb76  1  -0.00771508  0.74175072  -0.00279948  1
  Pb  Pb77  1  0.00939185  0.74914283  0.25498464  1
  Pb  Pb78  1  -0.00254337  0.74682211  0.49261410  1
  Pb  Pb79  1  0.00198774  0.74241395  0.75216774  1
  Pb  Pb80  1  0.24789781  0.00702429  -0.00631450  1
  Pb  Pb81  1  0.25001650  -0.00043498  0.24806124  1
  Pb  Pb82  1  0.25334669  0.00032603  0.50045458  1
  Pb  Pb83  1  0.25228942  0.00465179  0.75786230  1
  Pb  Pb84  1  0.24905781  0.25226959  -0.01379517  1
  Pb  Pb85  1  0.25107988  0.26153571  0.25337181  1
  Pb  Pb86  1  0.24699039  0.25999421  0.50346711  1
  Pb  Pb87  1  0.25896692  0.24903613  0.75971137  1
  Pb  Pb88  1  0.25283825  0.49879274  -0.01320577  1
  Pb  Pb89  1  0.25449733  0.49832310  0.25022721  1
  Pb  Pb90  1  0.24703789  0.49989677  0.49516528  1
  Pb  Pb91  1  0.24533704  0.50162260  0.75379168  1
  Pb  Pb92  1  0.26055407  0.73977678  -0.00677075  1
  Pb  Pb93  1  0.24342858  0.74548580  0.25275692  1
  Pb  Pb94  1  0.24970933  0.74248299  0.49978922  1
  Pb  Pb95  1  0.24951107  0.74356638  0.75386484  1
  Pb  Pb96  1  0.50333580  -0.00746139  -0.00622917  1
  Pb  Pb97  1  0.49965208  0.00902991  0.25183241  1
  Pb  Pb98  1  0.50440167  0.00399325  0.50097228  1
  Pb  Pb99  1  0.49825531  -0.00458512  0.75332655  1
  Pb  Pb100  1  0.49428002  0.25264025  -0.00068321  1
  Pb  Pb101  1  0.49787978  0.24277868  0.25127194  1
  Pb  Pb102  1  0.49932714  0.24568692  0.49589653  1
  Pb  Pb103  1  0.49546341  0.25208892  0.75226166  1
  Pb  Pb104  1  0.48728187  0.50433887  0.00144632  1
  Pb  Pb105  1  0.48779076  0.50209860  0.24641729  1
  Pb  Pb106  1  0.48876283  0.50478151  0.50351610  1
  Pb  Pb107  1  0.49219709  0.49811018  0.75479066  1
  Pb  Pb108  1  0.50164195  0.74503590  -0.00386775  1
  Pb  Pb109  1  0.49876551  0.74403173  0.24319080  1
  Pb  Pb110  1  0.49456145  0.74589529  0.50633029  1
  Pb  Pb111  1  0.49909063  0.75817784  0.75618158  1
  Pb  Pb112  1  0.74395006  -0.00645373  -0.00092222  1
  Pb  Pb113  1  0.75460966  -0.00279896  0.25051784  1
  Pb  Pb114  1  0.74373325  0.00538791  0.50135096  1
  Pb  Pb115  1  0.74682825  -0.00056038  0.75129158  1
  Pb  Pb116  1  0.75713245  0.25331040  -0.00021611  1
  Pb  Pb117  1  0.74638263  0.24643029  0.24768058  1
  Pb  Pb118  1  0.74454397  0.24505623  0.49961769  1
  Pb  Pb119  1  0.75793912  0.25340845  0.75287440  1
  Pb  Pb120  1  0.76025037  0.50598348  0.00268232  1
  Pb  Pb121  1  0.75917450  0.50233880  0.24628460  1
  Pb  Pb122  1  0.75992673  0.50561855  0.50196859  1
  Pb  Pb123  1  0.75838969  0.49832044  0.75456298  1
  Pb  Pb124  1  0.74887647  0.73993105  0.00404993  1
  Pb  Pb125  1  0.75210465  0.74599054  0.24612216  1
  Pb  Pb126  1  0.75924206  0.74590332  0.50170255  1
  Pb  Pb127  1  0.74592030  0.75437944  0.75357587  1
  O  O128  1  0.12691976  -0.00273532  0.16465769  1
  O  O129  1  0.12442098  0.00685470  0.41690452  1
  O  O130  1  0.12482907  -0.00089724  0.67027561  1
  O  O131  1  0.12049212  -0.01213974  0.91163990  1
  O  O132  1  0.12455654  0.25174140  0.15618758  1
  O  O133  1  0.12216080  0.23863766  0.41874623  1
  O  O134  1  0.12423081  0.24099583  0.67037876  1
  O  O135  1  0.12374362  0.25108018  0.90257991  1
  O  O136  1  0.12579879  0.50130938  0.15801467  1
  O  O137  1  0.12474877  0.50095555  0.41364152  1
  O  O138  1  0.12507079  0.50671494  0.65955602  1
  O  O139  1  0.12377293  0.50064469  0.90779000  1
  O  O140  1  0.12508179  0.75375892  0.16538227  1
  O  O141  1  0.12662235  0.75279001  0.41878783  1
  O  O142  1  0.12493682  0.75346584  0.66584763  1
  O  O143  1  0.12027088  0.75725230  0.91337535  1
  O  O144  1  0.37403254  0.00042529  0.16423068  1
  O  O145  1  0.37647460  -0.00519952  0.41814546  1
  O  O146  1  0.37448055  -0.00129623  0.66817186  1
  O  O147  1  0.37693742  -0.00094680  0.91102577  1
  O  O148  1  0.37534162  0.24281579  0.15923435  1
  O  O149  1  0.37834647  0.24987975  0.41608855  1
  O  O150  1  0.37562432  0.25181847  0.66693589  1
  O  O151  1  0.38001863  0.24717993  0.91252350  1
  O  O152  1  0.37192153  0.49797266  0.16247197  1
  O  O153  1  0.37828670  0.49908661  0.41745260  1
  O  O154  1  0.37721650  0.49447492  0.66490476  1
  O  O155  1  0.38062349  0.50122660  0.90798444  1
  O  O156  1  0.37315994  0.75851209  0.15907205  1
  O  O157  1  0.37947937  0.75769311  0.41647862  1
  O  O158  1  0.37605649  0.75760681  0.66568377  1
  O  O159  1  0.37801416  0.75010534  0.90860781  1
  O  O160  1  0.62538961  0.00312222  0.16553601  1
  O  O161  1  0.62343879  -0.00771437  0.41588850  1
  O  O162  1  0.62679282  -0.00311282  0.66520689  1
  O  O163  1  0.62826695  0.00680546  0.91024406  1
  O  O164  1  0.62449969  0.24690512  0.16614298  1
  O  O165  1  0.62617457  0.25509715  0.41128679  1
  O  O166  1  0.62579757  0.25561471  0.66274585  1
  O  O167  1  0.62521528  0.24838772  0.91154122  1
  O  O168  1  0.62588830  0.49225820  0.15633134  1
  O  O169  1  0.62460659  0.50425687  0.41048268  1
  O  O170  1  0.62498754  0.50189308  0.66537821  1
  O  O171  1  0.62681123  0.49768971  0.91035254  1
  O  O172  1  0.62476830  0.75449656  0.16339365  1
  O  O173  1  0.62142147  0.75340519  0.41540543  1
  O  O174  1  0.62537260  0.75077156  0.66767434  1
  O  O175  1  0.62742006  0.74386214  0.90768930  1
  O  O176  1  0.87454109  0.00300825  0.16545881  1
  O  O177  1  0.87311298  0.00758139  0.41785259  1
  O  O178  1  0.87491836  -0.00463994  0.66642731  1
  O  O179  1  0.87294030  -0.00678671  0.91122268  1
  O  O180  1  0.87540021  0.24186023  0.16086276  1
  O  O181  1  0.87273725  0.24243010  0.41562850  1
  O  O182  1  0.87420072  0.25263035  0.66657213  1
  O  O183  1  0.87047618  0.24764224  0.91158600  1
  O  O184  1  0.87662414  0.49685795  0.16293105  1
  O  O185  1  0.87020719  0.50010514  0.41522564  1
  O  O186  1  0.87283407  0.49508771  0.66337237  1
  O  O187  1  0.86925332  0.50156483  0.90975156  1
  O  O188  1  0.87710608  0.75833612  0.16136741  1
  O  O189  1  0.86978237  0.75144779  0.41267211  1
  O  O190  1  0.87444289  0.75925000  0.66461112  1
  O  O191  1  0.87227351  0.75523361  0.91127917  1
  O  O192  1  -0.00504909  0.12086875  0.15852448  1
  O  O193  1  -0.00213845  0.12286813  0.41394628  1
  O  O194  1  0.00074858  0.12241769  0.66917914  1
  O  O195  1  -0.00315586  0.12007246  0.91118385  1
  O  O196  1  0.00744800  0.37467117  0.16178692  1
  O  O197  1  -0.00199926  0.37144212  0.42021941  1
  O  O198  1  -0.00792924  0.37382565  0.66358076  1
  O  O199  1  -0.00114022  0.37530153  0.90571898  1
  O  O200  1  0.00758017  0.62871488  0.16242071  1
  O  O201  1  -0.00141595  0.62656485  0.41151675  1
  O  O202  1  0.00474322  0.62868792  0.66235304  1
  O  O203  1  -0.00271272  0.62879160  0.90969591  1
  O  O204  1  -0.00191105  0.87964749  0.16327584  1
  O  O205  1  -0.00147533  0.87945341  0.41683137  1
  O  O206  1  -0.00274893  0.87689739  0.66296624  1
  O  O207  1  -0.00563262  0.87311592  0.91245494  1
  O  O208  1  0.25422013  0.12226283  0.15982246  1
  O  O209  1  0.24481610  0.12268213  0.41180350  1
  O  O210  1  0.24781234  0.12250195  0.66967716  1
  O  O211  1  0.25027325  0.12100122  0.90861779  1
  O  O212  1  0.24268634  0.37365050  0.16174378  1
  O  O213  1  0.24885615  0.37139788  0.41799918  1
  O  O214  1  0.25772038  0.37354703  0.66619160  1
  O  O215  1  0.25055898  0.37491033  0.90367720  1
  O  O216  1  0.24307762  0.62925866  0.16289035  1
  O  O217  1  0.25285415  0.62789765  0.41571712  1
  O  O218  1  0.24485704  0.62844822  0.66488917  1
  O  O219  1  0.24949890  0.62781153  0.90621481  1
  O  O220  1  0.25462875  0.87856862  0.16377978  1
  O  O221  1  0.25770240  0.87704234  0.41546297  1
  O  O222  1  0.25127250  0.87732857  0.66810702  1
  O  O223  1  0.24332512  0.87327571  0.90298952  1
  O  O224  1  0.49687282  0.12294679  0.16421333  1
  O  O225  1  0.50072974  0.12235333  0.41793935  1
  O  O226  1  0.49851251  0.12458378  0.66257680  1
  O  O227  1  0.50930954  0.12437034  0.91111403  1
  O  O228  1  0.50691766  0.36922583  0.16101062  1
  O  O229  1  0.50960219  0.37684740  0.41413130  1
  O  O230  1  0.49918161  0.37510909  0.66561535  1
  O  O231  1  0.51043855  0.37387677  0.91622056  1
  O  O232  1  0.49965980  0.62487473  0.16279522  1
  O  O233  1  0.50681935  0.62825310  0.41883733  1
  O  O234  1  0.50980140  0.62694933  0.66949716  1
  O  O235  1  0.50779443  0.62406638  0.90901051  1
  O  O236  1  0.49165057  0.87940075  0.15936945  1
  O  O237  1  0.49960329  0.87659426  0.41807290  1
  O  O238  1  0.49832925  0.87697774  0.66536815  1
  O  O239  1  0.50336375  0.87507847  0.91156355  1
  O  O240  1  0.75421828  0.12395961  0.16483589  1
  O  O241  1  0.75404816  0.12406675  0.41415043  1
  O  O242  1  0.75252588  0.12440024  0.66606318  1
  O  O243  1  0.74372394  0.12504320  0.91306225  1
  O  O244  1  0.74256043  0.36744289  0.16195575  1
  O  O245  1  0.74233302  0.37576740  0.41446783  1
  O  O246  1  0.75092442  0.37564188  0.66557625  1
  O  O247  1  0.74054285  0.37257487  0.91571500  1
  O  O248  1  0.74862366  0.62581905  0.16561202  1
  O  O249  1  0.73942487  0.62852998  0.41472311  1
  O  O250  1  0.74074832  0.62697741  0.66867698  1
  O  O251  1  0.74551908  0.62460156  0.91184984  1
  O  O252  1  0.75654156  0.87980321  0.16250826  1
  O  O253  1  0.74192158  0.87601179  0.41292156  1
  O  O254  1  0.75453370  0.87612928  0.66603998  1
  O  O255  1  0.75604177  0.87502115  0.91375658  1
  O  O256  1  0.12520621  0.11476972  0.03117207  1
  O  O257  1  0.12521347  0.12631326  0.29833158  1
  O  O258  1  0.12628553  0.12251078  0.55884514  1
  O  O259  1  0.12084428  0.11559394  0.78337452  1
  O  O260  1  0.12509021  0.37345379  0.04523773  1
  O  O261  1  0.12425500  0.36269532  0.28785397  1
  O  O262  1  0.12604920  0.36143276  0.54736446  1
  O  O263  1  0.12175216  0.38314922  0.77085046  1
  O  O264  1  0.12519824  0.62492184  0.04884565  1
  O  O265  1  0.12568385  0.63582536  0.28275183  1
  O  O266  1  0.12687513  0.63066318  0.55089844  1
  O  O267  1  0.12318064  0.62935437  0.77993307  1
  O  O268  1  0.12660340  0.87369161  0.04875271  1
  O  O269  1  0.12343481  0.87482135  0.28637951  1
  O  O270  1  0.12846475  0.87962838  0.55028150  1
  O  O271  1  0.12019661  0.87068674  0.79413250  1
  O  O272  1  0.37480628  0.12056404  0.04867506  1
  O  O273  1  0.38018010  0.12226970  0.28505617  1
  O  O274  1  0.36983170  0.12363844  0.55379088  1
  O  O275  1  0.37439856  0.12810017  0.78024010  1
  O  O276  1  0.38035646  0.37401455  0.03346962  1
  O  O277  1  0.36625775  0.37524383  0.28382700  1
  O  O278  1  0.37622020  0.37386452  0.55286576  1
  O  O279  1  0.38506305  0.36933536  0.78423367  1
  O  O280  1  0.37541946  0.62767004  0.03501511  1
  O  O281  1  0.37967059  0.62256688  0.28597598  1
  O  O282  1  0.38647995  0.62773610  0.54673443  1
  O  O283  1  0.37650134  0.62451623  0.77513747  1
  O  O284  1  0.37347472  0.87706214  0.04517654  1
  O  O285  1  0.37674024  0.87589255  0.30042460  1
  O  O286  1  0.37189683  0.87885652  0.55636419  1
  O  O287  1  0.38321544  0.87830724  0.77971538  1
  O  O288  1  0.62566722  0.12549385  0.05022821  1
  O  O289  1  0.61931986  0.12710684  0.28643912  1
  O  O290  1  0.63188241  0.12398605  0.53596573  1
  O  O291  1  0.62792294  0.12795196  0.79525367  1
  O  O292  1  0.62459227  0.37233374  0.04521814  1
  O  O293  1  0.62545165  0.37621700  0.29691349  1
  O  O294  1  0.62526736  0.37789236  0.54760777  1
  O  O295  1  0.62517911  0.37727626  0.79831089  1
  O  O296  1  0.62847529  0.63026000  0.03141793  1
  O  O297  1  0.62150237  0.62554516  0.29822165  1
  O  O298  1  0.62399167  0.62476853  0.55197315  1
  O  O299  1  0.62823350  0.62346074  0.79770621  1
  O  O300  1  0.62736855  0.88298397  0.03256232  1
  O  O301  1  0.62234237  0.87231265  0.29993479  1
  O  O302  1  0.62681581  0.87273831  0.55211919  1
  O  O303  1  0.62904294  0.87409081  0.78496017  1
  O  O304  1  0.87501759  0.12170183  0.04654805  1
  O  O305  1  0.87763998  0.12544074  0.29917706  1
  O  O306  1  0.87702294  0.12600871  0.55479211  1
  O  O307  1  0.87571020  0.12549876  0.78128734  1
  O  O308  1  0.87013295  0.37197098  0.03447409  1
  O  O309  1  0.88385909  0.37283217  0.28573692  1
  O  O310  1  0.87158571  0.37373957  0.55141802  1
  O  O311  1  0.86635265  0.37490705  0.78426254  1
  O  O312  1  0.86885210  0.63031329  0.03892641  1
  O  O313  1  0.87067188  0.62053650  0.28101554  1
  O  O314  1  0.86218322  0.62641820  0.54526153  1
  O  O315  1  0.87333874  0.62539082  0.77692086  1
  O  O316  1  0.87615754  0.87727781  0.05066930  1
  O  O317  1  0.87623900  0.88542197  0.28484939  1
  O  O318  1  0.87403395  0.87731444  0.54958044  1
  O  O319  1  0.87365513  0.87452589  0.79610063  1
