# generated using pymatgen
data_VFe(PbO3)2
_symmetry_space_group_name_H-M   'P 1'
_cell_length_a   15.38947401
_cell_length_b   15.39836541
_cell_length_c   18.50352707
_cell_angle_alpha   90.06361415
_cell_angle_beta   89.96308478
_cell_angle_gamma   89.98275224
_symmetry_Int_Tables_number   1
_chemical_formula_structural   VFe(PbO3)2
_chemical_formula_sum   'V32 Fe32 Pb64 O192'
_cell_volume   4384.82777617
_cell_formula_units_Z   32
loop_
 _symmetry_equiv_pos_site_id
 _symmetry_equiv_pos_as_xyz
  1  'x, y, z'
loop_
 _atom_site_type_symbol
 _atom_site_label
 _atom_site_symmetry_multiplicity
 _atom_site_fract_x
 _atom_site_fract_y
 _atom_site_fract_z
 _atom_site_occupancy
  V  V0  1  0.87520156  0.62997107  0.64138449  1
  V  V1  1  0.61990083  0.62532963  0.13605136  1
  V  V2  1  0.87364659  0.87912954  0.13662798  1
  V  V3  1  0.62741005  0.87425657  0.64028870  1
  V  V4  1  0.87654253  0.12818603  0.14031547  1
  V  V5  1  0.62164748  0.37527336  0.14041613  1
  V  V6  1  0.37428321  0.12929855  0.14697868  1
  V  V7  1  0.62402802  0.87614584  0.89170622  1
  V  V8  1  0.12846952  0.37315616  0.14540750  1
  V  V9  1  0.87700035  0.87555278  0.64622286  1
  V  V10  1  0.87568138  0.37515061  0.88706186  1
  V  V11  1  0.12599131  0.12594819  0.14344657  1
  V  V12  1  0.36985653  0.62610835  0.39374687  1
  V  V13  1  0.87354648  0.87139039  0.38765258  1
  V  V14  1  0.87444857  0.13159021  0.63915986  1
  V  V15  1  0.37356010  0.62620333  0.88486884  1
  V  V16  1  0.12669843  0.62715928  0.63951958  1
  V  V17  1  0.62344830  0.12840410  0.14019887  1
  V  V18  1  0.62415610  0.62543119  0.38795915  1
  V  V19  1  0.87630911  0.63075666  0.89792246  1
  V  V20  1  0.62621962  0.87199306  0.38851066  1
  V  V21  1  0.62421330  0.62681218  0.64817034  1
  V  V22  1  0.87710838  0.38495176  0.64141938  1
  V  V23  1  0.37220380  0.87251839  0.63928112  1
  V  V24  1  0.12205178  0.62094477  0.13708776  1
  V  V25  1  0.87019401  0.62752754  0.38495302  1
  V  V26  1  0.37430044  0.12352227  0.88390112  1
  V  V27  1  0.36895211  0.62078252  0.14030839  1
  V  V28  1  0.11830173  0.62573163  0.38670945  1
  V  V29  1  0.62786375  0.37579012  0.39367532  1
  V  V30  1  0.87288733  0.13751858  0.38092629  1
  V  V31  1  0.12539439  0.37589259  0.88713797  1
  Fe  Fe32  1  0.87245086  0.62481856  0.13002915  1
  Fe  Fe33  1  0.87464861  0.87681092  0.88359721  1
  Fe  Fe34  1  0.37635474  0.87189260  0.38057520  1
  Fe  Fe35  1  0.37684382  0.37767226  0.39854036  1
  Fe  Fe36  1  0.37708659  0.12252887  0.39334366  1
  Fe  Fe37  1  0.37571789  0.87619884  0.88238883  1
  Fe  Fe38  1  0.12694989  0.12747660  0.88397259  1
  Fe  Fe39  1  0.37477613  0.12160360  0.62404556  1
  Fe  Fe40  1  0.62998163  0.37684651  0.64634884  1
  Fe  Fe41  1  0.37472570  0.37426047  0.14201704  1
  Fe  Fe42  1  0.37465907  0.37722990  0.62874867  1
  Fe  Fe43  1  0.37240284  0.37437036  0.87754777  1
  Fe  Fe44  1  0.87181473  0.38281818  0.37719016  1
  Fe  Fe45  1  0.37844527  0.87732190  0.14318424  1
  Fe  Fe46  1  0.12050081  0.12353024  0.39113842  1
  Fe  Fe47  1  0.62316429  0.62395224  0.88481303  1
  Fe  Fe48  1  0.87409175  0.37372672  0.14560299  1
  Fe  Fe49  1  0.87694113  0.12490777  0.88334269  1
  Fe  Fe50  1  0.62396735  0.37555634  0.87561930  1
  Fe  Fe51  1  0.63170367  0.12491541  0.39675744  1
  Fe  Fe52  1  0.12333632  0.12163682  0.62737056  1
  Fe  Fe53  1  0.12715676  0.87441647  0.88260335  1
  Fe  Fe54  1  0.12665190  0.87592135  0.14331362  1
  Fe  Fe55  1  0.12221323  0.87306897  0.63845898  1
  Fe  Fe56  1  0.62193418  0.12593684  0.88186100  1
  Fe  Fe57  1  0.37553644  0.62863289  0.63355698  1
  Fe  Fe58  1  0.62409693  0.87982744  0.13428587  1
  Fe  Fe59  1  0.11912881  0.37598218  0.63018386  1
  Fe  Fe60  1  0.12289342  0.87014446  0.37879304  1
  Fe  Fe61  1  0.62762318  0.12106048  0.63129446  1
  Fe  Fe62  1  0.12620580  0.62121836  0.88816301  1
  Fe  Fe63  1  0.12127004  0.37756242  0.39423787  1
  Pb  Pb64  1  0.00571545  0.00004515  -0.00790779  1
  Pb  Pb65  1  0.00883014  0.00731526  0.25308434  1
  Pb  Pb66  1  0.01022683  -0.00557243  0.49989897  1
  Pb  Pb67  1  0.00271266  0.00669988  0.75399174  1
  Pb  Pb68  1  -0.00323203  0.25245451  -0.00087437  1
  Pb  Pb69  1  0.01111912  0.25467194  0.25906343  1
  Pb  Pb70  1  0.01109133  0.25323270  0.50276656  1
  Pb  Pb71  1  0.00489721  0.24000141  0.74744086  1
  Pb  Pb72  1  -0.01119120  0.49587211  0.00714509  1
  Pb  Pb73  1  -0.00398091  0.49534548  0.25096040  1
  Pb  Pb74  1  -0.00288526  0.49461235  0.49885242  1
  Pb  Pb75  1  0.00764951  0.50980929  0.75424896  1
  Pb  Pb76  1  0.01099695  0.76065108  -0.00071101  1
  Pb  Pb77  1  0.00277409  0.75328435  0.24498231  1
  Pb  Pb78  1  0.00495267  0.75396971  0.50254766  1
  Pb  Pb79  1  0.00879307  0.75188471  0.75832827  1
  Pb  Pb80  1  0.24728993  -0.00776430  -0.00249846  1
  Pb  Pb81  1  0.25511153  -0.00083019  0.25519412  1
  Pb  Pb82  1  0.24668799  0.00001090  0.48940094  1
  Pb  Pb83  1  0.23756038  0.00514782  0.74412058  1
  Pb  Pb84  1  0.25824375  0.25399119  -0.00190734  1
  Pb  Pb85  1  0.25280067  0.24084816  0.26705380  1
  Pb  Pb86  1  0.25143730  0.24579822  0.49414101  1
  Pb  Pb87  1  0.25127934  0.24988090  0.72990081  1
  Pb  Pb88  1  0.25834761  0.49541677  -0.00123576  1
  Pb  Pb89  1  0.24954026  0.48186886  0.26511475  1
  Pb  Pb90  1  0.25325564  0.49258733  0.50507592  1
  Pb  Pb91  1  0.25565032  0.49513717  0.74295187  1
  Pb  Pb92  1  0.24792630  0.75949925  -0.00041988  1
  Pb  Pb93  1  0.25150707  0.75828769  0.24960029  1
  Pb  Pb94  1  0.24738114  0.75867891  0.49825152  1
  Pb  Pb95  1  0.24876948  0.75907002  0.75476618  1
  Pb  Pb96  1  0.49609689  -0.00655587  0.00323287  1
  Pb  Pb97  1  0.49698895  0.00524621  0.25540785  1
  Pb  Pb98  1  0.49636785  0.00639241  0.49697215  1
  Pb  Pb99  1  0.50170032  0.00749753  0.74486366  1
  Pb  Pb100  1  0.49853014  0.25556889  -0.00976526  1
  Pb  Pb101  1  0.49146655  0.24509762  0.26302349  1
  Pb  Pb102  1  0.49298405  0.24640388  0.50245926  1
  Pb  Pb103  1  0.50055564  0.24955274  0.73487548  1
  Pb  Pb104  1  0.49941497  0.49480697  -0.01068845  1
  Pb  Pb105  1  0.49430368  0.49380424  0.25566251  1
  Pb  Pb106  1  0.49721352  0.50006866  0.50877226  1
  Pb  Pb107  1  0.49291972  0.48817453  0.74785870  1
  Pb  Pb108  1  0.49467497  0.75941996  0.00355161  1
  Pb  Pb109  1  0.49786140  0.75498027  0.24866519  1
  Pb  Pb110  1  0.49549334  0.74481119  0.50272388  1
  Pb  Pb111  1  0.49640577  0.75483629  0.75469845  1
  Pb  Pb112  1  0.75085913  0.00511950  -0.00535223  1
  Pb  Pb113  1  0.74443944  0.00856158  0.25166536  1
  Pb  Pb114  1  0.75214967  0.00179830  0.50310334  1
  Pb  Pb115  1  0.75927567  0.00139640  0.75517726  1
  Pb  Pb116  1  0.74779849  0.25111463  -0.00734112  1
  Pb  Pb117  1  0.74384858  0.24638764  0.25354066  1
  Pb  Pb118  1  0.73475239  0.25949144  0.51467697  1
  Pb  Pb119  1  0.73809745  0.24316835  0.75216281  1
  Pb  Pb120  1  0.75471162  0.49738510  0.00030193  1
  Pb  Pb121  1  0.75342955  0.49815899  0.24615990  1
  Pb  Pb122  1  0.74413234  0.49800159  0.50358832  1
  Pb  Pb123  1  0.74365143  0.50619692  0.75845770  1
  Pb  Pb124  1  0.74325063  0.75282139  0.00041332  1
  Pb  Pb125  1  0.75097661  0.75110387  0.24247752  1
  Pb  Pb126  1  0.74903316  0.74772432  0.50243564  1
  Pb  Pb127  1  0.75128369  0.75098241  0.75771998  1
  O  O128  1  0.12737353  0.00487596  0.16637600  1
  O  O129  1  0.11479871  -0.00592155  0.40630713  1
  O  O130  1  0.12230877  -0.00256902  0.66026007  1
  O  O131  1  0.12839582  0.00147304  0.91310197  1
  O  O132  1  0.12575383  0.25430066  0.16938287  1
  O  O133  1  0.11805832  0.25007280  0.41474642  1
  O  O134  1  0.11740777  0.24852917  0.65385699  1
  O  O135  1  0.12523208  0.25915291  0.91436916  1
  O  O136  1  0.12917754  0.50352174  0.16477425  1
  O  O137  1  0.12469884  0.51344421  0.41610784  1
  O  O138  1  0.11660344  0.50846491  0.66024162  1
  O  O139  1  0.12347773  0.49146697  0.91550312  1
  O  O140  1  0.12685958  0.73819437  0.16297225  1
  O  O141  1  0.12489288  0.74175081  0.41531165  1
  O  O142  1  0.11997259  0.74448324  0.66657354  1
  O  O143  1  0.12649600  0.74676818  0.91599288  1
  O  O144  1  0.37575415  0.00969151  0.16814295  1
  O  O145  1  0.37828778  -0.00690719  0.41113599  1
  O  O146  1  0.37976329  -0.01139458  0.65734239  1
  O  O147  1  0.37544924  0.00601153  0.91075354  1
  O  O148  1  0.37427721  0.24783161  0.17351495  1
  O  O149  1  0.37865881  0.25127939  0.41503425  1
  O  O150  1  0.37481059  0.24921040  0.64863112  1
  O  O151  1  0.37253033  0.24569826  0.90838898  1
  O  O152  1  0.37788871  0.50451839  0.17017484  1
  O  O153  1  0.38015036  0.51066936  0.41795432  1
  O  O154  1  0.37443099  0.50525407  0.66029328  1
  O  O155  1  0.37224339  0.50371736  0.91015179  1
  O  O156  1  0.38148986  0.73766579  0.16374574  1
  O  O157  1  0.38116982  0.74571128  0.41506109  1
  O  O158  1  0.38026271  0.75394082  0.66701941  1
  O  O159  1  0.37581763  0.74318066  0.90985838  1
  O  O160  1  0.62343730  0.00781191  0.16433500  1
  O  O161  1  0.63633878  -0.01220292  0.41242909  1
  O  O162  1  0.62856457  -0.00922120  0.66006110  1
  O  O163  1  0.62246223  -0.00455103  0.91251360  1
  O  O164  1  0.62336782  0.25238212  0.16941270  1
  O  O165  1  0.63274060  0.25806263  0.41790366  1
  O  O166  1  0.63217064  0.24656127  0.65831372  1
  O  O167  1  0.62492801  0.25252413  0.91177424  1
  O  O168  1  0.62228812  0.49538367  0.16125197  1
  O  O169  1  0.62948424  0.50102827  0.41671061  1
  O  O170  1  0.63360570  0.50945552  0.66570397  1
  O  O171  1  0.62649097  0.49821580  0.91163859  1
  O  O172  1  0.62208150  0.74266953  0.15756631  1
  O  O173  1  0.62742782  0.75071989  0.41671040  1
  O  O174  1  0.62990218  0.75080890  0.67010978  1
  O  O175  1  0.62403342  0.75356351  0.91513169  1
  O  O176  1  0.87416759  -0.00238425  0.16301119  1
  O  O177  1  0.87249870  -0.01761271  0.41133372  1
  O  O178  1  0.87126393  -0.00639381  0.66223047  1
  O  O179  1  0.87340669  0.00012700  0.91584736  1
  O  O180  1  0.87637331  0.24513214  0.16839680  1
  O  O181  1  0.87071031  0.25015300  0.37662360  1
  O  O182  1  0.87740357  0.24668746  0.65774505  1
  O  O183  1  0.87777964  0.25699366  0.91240306  1
  O  O184  1  0.87278768  0.50369730  0.16502767  1
  O  O185  1  0.87194888  0.51052043  0.40892312  1
  O  O186  1  0.87665407  0.50201022  0.66428174  1
  O  O187  1  0.87695201  0.49363157  0.91527875  1
  O  O188  1  0.87109752  0.75418036  0.15773293  1
  O  O189  1  0.87174245  0.74669767  0.41984846  1
  O  O190  1  0.87219131  0.75188422  0.66982126  1
  O  O191  1  0.87233106  0.74746041  0.91426789  1
  O  O192  1  0.00080110  0.12449039  0.16721775  1
  O  O193  1  -0.01890005  0.12235193  0.41387510  1
  O  O194  1  -0.00800166  0.11735849  0.66206871  1
  O  O195  1  0.00185460  0.12907936  0.91667470  1
  O  O196  1  0.00979761  0.37874547  0.16645945  1
  O  O197  1  -0.00918262  0.38001843  0.41472149  1
  O  O198  1  -0.00792682  0.37547229  0.66745904  1
  O  O199  1  0.00045273  0.37473615  0.91431877  1
  O  O200  1  0.00491749  0.62316297  0.15657733  1
  O  O201  1  0.00032233  0.62930393  0.40503911  1
  O  O202  1  -0.00313702  0.62873557  0.66940258  1
  O  O203  1  -0.00640908  0.62147808  0.91821182  1
  O  O204  1  -0.00863307  0.87339096  0.16210272  1
  O  O205  1  -0.00820672  0.86129987  0.40676932  1
  O  O206  1  -0.00761478  0.87118206  0.66437260  1
  O  O207  1  0.00048341  0.87340082  0.91068127  1
  O  O208  1  0.25258292  0.12902021  0.17167598  1
  O  O209  1  0.24731150  0.12247632  0.40963625  1
  O  O210  1  0.25036690  0.12020618  0.65213118  1
  O  O211  1  0.25709163  0.12618735  0.91210978  1
  O  O212  1  0.24551922  0.37630539  0.17202404  1
  O  O213  1  0.24820810  0.38127568  0.41671505  1
  O  O214  1  0.24465841  0.37932065  0.65241463  1
  O  O215  1  0.24489696  0.37537785  0.91008521  1
  O  O216  1  0.25462389  0.62368207  0.16027331  1
  O  O217  1  0.25266011  0.62818237  0.41139071  1
  O  O218  1  0.24276679  0.62814670  0.65503437  1
  O  O219  1  0.25656741  0.62298955  0.91370474  1
  O  O220  1  0.25290741  0.87311825  0.16636920  1
  O  O221  1  0.24905561  0.86818361  0.40652111  1
  O  O222  1  0.25533830  0.86841313  0.65559046  1
  O  O223  1  0.25290058  0.87411457  0.91456922  1
  O  O224  1  0.49704827  0.12944692  0.16937429  1
  O  O225  1  0.50729152  0.12251923  0.41350817  1
  O  O226  1  0.50097399  0.11918303  0.65400565  1
  O  O227  1  0.49210770  0.12635995  0.91170233  1
  O  O228  1  0.50494904  0.37343563  0.16943805  1
  O  O229  1  0.51242486  0.37870255  0.41771786  1
  O  O230  1  0.50210173  0.37951638  0.65656784  1
  O  O231  1  0.49727597  0.37525561  0.90486197  1
  O  O232  1  0.50402669  0.61932031  0.16544458  1
  O  O233  1  0.50470397  0.62607315  0.41636083  1
  O  O234  1  0.50830747  0.62852683  0.66373611  1
  O  O235  1  0.49253258  0.62212614  0.90937704  1
  O  O236  1  0.50360027  0.87664867  0.17065171  1
  O  O237  1  0.51102524  0.87181439  0.40788729  1
  O  O238  1  0.50815031  0.87003107  0.66365647  1
  O  O239  1  0.50240387  0.87456270  0.91471166  1
  O  O240  1  0.74952505  0.12642677  0.16592497  1
  O  O241  1  0.76531811  0.12085870  0.41837139  1
  O  O242  1  0.75777278  0.11932919  0.66201018  1
  O  O243  1  0.74923333  0.12740304  0.91291665  1
  O  O244  1  0.73942589  0.37367040  0.16478921  1
  O  O245  1  0.74969052  0.37953886  0.41728256  1
  O  O246  1  0.76485565  0.37449128  0.66931111  1
  O  O247  1  0.75726009  0.37488825  0.90648924  1
  O  O248  1  0.73917379  0.62225942  0.15846268  1
  O  O249  1  0.74717464  0.62861273  0.41572329  1
  O  O250  1  0.75403695  0.62820852  0.67133328  1
  O  O251  1  0.75566737  0.62164426  0.91703608  1
  O  O252  1  0.75319593  0.87567706  0.16162727  1
  O  O253  1  0.75136616  0.86481151  0.41820105  1
  O  O254  1  0.74695348  0.87135356  0.66714967  1
  O  O255  1  0.74355469  0.87405502  0.91518342  1
  O  O256  1  0.12952624  0.12994663  0.05276034  1
  O  O257  1  0.11489997  0.13070380  0.28880387  1
  O  O258  1  0.11164239  0.11797923  0.52591354  1
  O  O259  1  0.12185489  0.12225954  0.78351703  1
  O  O260  1  0.13025284  0.37220314  0.05476172  1
  O  O261  1  0.12254022  0.38171930  0.29241539  1
  O  O262  1  0.10913605  0.38225237  0.52945560  1
  O  O263  1  0.12207428  0.37632583  0.79611921  1
  O  O264  1  0.12745687  0.61988698  0.04632278  1
  O  O265  1  0.12514586  0.62563516  0.29579511  1
  O  O266  1  0.11798731  0.63077682  0.54835874  1
  O  O267  1  0.11904610  0.62266054  0.78834460  1
  O  O268  1  0.12736314  0.87024569  0.04265716  1
  O  O269  1  0.12002130  0.86326184  0.27749986  1
  O  O270  1  0.11675831  0.86680898  0.53692828  1
  O  O271  1  0.13192464  0.86888456  0.78077604  1
  O  O272  1  0.37353240  0.13181976  0.05637615  1
  O  O273  1  0.37703608  0.12860257  0.29020581  1
  O  O274  1  0.37864342  0.11828654  0.52273889  1
  O  O275  1  0.37547392  0.12207291  0.79274768  1
  O  O276  1  0.36771912  0.37361365  0.04250834  1
  O  O277  1  0.37790361  0.38390728  0.29565452  1
  O  O278  1  0.37944141  0.38651719  0.52590692  1
  O  O279  1  0.36993363  0.38139581  0.77758567  1
  O  O280  1  0.37412320  0.61746384  0.04937559  1
  O  O281  1  0.37518266  0.62422488  0.30265256  1
  O  O282  1  0.38380260  0.63033791  0.53405102  1
  O  O283  1  0.37177619  0.62550870  0.79332641  1
  O  O284  1  0.38524242  0.87712570  0.04142303  1
  O  O285  1  0.37823816  0.87048125  0.27981365  1
  O  O286  1  0.38003608  0.86583840  0.54786580  1
  O  O287  1  0.37529201  0.86910698  0.78278215  1
  O  O288  1  0.62118980  0.13093815  0.04934099  1
  O  O289  1  0.63961318  0.12662814  0.29572543  1
  O  O290  1  0.63805222  0.12187568  0.52902839  1
  O  O291  1  0.62265649  0.12493287  0.78184803  1
  O  O292  1  0.62014893  0.37125433  0.04952150  1
  O  O293  1  0.62774005  0.37530671  0.30245293  1
  O  O294  1  0.64377418  0.38066869  0.54451772  1
  O  O295  1  0.62889495  0.37426107  0.77383591  1
  O  O296  1  0.61787161  0.62210922  0.04501249  1
  O  O297  1  0.62476783  0.62513053  0.29698552  1
  O  O298  1  0.63016896  0.62977305  0.55659707  1
  O  O299  1  0.63455286  0.62641513  0.78551914  1
  O  O300  1  0.61680349  0.87474683  0.03503202  1
  O  O301  1  0.63235199  0.86893661  0.29723286  1
  O  O302  1  0.62966963  0.86916040  0.54931015  1
  O  O303  1  0.62386400  0.87463400  0.80041588  1
  O  O304  1  0.87552434  0.12847827  0.04937638  1
  O  O305  1  0.87159767  0.10806056  0.29134553  1
  O  O306  1  0.87461359  0.12603842  0.54849080  1
  O  O307  1  0.88039138  0.11945669  0.78282670  1
  O  O308  1  0.87832468  0.37691255  0.04486677  1
  O  O309  1  0.87384679  0.39019130  0.27590796  1
  O  O310  1  0.87689869  0.38277022  0.54965353  1
  O  O311  1  0.88065233  0.37616163  0.79685793  1
  O  O312  1  0.87129837  0.61370010  0.03064402  1
  O  O313  1  0.86725052  0.63294363  0.29347611  1
  O  O314  1  0.87412175  0.62916112  0.55026424  1
  O  O315  1  0.87678728  0.62425161  0.80627148  1
  O  O316  1  0.87249337  0.87990057  0.04580019  1
  O  O317  1  0.86639168  0.86749597  0.29646442  1
  O  O318  1  0.87358040  0.87059319  0.55480287  1
  O  O319  1  0.86605710  0.87751913  0.78392878  1
