# generated using pymatgen
data_VFe(PbO3)2
_symmetry_space_group_name_H-M   'P 1'
_cell_length_a   15.39576238
_cell_length_b   15.37832119
_cell_length_c   18.53246126
_cell_angle_alpha   90.01965849
_cell_angle_beta   89.96888299
_cell_angle_gamma   89.99869608
_symmetry_Int_Tables_number   1
_chemical_formula_structural   VFe(PbO3)2
_chemical_formula_sum   'V32 Fe32 Pb64 O192'
_cell_volume   4387.76276201
_cell_formula_units_Z   32
loop_
 _symmetry_equiv_pos_site_id
 _symmetry_equiv_pos_as_xyz
  1  'x, y, z'
loop_
 _atom_site_type_symbol
 _atom_site_label
 _atom_site_symmetry_multiplicity
 _atom_site_fract_x
 _atom_site_fract_y
 _atom_site_fract_z
 _atom_site_occupancy
  V  V0  1  0.12187569  0.87491173  0.89131069  1
  V  V1  1  0.12762503  0.87722995  0.63707424  1
  V  V2  1  0.12162088  0.37924508  0.88936220  1
  V  V3  1  0.62020091  0.62278177  0.14246118  1
  V  V4  1  0.62851711  0.87468501  0.89213621  1
  V  V5  1  0.61590064  0.62712965  0.63586452  1
  V  V6  1  0.86666468  0.62799700  0.63234539  1
  V  V7  1  0.12476626  0.87907472  0.14476017  1
  V  V8  1  0.12566641  0.62518153  0.38530011  1
  V  V9  1  0.62349360  0.37632960  0.38979541  1
  V  V10  1  0.37407379  0.87324830  0.38791186  1
  V  V11  1  0.37866374  0.37300750  0.13676637  1
  V  V12  1  0.37101907  0.62234876  0.13518170  1
  V  V13  1  0.12308004  0.62385753  0.14014556  1
  V  V14  1  0.11894520  0.62825922  0.89298910  1
  V  V15  1  0.87422932  0.62503837  0.89346014  1
  V  V16  1  0.12189876  0.12611343  0.89089259  1
  V  V17  1  0.62685268  0.12647345  0.14014716  1
  V  V18  1  0.87994079  0.12521951  0.14227844  1
  V  V19  1  0.36871444  0.62628111  0.64180172  1
  V  V20  1  0.37506980  0.36964402  0.39355955  1
  V  V21  1  0.62338387  0.87442671  0.38674611  1
  V  V22  1  0.37528202  0.12104502  0.39057846  1
  V  V23  1  0.87656720  0.87522296  0.89266739  1
  V  V24  1  0.37448879  0.12459497  0.64005831  1
  V  V25  1  0.11995004  0.62668203  0.63710252  1
  V  V26  1  0.12528288  0.12534205  0.39121475  1
  V  V27  1  0.37401541  0.12552235  0.13650559  1
  V  V28  1  0.37511396  0.62075434  0.39027622  1
  V  V29  1  0.62954283  0.12565264  0.88527617  1
  V  V30  1  0.62827638  0.62679151  0.89081111  1
  V  V31  1  0.86958345  0.62472424  0.15094848  1
  Fe  Fe32  1  0.62824561  0.37518565  0.88257306  1
  Fe  Fe33  1  0.12953383  0.37589791  0.39226722  1
  Fe  Fe34  1  0.62450884  0.12309744  0.62606645  1
  Fe  Fe35  1  0.62565702  0.37651980  0.63787978  1
  Fe  Fe36  1  0.87249328  0.12447416  0.39211324  1
  Fe  Fe37  1  0.12532167  0.37307196  0.13684184  1
  Fe  Fe38  1  0.13137227  0.87546703  0.38143294  1
  Fe  Fe39  1  0.37773019  0.87438904  0.13335854  1
  Fe  Fe40  1  0.12618914  0.12550196  0.13436271  1
  Fe  Fe41  1  0.87420730  0.12357979  0.88424116  1
  Fe  Fe42  1  0.37452359  0.37387751  0.88100323  1
  Fe  Fe43  1  0.87838506  0.87460606  0.37959209  1
  Fe  Fe44  1  0.62474154  0.87642782  0.13632865  1
  Fe  Fe45  1  0.61734882  0.62488027  0.38365234  1
  Fe  Fe46  1  0.61792227  0.12597664  0.39815146  1
  Fe  Fe47  1  0.87219449  0.87604821  0.15046544  1
  Fe  Fe48  1  0.37455658  0.37701057  0.64176590  1
  Fe  Fe49  1  0.87743211  0.87002692  0.62911148  1
  Fe  Fe50  1  0.87615105  0.37402463  0.88599568  1
  Fe  Fe51  1  0.62371456  0.87288174  0.63379931  1
  Fe  Fe52  1  0.87788866  0.12273849  0.62315979  1
  Fe  Fe53  1  0.86929030  0.62481290  0.37699986  1
  Fe  Fe54  1  0.37432273  0.87500642  0.88982281  1
  Fe  Fe55  1  0.87623501  0.37886896  0.62699439  1
  Fe  Fe56  1  0.62467020  0.37348122  0.13698734  1
  Fe  Fe57  1  0.37379143  0.62453325  0.88734526  1
  Fe  Fe58  1  0.87246182  0.37333114  0.14470197  1
  Fe  Fe59  1  0.37732839  0.12485632  0.88378324  1
  Fe  Fe60  1  0.87586359  0.37622545  0.38601275  1
  Fe  Fe61  1  0.37386100  0.87302317  0.63971250  1
  Fe  Fe62  1  0.12679796  0.37733383  0.62952316  1
  Fe  Fe63  1  0.12791598  0.12537067  0.62968877  1
  Pb  Pb64  1  -0.00142929  0.00181039  0.00455202  1
  Pb  Pb65  1  -0.01155573  0.00522628  0.25988317  1
  Pb  Pb66  1  -0.00825653  -0.00300353  0.49628196  1
  Pb  Pb67  1  -0.00968188  0.01046060  0.74331071  1
  Pb  Pb68  1  0.00216402  0.25219321  0.00280583  1
  Pb  Pb69  1  0.00211052  0.26082956  0.25457155  1
  Pb  Pb70  1  -0.00730138  0.25274729  0.49647716  1
  Pb  Pb71  1  -0.00523695  0.24977165  0.73535924  1
  Pb  Pb72  1  -0.00695263  0.49016893  0.00817764  1
  Pb  Pb73  1  -0.00530019  0.49262240  0.25604050  1
  Pb  Pb74  1  -0.00462681  0.49209114  0.49425063  1
  Pb  Pb75  1  -0.00445227  0.49248436  0.74649025  1
  Pb  Pb76  1  -0.01045455  0.75543059  0.01067889  1
  Pb  Pb77  1  -0.00235938  0.75116105  0.25528784  1
  Pb  Pb78  1  -0.00572083  0.75571124  0.48981618  1
  Pb  Pb79  1  0.00420621  0.74967233  0.74724641  1
  Pb  Pb80  1  0.25152879  0.00255096  -0.00073890  1
  Pb  Pb81  1  0.24895384  -0.00525685  0.24966309  1
  Pb  Pb82  1  0.24898850  0.00482307  0.50241893  1
  Pb  Pb83  1  0.26106672  0.00292164  0.75452362  1
  Pb  Pb84  1  0.24157329  0.24946982  -0.00123855  1
  Pb  Pb85  1  0.24236631  0.25347430  0.25062919  1
  Pb  Pb86  1  0.24294005  0.25123884  0.50701229  1
  Pb  Pb87  1  0.25082077  0.25228717  0.74530619  1
  Pb  Pb88  1  0.24834349  0.49660482  -0.00371801  1
  Pb  Pb89  1  0.24484461  0.49307077  0.24971154  1
  Pb  Pb90  1  0.25111043  0.49408919  0.50496801  1
  Pb  Pb91  1  0.25584117  0.49915555  0.75180930  1
  Pb  Pb92  1  0.25403906  0.75395899  0.00072901  1
  Pb  Pb93  1  0.24743539  0.75161828  0.24868209  1
  Pb  Pb94  1  0.25607049  0.75461108  0.50011347  1
  Pb  Pb95  1  0.25707666  0.75001753  0.75778705  1
  Pb  Pb96  1  0.49915308  -0.00494781  -0.00231223  1
  Pb  Pb97  1  0.50563671  0.00421210  0.25009298  1
  Pb  Pb98  1  0.50630050  -0.00566843  0.50710273  1
  Pb  Pb99  1  0.49857721  -0.00222804  0.74601788  1
  Pb  Pb100  1  0.50130018  0.25412411  -0.00882239  1
  Pb  Pb101  1  0.50530785  0.24205597  0.25355089  1
  Pb  Pb102  1  0.50222928  0.25960273  0.51078606  1
  Pb  Pb103  1  0.50403621  0.25353687  0.74521032  1
  Pb  Pb104  1  0.50298964  0.49357147  -0.00570641  1
  Pb  Pb105  1  0.50204425  0.50268194  0.25128083  1
  Pb  Pb106  1  0.49736665  0.49168243  0.50818131  1
  Pb  Pb107  1  0.50084289  0.49151956  0.75487811  1
  Pb  Pb108  1  0.49800581  0.75575689  0.00048843  1
  Pb  Pb109  1  0.50148889  0.74883864  0.24758689  1
  Pb  Pb110  1  0.49645399  0.76020579  0.50355911  1
  Pb  Pb111  1  0.49194177  0.75225659  0.75473229  1
  Pb  Pb112  1  0.75118357  -0.00820011  0.00481837  1
  Pb  Pb113  1  0.75214783  0.00766763  0.25761030  1
  Pb  Pb114  1  0.75149513  0.00297243  0.49670651  1
  Pb  Pb115  1  0.75335575  0.00319737  0.73454243  1
  Pb  Pb116  1  0.75659169  0.25740350  -0.00233196  1
  Pb  Pb117  1  0.75459635  0.24658139  0.25666533  1
  Pb  Pb118  1  0.75095395  0.24430250  0.49790360  1
  Pb  Pb119  1  0.75694540  0.24658880  0.73417282  1
  Pb  Pb120  1  0.75113730  0.48845820  0.00453893  1
  Pb  Pb121  1  0.75321243  0.49579825  0.25448710  1
  Pb  Pb122  1  0.75023805  0.49785306  0.49353655  1
  Pb  Pb123  1  0.75265567  0.48369652  0.75352359  1
  Pb  Pb124  1  0.75070180  0.75704228  0.00907774  1
  Pb  Pb125  1  0.75007460  0.75183143  0.25303097  1
  Pb  Pb126  1  0.75016431  0.75315276  0.49001030  1
  Pb  Pb127  1  0.74915674  0.75313566  0.74530569  1
  O  O128  1  0.12932886  -0.00276588  0.16308892  1
  O  O129  1  0.13592778  0.00672490  0.41052065  1
  O  O130  1  0.12756893  -0.00878583  0.65605566  1
  O  O131  1  0.12158652  -0.00389172  0.91507401  1
  O  O132  1  0.12714852  0.24743373  0.16825438  1
  O  O133  1  0.13412082  0.24394857  0.41429433  1
  O  O134  1  0.12733182  0.25141604  0.65879106  1
  O  O135  1  0.12228435  0.24850920  0.91023369  1
  O  O136  1  0.12753366  0.50521648  0.16281968  1
  O  O137  1  0.13440791  0.50996132  0.41269155  1
  O  O138  1  0.12838945  0.51213205  0.66190844  1
  O  O139  1  0.12095847  0.49718658  0.91358540  1
  O  O140  1  0.12916734  0.74743091  0.16476146  1
  O  O141  1  0.13550102  0.74215645  0.40941142  1
  O  O142  1  0.12837347  0.74438960  0.66796621  1
  O  O143  1  0.12083397  0.75536474  0.91770238  1
  O  O144  1  0.37853332  0.00770183  0.16051678  1
  O  O145  1  0.37280456  0.00352220  0.40990766  1
  O  O146  1  0.37246864  0.00193306  0.66363021  1
  O  O147  1  0.37421926  0.00087328  0.91681250  1
  O  O148  1  0.37834430  0.24580722  0.16246721  1
  O  O149  1  0.37470973  0.25363073  0.41470864  1
  O  O150  1  0.37415525  0.24456659  0.66101646  1
  O  O151  1  0.37453833  0.24940739  0.91291741  1
  O  O152  1  0.37494484  0.50043560  0.16353545  1
  O  O153  1  0.37557704  0.50125918  0.41404928  1
  O  O154  1  0.37570898  0.51103355  0.66547733  1
  O  O155  1  0.37170504  0.49909935  0.91517622  1
  O  O156  1  0.37442507  0.74247803  0.16038052  1
  O  O157  1  0.37321839  0.74789797  0.41130751  1
  O  O158  1  0.37325487  0.74357272  0.66962905  1
  O  O159  1  0.37284783  0.74902307  0.91817147  1
  O  O160  1  0.62247144  0.00834921  0.16470332  1
  O  O161  1  0.61616473  -0.00929627  0.41358695  1
  O  O162  1  0.62269539  -0.00075043  0.66047870  1
  O  O163  1  0.62865151  -0.00369271  0.91351328  1
  O  O164  1  0.62352240  0.24350316  0.16721013  1
  O  O165  1  0.61636246  0.26023313  0.41687643  1
  O  O166  1  0.62302276  0.24771632  0.65835159  1
  O  O167  1  0.62778584  0.24281781  0.90578932  1
  O  O168  1  0.62414755  0.50527077  0.16619060  1
  O  O169  1  0.61553324  0.49422180  0.41226214  1
  O  O170  1  0.62699713  0.51582018  0.66459759  1
  O  O171  1  0.62902911  0.50963913  0.91168051  1
  O  O172  1  0.62359317  0.74141928  0.16469826  1
  O  O173  1  0.61590143  0.75694189  0.40970411  1
  O  O174  1  0.62540260  0.74114031  0.66844609  1
  O  O175  1  0.62953980  0.74918416  0.91898002  1
  O  O176  1  0.87232995  0.00774791  0.16834626  1
  O  O177  1  0.87582188  -0.00385131  0.41118836  1
  O  O178  1  0.87968639  -0.00531851  0.65484286  1
  O  O179  1  0.87655171  -0.00420468  0.91884373  1
  O  O180  1  0.87191279  0.24104163  0.16765094  1
  O  O181  1  0.87443186  0.25160822  0.41164321  1
  O  O182  1  0.87793565  0.25138674  0.64895800  1
  O  O183  1  0.87589419  0.24762976  0.91458251  1
  O  O184  1  0.87731332  0.50601175  0.16750049  1
  O  O185  1  0.87365517  0.50363748  0.40970045  1
  O  O186  1  0.87778674  0.51474746  0.65897293  1
  O  O187  1  0.87769778  0.50485393  0.91959960  1
  O  O188  1  0.87802550  0.74396826  0.16990086  1
  O  O189  1  0.87489758  0.74886972  0.40622235  1
  O  O190  1  0.88091340  0.74267597  0.66491406  1
  O  O191  1  0.87691717  0.75116321  0.92391732  1
  O  O192  1  -0.00425186  0.12302991  0.16138346  1
  O  O193  1  0.00983539  0.12490940  0.40687281  1
  O  O194  1  0.00296482  0.12221423  0.65724875  1
  O  O195  1  0.00536690  0.12162904  0.91643268  1
  O  O196  1  0.00016981  0.37425224  0.16751731  1
  O  O197  1  0.00411070  0.37766780  0.40910012  1
  O  O198  1  0.00141216  0.38392880  0.65842743  1
  O  O199  1  0.00456984  0.37423300  0.91699309  1
  O  O200  1  0.00792974  0.62660961  0.16595373  1
  O  O201  1  0.01013425  0.62643777  0.40055783  1
  O  O202  1  0.00418772  0.62856093  0.65857936  1
  O  O203  1  -0.00068390  0.62703571  0.92401263  1
  O  O204  1  0.00935832  0.87358857  0.16703110  1
  O  O205  1  0.00693287  0.87350022  0.40501451  1
  O  O206  1  0.01051820  0.86587294  0.66142672  1
  O  O207  1  0.00197768  0.87496438  0.92151294  1
  O  O208  1  0.25841356  0.12491039  0.15944942  1
  O  O209  1  0.25864329  0.12792009  0.41789583  1
  O  O210  1  0.25417844  0.12279715  0.66534140  1
  O  O211  1  0.24048426  0.12231923  0.91278387  1
  O  O212  1  0.25718051  0.37353660  0.16451952  1
  O  O213  1  0.25892529  0.37824219  0.41733131  1
  O  O214  1  0.24904680  0.38110777  0.66538823  1
  O  O215  1  0.24005027  0.37386659  0.90990531  1
  O  O216  1  0.24738309  0.62365183  0.16287338  1
  O  O217  1  0.25802607  0.62433927  0.41704956  1
  O  O218  1  0.25135334  0.62709463  0.66324789  1
  O  O219  1  0.23955089  0.62521313  0.91743529  1
  O  O220  1  0.24922619  0.87454331  0.16428126  1
  O  O221  1  0.25544725  0.87522350  0.41605446  1
  O  O222  1  0.24320605  0.86819111  0.66594599  1
  O  O223  1  0.23949396  0.87521741  0.91376289  1
  O  O224  1  0.50039821  0.12669668  0.16316309  1
  O  O225  1  0.48679671  0.12790421  0.41956516  1
  O  O226  1  0.49276102  0.12265742  0.65988894  1
  O  O227  1  0.51075325  0.12054801  0.91125483  1
  O  O228  1  0.49672270  0.37483166  0.16572978  1
  O  O229  1  0.49391623  0.37719425  0.41863030  1
  O  O230  1  0.50054595  0.38041591  0.66752045  1
  O  O231  1  0.50277305  0.37654291  0.90991606  1
  O  O232  1  0.49957986  0.62225043  0.16046571  1
  O  O233  1  0.48996014  0.62609731  0.41683726  1
  O  O234  1  0.49919484  0.62949945  0.65835471  1
  O  O235  1  0.50931620  0.62812788  0.91250012  1
  O  O236  1  0.50045105  0.87345043  0.16543228  1
  O  O237  1  0.49414947  0.87500655  0.41475463  1
  O  O238  1  0.49910469  0.86971860  0.66855431  1
  O  O239  1  0.50688550  0.87247919  0.91167005  1
  O  O240  1  0.74601283  0.12505807  0.16477478  1
  O  O241  1  0.74460872  0.12447723  0.41363945  1
  O  O242  1  0.75201955  0.12266151  0.65116059  1
  O  O243  1  0.74422527  0.11964192  0.91398638  1
  O  O244  1  0.74675066  0.37470951  0.17138706  1
  O  O245  1  0.74031180  0.37730665  0.40521784  1
  O  O246  1  0.75256470  0.38187350  0.65977329  1
  O  O247  1  0.75081901  0.37738837  0.91504363  1
  O  O248  1  0.74960401  0.62477932  0.16468363  1
  O  O249  1  0.74320423  0.62653684  0.40751273  1
  O  O250  1  0.75324225  0.63294331  0.65082738  1
  O  O251  1  0.75036252  0.62894980  0.92010806  1
  O  O252  1  0.74539393  0.87370973  0.17165730  1
  O  O253  1  0.74102074  0.87360116  0.40029990  1
  O  O254  1  0.75142405  0.86785171  0.66056055  1
  O  O255  1  0.75208955  0.87276817  0.92030126  1
  O  O256  1  0.12612667  0.12838978  0.03490056  1
  O  O257  1  0.13286179  0.12693347  0.29963511  1
  O  O258  1  0.13603355  0.12287551  0.53021218  1
  O  O259  1  0.12157000  0.12316053  0.80034812  1
  O  O260  1  0.12382755  0.36897079  0.03671986  1
  O  O261  1  0.13671395  0.37280163  0.29078329  1
  O  O262  1  0.13246573  0.37999949  0.52820782  1
  O  O263  1  0.11740207  0.37999057  0.79874323  1
  O  O264  1  0.12277625  0.62510190  0.04943786  1
  O  O265  1  0.13496467  0.62330141  0.29404148  1
  O  O266  1  0.12311716  0.62941938  0.54641269  1
  O  O267  1  0.11695833  0.62763033  0.80194301  1
  O  O268  1  0.12504963  0.87552622  0.05343643  1
  O  O269  1  0.13995830  0.87495211  0.28188483  1
  O  O270  1  0.12935674  0.87011531  0.54575730  1
  O  O271  1  0.11780517  0.87384987  0.80091459  1
  O  O272  1  0.37671386  0.12621235  0.04541089  1
  O  O273  1  0.37570706  0.12646335  0.29931441  1
  O  O274  1  0.37092771  0.12251745  0.54895645  1
  O  O275  1  0.37229869  0.11878859  0.78458094  1
  O  O276  1  0.37775901  0.37350920  0.04561305  1
  O  O277  1  0.37697911  0.37228195  0.30276025  1
  O  O278  1  0.37980242  0.38141945  0.54053311  1
  O  O279  1  0.37412052  0.38044603  0.78044234  1
  O  O280  1  0.37088532  0.62116160  0.04419253  1
  O  O281  1  0.37484531  0.62020757  0.29914030  1
  O  O282  1  0.36956645  0.62860809  0.55063467  1
  O  O283  1  0.37082892  0.62917840  0.78777436  1
  O  O284  1  0.37686520  0.87331137  0.03311405  1
  O  O285  1  0.37356193  0.87530524  0.29652533  1
  O  O286  1  0.37535617  0.86620561  0.53976102  1
  O  O287  1  0.37037828  0.87093810  0.78866091  1
  O  O288  1  0.62710707  0.12728900  0.04971739  1
  O  O289  1  0.61113356  0.12565300  0.29660266  1
  O  O290  1  0.61929815  0.12099535  0.52444754  1
  O  O291  1  0.63028177  0.12122488  0.79467708  1
  O  O292  1  0.62666635  0.37733454  0.03713363  1
  O  O293  1  0.61455211  0.37395170  0.29863335  1
  O  O294  1  0.61483073  0.38141052  0.53738495  1
  O  O295  1  0.62916708  0.38328388  0.78210301  1
  O  O296  1  0.62386714  0.62273022  0.05188597  1
  O  O297  1  0.61147057  0.62347610  0.28412876  1
  O  O298  1  0.61972954  0.62843775  0.54478317  1
  O  O299  1  0.63214428  0.63101790  0.80036865  1
  O  O300  1  0.63014891  0.87525110  0.03595824  1
  O  O301  1  0.61361007  0.87599748  0.29554513  1
  O  O302  1  0.61567560  0.87156596  0.53373929  1
  O  O303  1  0.63439052  0.87013507  0.80145013  1
  O  O304  1  0.87521274  0.12373741  0.05110708  1
  O  O305  1  0.87234295  0.11782180  0.28948280  1
  O  O306  1  0.87928231  0.12033351  0.52118899  1
  O  O307  1  0.87988640  0.11901630  0.78485658  1
  O  O308  1  0.87199635  0.37792929  0.04291676  1
  O  O309  1  0.87657841  0.37736561  0.28309576  1
  O  O310  1  0.87629648  0.38603830  0.52620192  1
  O  O311  1  0.87661399  0.38505644  0.78599009  1
  O  O312  1  0.87766578  0.62634496  0.05975539  1
  O  O313  1  0.87639015  0.62332312  0.27603521  1
  O  O314  1  0.87435433  0.63055358  0.54116133  1
  O  O315  1  0.87547490  0.62701832  0.80266731  1
  O  O316  1  0.87470784  0.87230377  0.04900412  1
  O  O317  1  0.88054424  0.87819256  0.27684868  1
  O  O318  1  0.88137472  0.86624252  0.52924012  1
  O  O319  1  0.87760736  0.87191658  0.80130135  1
