# generated using pymatgen
data_VFe(PbO3)2
_symmetry_space_group_name_H-M   'P 1'
_cell_length_a   15.37716100
_cell_length_b   15.39562579
_cell_length_c   18.49399290
_cell_angle_alpha   90.04169575
_cell_angle_beta   90.00496199
_cell_angle_gamma   89.99292163
_symmetry_Int_Tables_number   1
_chemical_formula_structural   VFe(PbO3)2
_chemical_formula_sum   'V32 Fe32 Pb64 O192'
_cell_volume   4378.28546941
_cell_formula_units_Z   32
loop_
 _symmetry_equiv_pos_site_id
 _symmetry_equiv_pos_as_xyz
  1  'x, y, z'
loop_
 _atom_site_type_symbol
 _atom_site_label
 _atom_site_symmetry_multiplicity
 _atom_site_fract_x
 _atom_site_fract_y
 _atom_site_fract_z
 _atom_site_occupancy
  V  V0  1  0.12446870  0.37405216  0.64176181  1
  V  V1  1  0.37607387  0.37366124  0.13396895  1
  V  V2  1  0.37124337  0.37761846  0.38974147  1
  V  V3  1  0.37545860  0.88484464  0.65124051  1
  V  V4  1  0.62679137  0.62207887  0.89154070  1
  V  V5  1  0.62807828  0.62365404  0.63988753  1
  V  V6  1  0.87383226  0.12462591  0.39105650  1
  V  V7  1  0.87427697  0.12477648  0.89163002  1
  V  V8  1  0.12380614  0.62730042  0.39206360  1
  V  V9  1  0.37397708  0.37620594  0.64257750  1
  V  V10  1  0.12431241  0.12374418  0.64490446  1
  V  V11  1  0.37556250  0.87188869  0.13333407  1
  V  V12  1  0.37441978  0.12402660  0.39487019  1
  V  V13  1  0.62520888  0.12685896  0.88993093  1
  V  V14  1  0.87102093  0.37297690  0.89178088  1
  V  V15  1  0.37624667  0.12734536  0.88305634  1
  V  V16  1  0.12326265  0.12411661  0.39222863  1
  V  V17  1  0.87984544  0.37720242  0.38900095  1
  V  V18  1  0.37305606  0.87329409  0.39075201  1
  V  V19  1  0.37696977  0.62528959  0.88686818  1
  V  V20  1  0.87543236  0.62201414  0.89114205  1
  V  V21  1  0.37778261  0.62662693  0.64488475  1
  V  V22  1  0.37518064  0.62684673  0.39096271  1
  V  V23  1  0.37167845  0.12233261  0.13637087  1
  V  V24  1  0.62509421  0.87650329  0.39218161  1
  V  V25  1  0.62517983  0.37392505  0.39250089  1
  V  V26  1  0.87640814  0.62404245  0.64213028  1
  V  V27  1  0.62460636  0.12494059  0.63760781  1
  V  V28  1  0.37904407  0.37537930  0.88932563  1
  V  V29  1  0.87822835  0.87306306  0.39123811  1
  V  V30  1  0.87644570  0.37495279  0.64193318  1
  V  V31  1  0.87304792  0.37446237  0.13338279  1
  Fe  Fe32  1  0.62479320  0.87420026  0.63599287  1
  Fe  Fe33  1  0.37799814  0.87801815  0.87679426  1
  Fe  Fe34  1  0.37263754  0.62449567  0.12795187  1
  Fe  Fe35  1  0.62411203  0.37419051  0.12859523  1
  Fe  Fe36  1  0.12689770  0.87467792  0.87919810  1
  Fe  Fe37  1  0.87263341  0.87408137  0.89312045  1
  Fe  Fe38  1  0.12490400  0.87329688  0.64769158  1
  Fe  Fe39  1  0.62450771  0.12381060  0.38536282  1
  Fe  Fe40  1  0.62221591  0.87625452  0.12661024  1
  Fe  Fe41  1  0.12751835  0.87550987  0.12960370  1
  Fe  Fe42  1  0.12672857  0.87728917  0.38885684  1
  Fe  Fe43  1  0.62114103  0.62421863  0.13339167  1
  Fe  Fe44  1  0.62315970  0.12620335  0.13626831  1
  Fe  Fe45  1  0.62607361  0.37496315  0.89761443  1
  Fe  Fe46  1  0.12480758  0.12595034  0.89161145  1
  Fe  Fe47  1  0.12883984  0.62503991  0.12672883  1
  Fe  Fe48  1  0.87528413  0.87560130  0.12225406  1
  Fe  Fe49  1  0.87480492  0.12878706  0.63805022  1
  Fe  Fe50  1  0.12357246  0.37485671  0.89605284  1
  Fe  Fe51  1  0.12580698  0.37306204  0.38661408  1
  Fe  Fe52  1  0.12507258  0.37472222  0.12727944  1
  Fe  Fe53  1  0.62269539  0.87350487  0.89433851  1
  Fe  Fe54  1  0.87600193  0.12597005  0.12733132  1
  Fe  Fe55  1  0.62549104  0.37611950  0.63398808  1
  Fe  Fe56  1  0.12576006  0.62272052  0.88190721  1
  Fe  Fe57  1  0.37515651  0.13121081  0.64022753  1
  Fe  Fe58  1  0.87275565  0.87690783  0.64003543  1
  Fe  Fe59  1  0.12630748  0.12487904  0.12536427  1
  Fe  Fe60  1  0.12546116  0.62173846  0.64986805  1
  Fe  Fe61  1  0.87523537  0.62608352  0.38282886  1
  Fe  Fe62  1  0.87642736  0.62425860  0.12951624  1
  Fe  Fe63  1  0.62534086  0.62659297  0.38481949  1
  Pb  Pb64  1  0.00545807  -0.00795943  -0.00457623  1
  Pb  Pb65  1  0.00072325  -0.00205333  0.23435405  1
  Pb  Pb66  1  -0.00797467  -0.00197764  0.50808836  1
  Pb  Pb67  1  -0.00569758  -0.00650870  0.75407569  1
  Pb  Pb68  1  0.00184348  0.24624290  0.00088906  1
  Pb  Pb69  1  0.00597765  0.25227025  0.23990141  1
  Pb  Pb70  1  -0.00539279  0.24508054  0.50256797  1
  Pb  Pb71  1  0.01000233  0.25040005  0.76037994  1
  Pb  Pb72  1  0.00517421  0.50594802  -0.00013245  1
  Pb  Pb73  1  0.00066368  0.50422864  0.24108295  1
  Pb  Pb74  1  0.00754808  0.51176268  0.50444166  1
  Pb  Pb75  1  0.00777021  0.49709675  0.75887515  1
  Pb  Pb76  1  0.00335388  0.75545103  -0.00660557  1
  Pb  Pb77  1  -0.00183301  0.75027180  0.23539760  1
  Pb  Pb78  1  0.00567567  0.76173789  0.50962917  1
  Pb  Pb79  1  0.00084387  0.75782985  0.75394639  1
  Pb  Pb80  1  0.24208900  -0.00645660  -0.00701539  1
  Pb  Pb81  1  0.24181181  -0.00371550  0.24792975  1
  Pb  Pb82  1  0.25011618  -0.00081676  0.50579969  1
  Pb  Pb83  1  0.23777496  0.00490427  0.75903711  1
  Pb  Pb84  1  0.24378760  0.25048278  -0.00164190  1
  Pb  Pb85  1  0.24379487  0.25537102  0.24605844  1
  Pb  Pb86  1  0.25474517  0.24630272  0.50372252  1
  Pb  Pb87  1  0.23930177  0.25146222  0.76006559  1
  Pb  Pb88  1  0.24634155  0.50519045  -0.00191883  1
  Pb  Pb89  1  0.24436543  0.49808585  0.24153764  1
  Pb  Pb90  1  0.24432052  0.50852331  0.50366437  1
  Pb  Pb91  1  0.24446399  0.49817887  0.75766950  1
  Pb  Pb92  1  0.24042798  0.75166665  -0.00777264  1
  Pb  Pb93  1  0.24159329  0.75200453  0.24486783  1
  Pb  Pb94  1  0.24050109  0.75429901  0.50966236  1
  Pb  Pb95  1  0.24322235  0.74950982  0.75488022  1
  Pb  Pb96  1  0.50479632  -0.00338511  -0.00294557  1
  Pb  Pb97  1  0.50473743  0.00412952  0.24752071  1
  Pb  Pb98  1  0.50120686  -0.00192115  0.50266958  1
  Pb  Pb99  1  0.50573751  -0.00630701  0.75395971  1
  Pb  Pb100  1  0.50771534  0.24789938  0.00369568  1
  Pb  Pb101  1  0.50285667  0.24708524  0.24859296  1
  Pb  Pb102  1  0.49872219  0.24954652  0.50093051  1
  Pb  Pb103  1  0.50715597  0.25731664  0.75210549  1
  Pb  Pb104  1  0.50108483  0.50683588  0.00495878  1
  Pb  Pb105  1  0.50465807  0.50468152  0.24531067  1
  Pb  Pb106  1  0.50321670  0.49617343  0.49972655  1
  Pb  Pb107  1  0.50472853  0.49631947  0.75349860  1
  Pb  Pb108  1  0.50060984  0.74549912  -0.00084207  1
  Pb  Pb109  1  0.50685872  0.74428331  0.24460873  1
  Pb  Pb110  1  0.50287531  0.75471772  0.50216382  1
  Pb  Pb111  1  0.50357657  0.75892201  0.75731597  1
  Pb  Pb112  1  0.75050683  -0.00388091  0.00052785  1
  Pb  Pb113  1  0.75034977  -0.00101820  0.23587748  1
  Pb  Pb114  1  0.75514739  -0.00457074  0.50338615  1
  Pb  Pb115  1  0.75387504  -0.00544291  0.75142764  1
  Pb  Pb116  1  0.74719251  0.24124337  0.00652796  1
  Pb  Pb117  1  0.74588323  0.24600338  0.24398041  1
  Pb  Pb118  1  0.74873472  0.25018272  0.49962560  1
  Pb  Pb119  1  0.74244579  0.25607000  0.75175755  1
  Pb  Pb120  1  0.75009863  0.50838539  0.00666404  1
  Pb  Pb121  1  0.74832570  0.51043742  0.24483536  1
  Pb  Pb122  1  0.74801835  0.49995386  0.49646463  1
  Pb  Pb123  1  0.74715694  0.49698246  0.75303391  1
  Pb  Pb124  1  0.75215120  0.75318182  0.00235672  1
  Pb  Pb125  1  0.75257970  0.74846472  0.23573675  1
  Pb  Pb126  1  0.75059182  0.75489824  0.49934917  1
  Pb  Pb127  1  0.74997830  0.76670485  0.76088180  1
  O  O128  1  0.13068956  0.00163197  0.15910215  1
  O  O129  1  0.12576493  0.00736410  0.41920162  1
  O  O130  1  0.12706074  0.00649585  0.66429004  1
  O  O131  1  0.12620946  0.00032707  0.90732001  1
  O  O132  1  0.12830887  0.24999267  0.15817061  1
  O  O133  1  0.12542948  0.24213274  0.41717570  1
  O  O134  1  0.12470174  0.25187339  0.67006806  1
  O  O135  1  0.12429815  0.25010477  0.91576309  1
  O  O136  1  0.12854444  0.49795560  0.15762586  1
  O  O137  1  0.12550811  0.50580919  0.41567562  1
  O  O138  1  0.12409907  0.49221953  0.67078483  1
  O  O139  1  0.12585885  0.50003964  0.91148069  1
  O  O140  1  0.13052582  0.75103015  0.15908625  1
  O  O141  1  0.12614447  0.74543019  0.41855607  1
  O  O142  1  0.12755980  0.74647889  0.66972248  1
  O  O143  1  0.12751099  0.74757617  0.90298555  1
  O  O144  1  0.37414139  0.00479494  0.16104159  1
  O  O145  1  0.37325674  -0.00174956  0.42091373  1
  O  O146  1  0.37887834  0.00105427  0.66394547  1
  O  O147  1  0.38194383  0.01054655  0.90288359  1
  O  O148  1  0.37392642  0.24859470  0.16119613  1
  O  O149  1  0.37311577  0.25155627  0.41830433  1
  O  O150  1  0.37550939  0.25959466  0.66692676  1
  O  O151  1  0.38064622  0.24805249  0.91181227  1
  O  O152  1  0.37411011  0.49064215  0.15633612  1
  O  O153  1  0.37326874  0.50258424  0.41739275  1
  O  O154  1  0.37652342  0.49503810  0.67077250  1
  O  O155  1  0.37857306  0.49537439  0.91075113  1
  O  O156  1  0.37467226  0.75712347  0.15308672  1
  O  O157  1  0.37314588  0.74962651  0.41973842  1
  O  O158  1  0.37882307  0.74029762  0.66649576  1
  O  O159  1  0.38058820  0.74111504  0.90148984  1
  O  O160  1  0.61901644  0.00002930  0.16199777  1
  O  O161  1  0.62355077  -0.00286436  0.41748657  1
  O  O162  1  0.62328492  0.00625854  0.65986842  1
  O  O163  1  0.62472993  0.00932548  0.91140666  1
  O  O164  1  0.62175218  0.25268147  0.16630645  1
  O  O165  1  0.62473702  0.25188644  0.41691114  1
  O  O166  1  0.62501828  0.24901493  0.66317868  1
  O  O167  1  0.62536867  0.24433012  0.91554331  1
  O  O168  1  0.62061620  0.49600690  0.16157042  1
  O  O169  1  0.62468824  0.49717272  0.41585975  1
  O  O170  1  0.62448008  0.50336630  0.66708140  1
  O  O171  1  0.62457095  0.50492051  0.91500163  1
  O  O172  1  0.61880158  0.75244124  0.15915219  1
  O  O173  1  0.62518564  0.75441876  0.41652034  1
  O  O174  1  0.62331423  0.73802775  0.66320726  1
  O  O175  1  0.62170476  0.73926793  0.91312446  1
  O  O176  1  0.87485345  0.00015713  0.15601570  1
  O  O177  1  0.87745235  -0.00165617  0.41789929  1
  O  O178  1  0.87303440  0.00484170  0.66771206  1
  O  O179  1  0.87022864  0.00857354  0.90828623  1
  O  O180  1  0.87496408  0.25702103  0.16072183  1
  O  O181  1  0.87606781  0.25210656  0.41706165  1
  O  O182  1  0.87478871  0.25829968  0.66502652  1
  O  O183  1  0.87107153  0.25240647  0.91331720  1
  O  O184  1  0.87551308  0.49207213  0.16049395  1
  O  O185  1  0.87667767  0.49312039  0.41206594  1
  O  O186  1  0.87386396  0.49699056  0.67001234  1
  O  O187  1  0.87092110  0.50000832  0.91472231  1
  O  O188  1  0.87498787  0.75113764  0.15489431  1
  O  O189  1  0.87612977  0.75679342  0.41229025  1
  O  O190  1  0.87027763  0.73785335  0.66470923  1
  O  O191  1  0.87109500  0.73927426  0.91020374  1
  O  O192  1  0.00129447  0.12745529  0.15687690  1
  O  O193  1  0.00315491  0.12504046  0.41731314  1
  O  O194  1  0.00662736  0.12916937  0.66765967  1
  O  O195  1  -0.00859680  0.12888798  0.90844193  1
  O  O196  1  -0.00490870  0.37419937  0.15705087  1
  O  O197  1  -0.00397960  0.37206726  0.41366249  1
  O  O198  1  -0.00318358  0.37564506  0.66761759  1
  O  O199  1  -0.01202942  0.37603223  0.91569937  1
  O  O200  1  0.00273329  0.62282227  0.15730404  1
  O  O201  1  0.00536219  0.62554909  0.41491518  1
  O  O202  1  -0.00954951  0.61947755  0.66808557  1
  O  O203  1  -0.00651774  0.62062172  0.90449022  1
  O  O204  1  0.00129170  0.87610322  0.15372996  1
  O  O205  1  -0.00277014  0.87614496  0.41584931  1
  O  O206  1  -0.00347647  0.87313176  0.66825082  1
  O  O207  1  0.00028748  0.87384042  0.90719403  1
  O  O208  1  0.25637632  0.12685681  0.16114369  1
  O  O209  1  0.24683828  0.12432043  0.42049862  1
  O  O210  1  0.24455309  0.12965670  0.66849013  1
  O  O211  1  0.26149870  0.12898939  0.90600041  1
  O  O212  1  0.25710436  0.37121265  0.16079313  1
  O  O213  1  0.25184566  0.37580728  0.41803486  1
  O  O214  1  0.25210409  0.37608341  0.66554553  1
  O  O215  1  0.26196830  0.37176824  0.91225681  1
  O  O216  1  0.25260415  0.62393303  0.16345439  1
  O  O217  1  0.24732175  0.62573050  0.41972631  1
  O  O218  1  0.26050873  0.61803680  0.66943512  1
  O  O219  1  0.25947041  0.61902147  0.90346654  1
  O  O220  1  0.25970472  0.87920623  0.16270884  1
  O  O221  1  0.25253561  0.87500427  0.42235095  1
  O  O222  1  0.25922574  0.87325309  0.66847423  1
  O  O223  1  0.25557616  0.87597532  0.90381076  1
  O  O224  1  0.48979410  0.12721706  0.16525227  1
  O  O225  1  0.49593780  0.12524125  0.41776348  1
  O  O226  1  0.50694105  0.12924103  0.66489792  1
  O  O227  1  0.50283343  0.12860797  0.90978843  1
  O  O228  1  0.49167883  0.37056178  0.16002997  1
  O  O229  1  0.49688290  0.37554416  0.41734425  1
  O  O230  1  0.49607182  0.37686807  0.66410278  1
  O  O231  1  0.49431510  0.37313229  0.91576348  1
  O  O232  1  0.49354153  0.62384717  0.16488094  1
  O  O233  1  0.49510830  0.62620664  0.41594731  1
  O  O234  1  0.50049892  0.61731595  0.66618335  1
  O  O235  1  0.49991774  0.61912222  0.91175983  1
  O  O236  1  0.48991072  0.87993385  0.16042991  1
  O  O237  1  0.49745429  0.87481213  0.41983194  1
  O  O238  1  0.49885113  0.87158784  0.66658865  1
  O  O239  1  0.49636101  0.87545313  0.91483994  1
  O  O240  1  0.75091383  0.12791042  0.16164656  1
  O  O241  1  0.75327668  0.12468629  0.41391677  1
  O  O242  1  0.74208560  0.12898346  0.66312835  1
  O  O243  1  0.74732516  0.12841528  0.91382782  1
  O  O244  1  0.75483628  0.37454003  0.15799096  1
  O  O245  1  0.75491541  0.37311193  0.41541000  1
  O  O246  1  0.75513592  0.37709923  0.66368202  1
  O  O247  1  0.75634310  0.37638117  0.91849242  1
  O  O248  1  0.74904811  0.62242862  0.15767764  1
  O  O249  1  0.75144023  0.62473674  0.41512731  1
  O  O250  1  0.74803973  0.61635515  0.66063652  1
  O  O251  1  0.74646897  0.62202586  0.91500022  1
  O  O252  1  0.74830690  0.87590007  0.15310991  1
  O  O253  1  0.75424563  0.87767825  0.41516271  1
  O  O254  1  0.74719427  0.87245527  0.66768735  1
  O  O255  1  0.74714533  0.87312646  0.91497025  1
  O  O256  1  0.12850333  0.12358957  0.02405352  1
  O  O257  1  0.12552243  0.12295090  0.30145572  1
  O  O258  1  0.12494031  0.12779319  0.55362248  1
  O  O259  1  0.12893997  0.13224132  0.78909571  1
  O  O260  1  0.12808694  0.37430556  0.02601243  1
  O  O261  1  0.12926159  0.37060094  0.28764344  1
  O  O262  1  0.12290602  0.37442880  0.55053938  1
  O  O263  1  0.12164094  0.36920471  0.79274234  1
  O  O264  1  0.13233014  0.62438466  0.02514663  1
  O  O265  1  0.12781284  0.62901237  0.30134435  1
  O  O266  1  0.12436009  0.61639707  0.54800714  1
  O  O267  1  0.12716203  0.61474135  0.77910403  1
  O  O268  1  0.13347771  0.87516645  0.02802039  1
  O  O269  1  0.13522659  0.87682841  0.28977964  1
  O  O270  1  0.12523912  0.86761027  0.54521240  1
  O  O271  1  0.12661957  0.87894655  0.77589422  1
  O  O272  1  0.37336115  0.12189127  0.04539755  1
  O  O273  1  0.37054105  0.12384691  0.30410971  1
  O  O274  1  0.36953034  0.13169871  0.54056699  1
  O  O275  1  0.37904487  0.13129185  0.79162677  1
  O  O276  1  0.37445292  0.37065357  0.04292356  1
  O  O277  1  0.37317100  0.37631875  0.29903904  1
  O  O278  1  0.37336741  0.37814544  0.55144858  1
  O  O279  1  0.38100822  0.37383580  0.79771810  1
  O  O280  1  0.37740371  0.62174740  0.02776766  1
  O  O281  1  0.37190969  0.62681644  0.30047538  1
  O  O282  1  0.37615935  0.62371195  0.55375547  1
  O  O283  1  0.38228668  0.61667280  0.79559730  1
  O  O284  1  0.37352277  0.87792096  0.04205767  1
  O  O285  1  0.37433146  0.87421898  0.30018013  1
  O  O286  1  0.37665399  0.87411508  0.55959973  1
  O  O287  1  0.38738872  0.87558045  0.77509326  1
  O  O288  1  0.62081426  0.13122290  0.03575869  1
  O  O289  1  0.61668660  0.12647401  0.28611308  1
  O  O290  1  0.62377374  0.12703978  0.54613707  1
  O  O291  1  0.62790094  0.12988899  0.79837515  1
  O  O292  1  0.62004748  0.36908381  0.02774401  1
  O  O293  1  0.62476642  0.37425057  0.30149477  1
  O  O294  1  0.62539967  0.37847291  0.53461852  1
  O  O295  1  0.62684800  0.37130948  0.79529596  1
  O  O296  1  0.61603154  0.62155585  0.03267894  1
  O  O297  1  0.61818376  0.62397376  0.28517848  1
  O  O298  1  0.62492439  0.62214709  0.54869878  1
  O  O299  1  0.62844330  0.62139581  0.79988531  1
  O  O300  1  0.61844121  0.87822173  0.02534055  1
  O  O301  1  0.62257999  0.87660182  0.30125480  1
  O  O302  1  0.62520061  0.87110483  0.53607225  1
  O  O303  1  0.62069442  0.87123199  0.79074180  1
  O  O304  1  0.87058619  0.13087707  0.02717593  1
  O  O305  1  0.87916516  0.12542657  0.30064552  1
  O  O306  1  0.88175395  0.12689479  0.53785607  1
  O  O307  1  0.86891627  0.13000296  0.80019893  1
  O  O308  1  0.87377683  0.37493523  0.04240268  1
  O  O309  1  0.87745183  0.37381699  0.29870280  1
  O  O310  1  0.87922872  0.37833067  0.55102248  1
  O  O311  1  0.86969458  0.37420706  0.80021999  1
  O  O312  1  0.87275388  0.61887047  0.02889094  1
  O  O313  1  0.87614115  0.62175336  0.28375235  1
  O  O314  1  0.87980237  0.62192085  0.55071931  1
  O  O315  1  0.86597384  0.61837541  0.80010593  1
  O  O316  1  0.87613198  0.87387783  0.01981130  1
  O  O317  1  0.87684801  0.87706585  0.30086562  1
  O  O318  1  0.87555011  0.87794198  0.53866218  1
  O  O319  1  0.86689698  0.87342406  0.78931266  1
