# generated using pymatgen
data_VFe(PbO3)2
_symmetry_space_group_name_H-M   'P 1'
_cell_length_a   15.37994424
_cell_length_b   15.38174185
_cell_length_c   18.50542437
_cell_angle_alpha   89.99448919
_cell_angle_beta   90.03929087
_cell_angle_gamma   89.99355688
_symmetry_Int_Tables_number   1
_chemical_formula_structural   VFe(PbO3)2
_chemical_formula_sum   'V32 Fe32 Pb64 O192'
_cell_volume   4377.83330910
_cell_formula_units_Z   32
loop_
 _symmetry_equiv_pos_site_id
 _symmetry_equiv_pos_as_xyz
  1  'x, y, z'
loop_
 _atom_site_type_symbol
 _atom_site_label
 _atom_site_symmetry_multiplicity
 _atom_site_fract_x
 _atom_site_fract_y
 _atom_site_fract_z
 _atom_site_occupancy
  V  V0  1  0.62534272  0.62487009  0.64021081  1
  V  V1  1  0.87315008  0.63034098  0.40219691  1
  V  V2  1  0.12218328  0.37557240  0.14515581  1
  V  V3  1  0.87279012  0.87419206  0.64296603  1
  V  V4  1  0.87738779  0.87650003  0.39127569  1
  V  V5  1  0.37517465  0.12169701  0.64064829  1
  V  V6  1  0.62617512  0.12451768  0.64134416  1
  V  V7  1  0.12408226  0.12720833  0.14239977  1
  V  V8  1  0.62618293  0.87499892  0.39093743  1
  V  V9  1  0.62552069  0.87246300  0.88945414  1
  V  V10  1  0.87579442  0.38344745  0.40282391  1
  V  V11  1  0.37974446  0.37289860  0.64000391  1
  V  V12  1  0.12673789  0.62870248  0.39244893  1
  V  V13  1  0.12920729  0.87607015  0.64246774  1
  V  V14  1  0.12461047  0.12592159  0.88556911  1
  V  V15  1  0.12306852  0.37629061  0.88383910  1
  V  V16  1  0.62350931  0.12153293  0.38738250  1
  V  V17  1  0.62578823  0.37752339  0.88721251  1
  V  V18  1  0.87871554  0.62308001  0.13990308  1
  V  V19  1  0.37428642  0.87534257  0.38889309  1
  V  V20  1  0.87309853  0.12625329  0.39787270  1
  V  V21  1  0.87767342  0.37495984  0.14270093  1
  V  V22  1  0.62592928  0.62350270  0.13942081  1
  V  V23  1  0.87032459  0.62180898  0.88372528  1
  V  V24  1  0.12219064  0.87516428  0.13858583  1
  V  V25  1  0.37695699  0.62239218  0.89008358  1
  V  V26  1  0.87768951  0.12825817  0.14069832  1
  V  V27  1  0.37569363  0.62399233  0.63865048  1
  V  V28  1  0.37950394  0.62731304  0.38546629  1
  V  V29  1  0.37284730  0.12639975  0.13667728  1
  V  V30  1  0.37792309  0.12435008  0.38744238  1
  V  V31  1  0.87080884  0.12824143  0.88460903  1
  Fe  Fe32  1  0.87628572  0.87578955  0.13286592  1
  Fe  Fe33  1  0.62831715  0.87671871  0.13130188  1
  Fe  Fe34  1  0.62034193  0.37340311  0.63311801  1
  Fe  Fe35  1  0.12473003  0.62158890  0.87641937  1
  Fe  Fe36  1  0.37370644  0.37516620  0.88475790  1
  Fe  Fe37  1  0.37289059  0.87523303  0.88678232  1
  Fe  Fe38  1  0.87477493  0.37464105  0.88142701  1
  Fe  Fe39  1  0.87510744  0.12162359  0.63017029  1
  Fe  Fe40  1  0.12609461  0.12066167  0.39577413  1
  Fe  Fe41  1  0.12415321  0.87421951  0.88034067  1
  Fe  Fe42  1  0.62205560  0.87600543  0.63806835  1
  Fe  Fe43  1  0.62614187  0.62814501  0.38336181  1
  Fe  Fe44  1  0.12514437  0.37487287  0.39802876  1
  Fe  Fe45  1  0.12009588  0.62302545  0.13406825  1
  Fe  Fe46  1  0.87398935  0.62727830  0.62873350  1
  Fe  Fe47  1  0.37416460  0.37494692  0.37931900  1
  Fe  Fe48  1  0.62904318  0.37377017  0.14298741  1
  Fe  Fe49  1  0.12829593  0.37360180  0.62665101  1
  Fe  Fe50  1  0.37453227  0.12880493  0.88509603  1
  Fe  Fe51  1  0.62524522  0.62386362  0.88542140  1
  Fe  Fe52  1  0.62670385  0.12727271  0.12901969  1
  Fe  Fe53  1  0.87557660  0.87452604  0.88500777  1
  Fe  Fe54  1  0.62403715  0.12565660  0.89043950  1
  Fe  Fe55  1  0.87193329  0.37422948  0.62589378  1
  Fe  Fe56  1  0.12458952  0.87369398  0.38640388  1
  Fe  Fe57  1  0.36990501  0.62487401  0.13360755  1
  Fe  Fe58  1  0.62548776  0.37439697  0.38441828  1
  Fe  Fe59  1  0.37332503  0.87659878  0.12961066  1
  Fe  Fe60  1  0.12715331  0.62508768  0.64565799  1
  Fe  Fe61  1  0.37973471  0.87298613  0.64223795  1
  Fe  Fe62  1  0.12767005  0.12407950  0.63073986  1
  Fe  Fe63  1  0.37247555  0.37545470  0.14307524  1
  Pb  Pb64  1  -0.00275544  -0.00510899  -0.00451865  1
  Pb  Pb65  1  0.00890054  0.00275491  0.25662205  1
  Pb  Pb66  1  0.00396007  0.00467809  0.50468875  1
  Pb  Pb67  1  -0.00097905  -0.00529699  0.74827860  1
  Pb  Pb68  1  0.00087506  0.24898133  -0.00461289  1
  Pb  Pb69  1  0.00964475  0.24957566  0.26399843  1
  Pb  Pb70  1  0.00132825  0.25381122  0.50588269  1
  Pb  Pb71  1  -0.00079199  0.25230495  0.73167044  1
  Pb  Pb72  1  0.00322821  0.50673922  -0.00503891  1
  Pb  Pb73  1  0.00139018  0.49465412  0.25856617  1
  Pb  Pb74  1  0.00932483  0.51179109  0.51249482  1
  Pb  Pb75  1  0.00028040  0.49883564  0.73551247  1
  Pb  Pb76  1  0.00440353  0.74520452  -0.00921742  1
  Pb  Pb77  1  0.00187156  0.75496223  0.24915145  1
  Pb  Pb78  1  0.00567608  0.74267007  0.51059838  1
  Pb  Pb79  1  0.00478660  0.74752520  0.75087797  1
  Pb  Pb80  1  0.25524788  -0.00625240  -0.00566836  1
  Pb  Pb81  1  0.24070495  0.00141556  0.25273024  1
  Pb  Pb82  1  0.24856492  -0.00093525  0.50152735  1
  Pb  Pb83  1  0.25328462  -0.00749414  0.75451519  1
  Pb  Pb84  1  0.25570351  0.25636501  -0.00071201  1
  Pb  Pb85  1  0.24600411  0.25570816  0.25858277  1
  Pb  Pb86  1  0.24465114  0.25099540  0.49801087  1
  Pb  Pb87  1  0.25890043  0.25151534  0.74795262  1
  Pb  Pb88  1  0.25805865  0.50154047  0.00375611  1
  Pb  Pb89  1  0.25243938  0.49874318  0.25113518  1
  Pb  Pb90  1  0.24659894  0.49755059  0.49960999  1
  Pb  Pb91  1  0.25049884  0.49605680  0.74776833  1
  Pb  Pb92  1  0.24687754  0.74435686  -0.00672377  1
  Pb  Pb93  1  0.25111472  0.74961794  0.24250531  1
  Pb  Pb94  1  0.25239869  0.74904694  0.50261552  1
  Pb  Pb95  1  0.25173394  0.75806405  0.75566613  1
  Pb  Pb96  1  0.50023005  -0.00168835  -0.00548559  1
  Pb  Pb97  1  0.50084603  -0.00182195  0.23893905  1
  Pb  Pb98  1  0.49762861  -0.01003406  0.50483146  1
  Pb  Pb99  1  0.49990790  0.00729741  0.75662073  1
  Pb  Pb100  1  0.50348288  0.25253636  -0.00099770  1
  Pb  Pb101  1  0.50278193  0.25704431  0.24662214  1
  Pb  Pb102  1  0.50466976  0.25430702  0.49546912  1
  Pb  Pb103  1  0.50172405  0.24051369  0.75819680  1
  Pb  Pb104  1  0.49174517  0.49435555  0.00551035  1
  Pb  Pb105  1  0.49956207  0.49519973  0.24749925  1
  Pb  Pb106  1  0.50672847  0.49410158  0.49372426  1
  Pb  Pb107  1  0.50343528  0.50358748  0.75277316  1
  Pb  Pb108  1  0.49288509  0.75121413  0.00042258  1
  Pb  Pb109  1  0.50095825  0.75093404  0.24143068  1
  Pb  Pb110  1  0.49949197  0.76038768  0.50528582  1
  Pb  Pb111  1  0.50216207  0.75069085  0.75270292  1
  Pb  Pb112  1  0.74835238  -0.00815573  0.00183817  1
  Pb  Pb113  1  0.75042567  -0.00160748  0.24317712  1
  Pb  Pb114  1  0.75089645  0.00143878  0.50424835  1
  Pb  Pb115  1  0.75153548  -0.00303998  0.75306970  1
  Pb  Pb116  1  0.74019653  0.25397543  0.00396114  1
  Pb  Pb117  1  0.74712327  0.25391817  0.25273896  1
  Pb  Pb118  1  0.75195671  0.25117735  0.50375354  1
  Pb  Pb119  1  0.75602039  0.25517110  0.74423962  1
  Pb  Pb120  1  0.74431500  0.49314051  0.00086703  1
  Pb  Pb121  1  0.74487314  0.50234944  0.25680315  1
  Pb  Pb122  1  0.74394307  0.49369033  0.50240358  1
  Pb  Pb123  1  0.75726728  0.49304656  0.74255946  1
  Pb  Pb124  1  0.75298440  0.75674762  0.00047061  1
  Pb  Pb125  1  0.74875011  0.74587133  0.24795127  1
  Pb  Pb126  1  0.74690211  0.75284890  0.50253513  1
  Pb  Pb127  1  0.74862714  0.74761504  0.75134639  1
  O  O128  1  0.12210894  0.00004989  0.16551196  1
  O  O129  1  0.12627582  -0.00552896  0.42074206  1
  O  O130  1  0.12762539  -0.00591530  0.66310736  1
  O  O131  1  0.12382450  0.00918053  0.90850940  1
  O  O132  1  0.12124606  0.25219482  0.17217184  1
  O  O133  1  0.12445144  0.24581975  0.41715218  1
  O  O134  1  0.13088978  0.24978766  0.65527422  1
  O  O135  1  0.12238554  0.25187138  0.91243346  1
  O  O136  1  0.12009295  0.49258221  0.16584855  1
  O  O137  1  0.12440939  0.51004586  0.41584710  1
  O  O138  1  0.12829877  0.49620732  0.66092609  1
  O  O139  1  0.12137585  0.49385387  0.90521283  1
  O  O140  1  0.11985359  0.75708077  0.15958155  1
  O  O141  1  0.12534975  0.74768923  0.41848386  1
  O  O142  1  0.12549640  0.75814391  0.66548128  1
  O  O143  1  0.12231034  0.74583846  0.90654784  1
  O  O144  1  0.36970183  0.00677459  0.16142737  1
  O  O145  1  0.37846489  -0.00101756  0.41408104  1
  O  O146  1  0.37761077  0.00565462  0.66144794  1
  O  O147  1  0.37323409  0.00234310  0.91169198  1
  O  O148  1  0.36826468  0.24181103  0.16458200  1
  O  O149  1  0.37821723  0.24144198  0.40792170  1
  O  O150  1  0.37766337  0.25202650  0.66030778  1
  O  O151  1  0.37202316  0.25309101  0.91816644  1
  O  O152  1  0.37198328  0.50257000  0.16889453  1
  O  O153  1  0.37110390  0.51099350  0.40642821  1
  O  O154  1  0.37945838  0.50205067  0.66300631  1
  O  O155  1  0.37501406  0.50129835  0.91610180  1
  O  O156  1  0.37401534  0.75137060  0.16243957  1
  O  O157  1  0.37353609  0.74611366  0.41547058  1
  O  O158  1  0.37763538  0.74127095  0.66436454  1
  O  O159  1  0.37609542  0.74271898  0.91086806  1
  O  O160  1  0.62727797  0.00471143  0.16125620  1
  O  O161  1  0.62299476  -0.00177090  0.41792051  1
  O  O162  1  0.61959206  0.00622813  0.66653651  1
  O  O163  1  0.62653127  -0.00692510  0.91024407  1
  O  O164  1  0.62789159  0.24620103  0.16809532  1
  O  O165  1  0.62455601  0.24250670  0.41147310  1
  O  O166  1  0.61991417  0.24287606  0.66206672  1
  O  O167  1  0.62709179  0.25903850  0.91269736  1
  O  O168  1  0.63140206  0.50567359  0.16522517  1
  O  O169  1  0.62648486  0.50210477  0.41247814  1
  O  O170  1  0.62158155  0.50649572  0.66073617  1
  O  O171  1  0.62715444  0.49503023  0.91551085  1
  O  O172  1  0.63102365  0.74419749  0.16030024  1
  O  O173  1  0.62505328  0.75495054  0.41501174  1
  O  O174  1  0.62192112  0.74411871  0.66607286  1
  O  O175  1  0.62660306  0.75332583  0.91403725  1
  O  O176  1  0.87910595  0.00991198  0.16241531  1
  O  O177  1  0.87041518  -0.00557606  0.41775946  1
  O  O178  1  0.87263785  -0.00537066  0.66564534  1
  O  O179  1  0.87785349  0.01149456  0.91135165  1
  O  O180  1  0.88033840  0.24827483  0.17105702  1
  O  O181  1  0.87128477  0.24234218  0.41514677  1
  O  O182  1  0.87042038  0.24676347  0.65617715  1
  O  O183  1  0.87981183  0.24509095  0.91168709  1
  O  O184  1  0.87881969  0.49788176  0.17218529  1
  O  O185  1  0.87487513  0.50044285  0.41905532  1
  O  O186  1  0.87034536  0.50146589  0.65169517  1
  O  O187  1  0.87360802  0.50353365  0.90993888  1
  O  O188  1  0.87761922  0.74532842  0.16194446  1
  O  O189  1  0.87298998  0.75897590  0.41863575  1
  O  O190  1  0.87299105  0.75616729  0.66418177  1
  O  O191  1  0.87439489  0.74213513  0.90793285  1
  O  O192  1  0.00038313  0.12757948  0.17094959  1
  O  O193  1  -0.00900577  0.11868782  0.41660218  1
  O  O194  1  0.00119853  0.12116139  0.65594699  1
  O  O195  1  0.00336549  0.12826973  0.91291738  1
  O  O196  1  0.00116735  0.37296113  0.17579311  1
  O  O197  1  -0.00703200  0.37167638  0.42101024  1
  O  O198  1  -0.00024882  0.37319075  0.64797374  1
  O  O199  1  0.00453598  0.37357778  0.90987430  1
  O  O200  1  -0.00250600  0.62304749  0.17160525  1
  O  O201  1  0.00571395  0.62920527  0.41964724  1
  O  O202  1  -0.00327658  0.62817575  0.66290179  1
  O  O203  1  -0.00778301  0.62146705  0.90717415  1
  O  O204  1  0.00285955  0.87851643  0.16437319  1
  O  O205  1  -0.00750034  0.87670244  0.41383448  1
  O  O206  1  -0.00134052  0.87593925  0.66226929  1
  O  O207  1  0.00040203  0.87824034  0.91211511  1
  O  O208  1  0.24632453  0.12530787  0.16804930  1
  O  O209  1  0.26160528  0.11986963  0.41293300  1
  O  O210  1  0.25877816  0.12544275  0.66087826  1
  O  O211  1  0.24038078  0.13016707  0.91164113  1
  O  O212  1  0.23945262  0.37212240  0.16671946  1
  O  O213  1  0.25488074  0.37577308  0.41524787  1
  O  O214  1  0.26090294  0.37738688  0.65974749  1
  O  O215  1  0.23929875  0.37522885  0.91285472  1
  O  O216  1  0.24320006  0.62580640  0.16456418  1
  O  O217  1  0.24809223  0.62954606  0.41351956  1
  O  O218  1  0.26032539  0.62299861  0.66192462  1
  O  O219  1  0.25529280  0.62172816  0.90740373  1
  O  O220  1  0.24138873  0.87799621  0.15951291  1
  O  O221  1  0.25500782  0.87198554  0.41403471  1
  O  O222  1  0.24881753  0.87455940  0.66273040  1
  O  O223  1  0.24641734  0.87359831  0.91407895  1
  O  O224  1  0.49109220  0.12545295  0.15403051  1
  O  O225  1  0.49807508  0.12035765  0.41491784  1
  O  O226  1  0.49697809  0.12655493  0.66770791  1
  O  O227  1  0.49939084  0.12845007  0.91807466  1
  O  O228  1  0.50062604  0.37491899  0.16362724  1
  O  O229  1  0.49743532  0.37532205  0.41015178  1
  O  O230  1  0.49549058  0.37666429  0.66602812  1
  O  O231  1  0.50627108  0.37688329  0.90945062  1
  O  O232  1  0.50828159  0.62473070  0.15830622  1
  O  O233  1  0.49432186  0.62792216  0.40532597  1
  O  O234  1  0.49871047  0.62400461  0.66714718  1
  O  O235  1  0.49635131  0.62197363  0.91611222  1
  O  O236  1  0.50094753  0.87578621  0.15960693  1
  O  O237  1  0.49855502  0.87312888  0.41608003  1
  O  O238  1  0.50172091  0.87407296  0.67288076  1
  O  O239  1  0.50519596  0.87290707  0.90901728  1
  O  O240  1  0.76030707  0.12881144  0.16113735  1
  O  O241  1  0.74829903  0.11887737  0.41680892  1
  O  O242  1  0.74283690  0.12135709  0.66019439  1
  O  O243  1  0.75664688  0.12846870  0.90513721  1
  O  O244  1  0.75893901  0.37359665  0.17060069  1
  O  O245  1  0.75364725  0.37275837  0.41491883  1
  O  O246  1  0.74435805  0.37357150  0.65833001  1
  O  O247  1  0.74721348  0.37572218  0.91281900  1
  O  O248  1  0.75415760  0.62326252  0.16655653  1
  O  O249  1  0.75123322  0.62859547  0.42063244  1
  O  O250  1  0.74383373  0.62909558  0.65656356  1
  O  O251  1  0.75468740  0.62376429  0.91312021  1
  O  O252  1  0.75334901  0.87688331  0.16536601  1
  O  O253  1  0.75103628  0.87559560  0.41644581  1
  O  O254  1  0.75120684  0.87574209  0.66498181  1
  O  O255  1  0.74805339  0.87482521  0.91347496  1
  O  O256  1  0.12232666  0.13008680  0.05177253  1
  O  O257  1  0.12250485  0.11516877  0.29372276  1
  O  O258  1  0.13180936  0.11572860  0.52983891  1
  O  O259  1  0.12424769  0.12799823  0.79480010  1
  O  O260  1  0.11739489  0.37176494  0.05458953  1
  O  O261  1  0.11952689  0.37220432  0.29644595  1
  O  O262  1  0.13199173  0.37805696  0.52453373  1
  O  O263  1  0.12560524  0.37237552  0.79287424  1
  O  O264  1  0.11378095  0.62165345  0.03434729  1
  O  O265  1  0.12364127  0.63007831  0.30143863  1
  O  O266  1  0.12275909  0.62845996  0.54314337  1
  O  O267  1  0.12236775  0.62332158  0.77562833  1
  O  O268  1  0.11916119  0.87906852  0.04763295  1
  O  O269  1  0.12001679  0.87889366  0.28672036  1
  O  O270  1  0.12771494  0.87461896  0.55084346  1
  O  O271  1  0.12965329  0.87761278  0.78006166  1
  O  O272  1  0.36446810  0.12795755  0.04582317  1
  O  O273  1  0.37877128  0.12132280  0.29671734  1
  O  O274  1  0.37923954  0.12547565  0.54964985  1
  O  O275  1  0.37867258  0.13370660  0.78442311  1
  O  O276  1  0.36735746  0.38297083  0.04156790  1
  O  O277  1  0.36907878  0.37304083  0.27847597  1
  O  O278  1  0.38140137  0.37461521  0.54877815  1
  O  O279  1  0.36651298  0.37397530  0.78538324  1
  O  O280  1  0.37245312  0.61847125  0.03351162  1
  O  O281  1  0.37313315  0.63270058  0.29425103  1
  O  O282  1  0.37867996  0.62364478  0.54748554  1
  O  O283  1  0.38068614  0.61886574  0.79878191  1
  O  O284  1  0.37445068  0.87433134  0.02957032  1
  O  O285  1  0.37660232  0.87465268  0.29784886  1
  O  O286  1  0.38500893  0.87128852  0.54101199  1
  O  O287  1  0.36323203  0.87416878  0.78502423  1
  O  O288  1  0.63073436  0.13462559  0.02852840  1
  O  O289  1  0.62411869  0.11967645  0.29655603  1
  O  O290  1  0.62054783  0.12260440  0.55007791  1
  O  O291  1  0.61450351  0.12586318  0.78967542  1
  O  O292  1  0.63698600  0.37323989  0.04242999  1
  O  O293  1  0.62940067  0.37385045  0.28335709  1
  O  O294  1  0.61695232  0.37642448  0.53254697  1
  O  O295  1  0.62768508  0.37914793  0.79581727  1
  O  O296  1  0.63066645  0.62070759  0.04844630  1
  O  O297  1  0.63334319  0.62817759  0.28400349  1
  O  O298  1  0.61864330  0.62751457  0.54906978  1
  O  O299  1  0.62347225  0.62380741  0.78628733  1
  O  O300  1  0.63493240  0.87637081  0.03180180  1
  O  O301  1  0.62538905  0.87744733  0.29971874  1
  O  O302  1  0.61578351  0.87250033  0.53807771  1
  O  O303  1  0.62997051  0.87044395  0.79781325  1
  O  O304  1  0.88194664  0.13287334  0.04993617  1
  O  O305  1  0.87188659  0.12217982  0.30682022  1
  O  O306  1  0.86717846  0.11729635  0.53009278  1
  O  O307  1  0.87590407  0.12739552  0.79313576  1
  O  O308  1  0.87978180  0.37524508  0.05164054  1
  O  O309  1  0.87811244  0.37758045  0.31102986  1
  O  O310  1  0.86642609  0.36677554  0.52378335  1
  O  O311  1  0.86699137  0.37299348  0.78226794  1
  O  O312  1  0.88004773  0.61786353  0.04896418  1
  O  O313  1  0.87792060  0.62900389  0.31082859  1
  O  O314  1  0.88338023  0.63450287  0.52792522  1
  O  O315  1  0.86733372  0.62216883  0.79231122  1
  O  O316  1  0.87077169  0.87980002  0.03277114  1
  O  O317  1  0.87495478  0.87640720  0.30004062  1
  O  O318  1  0.87300178  0.87551659  0.55180291  1
  O  O319  1  0.87190430  0.88149168  0.78525462  1
