# generated using pymatgen
data_VFe(PbO3)2
_symmetry_space_group_name_H-M   'P 1'
_cell_length_a   15.38010820
_cell_length_b   15.37668523
_cell_length_c   18.53022805
_cell_angle_alpha   89.96361259
_cell_angle_beta   90.01586901
_cell_angle_gamma   89.98469740
_symmetry_Int_Tables_number   1
_chemical_formula_structural   VFe(PbO3)2
_chemical_formula_sum   'V32 Fe32 Pb64 O192'
_cell_volume   4382.30660639
_cell_formula_units_Z   32
loop_
 _symmetry_equiv_pos_site_id
 _symmetry_equiv_pos_as_xyz
  1  'x, y, z'
loop_
 _atom_site_type_symbol
 _atom_site_label
 _atom_site_symmetry_multiplicity
 _atom_site_fract_x
 _atom_site_fract_y
 _atom_site_fract_z
 _atom_site_occupancy
  V  V0  1  0.37475578  0.37428788  0.39151981  1
  V  V1  1  0.38044931  0.62434244  0.38785074  1
  V  V2  1  0.37473347  0.37575805  0.88793539  1
  V  V3  1  0.12226259  0.87381365  0.63874204  1
  V  V4  1  0.87818430  0.62234601  0.13896275  1
  V  V5  1  0.87375874  0.87570639  0.38471120  1
  V  V6  1  0.12979815  0.62589263  0.38728566  1
  V  V7  1  0.37630394  0.62746573  0.89297973  1
  V  V8  1  0.87560761  0.37625289  0.14386605  1
  V  V9  1  0.12604732  0.62544070  0.63786167  1
  V  V10  1  0.37407718  0.12420997  0.88983432  1
  V  V11  1  0.12644219  0.37571145  0.14278648  1
  V  V12  1  0.87531675  0.62588428  0.39150770  1
  V  V13  1  0.12522894  0.62307681  0.89290670  1
  V  V14  1  0.87599433  0.87122563  0.89310878  1
  V  V15  1  0.87546257  0.12478644  0.89208232  1
  V  V16  1  0.62571703  0.37311723  0.88427647  1
  V  V17  1  0.37275990  0.62876191  0.63551044  1
  V  V18  1  0.87276209  0.87713078  0.64239434  1
  V  V19  1  0.87085011  0.12521010  0.38829053  1
  V  V20  1  0.62309704  0.12103771  0.64052473  1
  V  V21  1  0.37821778  0.87517964  0.13968484  1
  V  V22  1  0.87576019  0.12068123  0.63800920  1
  V  V23  1  0.62689654  0.12263235  0.13732187  1
  V  V24  1  0.62628805  0.62203631  0.14029496  1
  V  V25  1  0.62480678  0.87482934  0.39033206  1
  V  V26  1  0.12754961  0.37040147  0.88812524  1
  V  V27  1  0.62618676  0.37273221  0.14137382  1
  V  V28  1  0.62545640  0.12515534  0.38872240  1
  V  V29  1  0.12362162  0.12545868  0.14291854  1
  V  V30  1  0.62619709  0.37739959  0.39662397  1
  V  V31  1  0.62178687  0.87682523  0.89315376  1
  Fe  Fe32  1  0.62537524  0.87363754  0.13290318  1
  Fe  Fe33  1  0.37443422  0.37378012  0.63194363  1
  Fe  Fe34  1  0.62435123  0.12677716  0.88467610  1
  Fe  Fe35  1  0.62656299  0.87531937  0.63378219  1
  Fe  Fe36  1  0.12395158  0.12330648  0.38590271  1
  Fe  Fe37  1  0.12155364  0.87206666  0.37772245  1
  Fe  Fe38  1  0.37814760  0.12398797  0.38750537  1
  Fe  Fe39  1  0.87468118  0.62365462  0.87932788  1
  Fe  Fe40  1  0.87327124  0.37461067  0.39494556  1
  Fe  Fe41  1  0.12681320  0.87698123  0.89300058  1
  Fe  Fe42  1  0.37390767  0.87537461  0.88573323  1
  Fe  Fe43  1  0.87894318  0.62984780  0.64020869  1
  Fe  Fe44  1  0.12573098  0.37519023  0.62534557  1
  Fe  Fe45  1  0.12224421  0.12187744  0.62831675  1
  Fe  Fe46  1  0.37232052  0.12227344  0.62569324  1
  Fe  Fe47  1  0.37478536  0.87156865  0.38644683  1
  Fe  Fe48  1  0.12365384  0.87360188  0.13837238  1
  Fe  Fe49  1  0.12523237  0.62140049  0.13472880  1
  Fe  Fe50  1  0.37550921  0.62135240  0.13498845  1
  Fe  Fe51  1  0.37756440  0.37487456  0.13911840  1
  Fe  Fe52  1  0.12401768  0.37674500  0.39585487  1
  Fe  Fe53  1  0.62365573  0.37508007  0.63168173  1
  Fe  Fe54  1  0.37370461  0.87419448  0.63190483  1
  Fe  Fe55  1  0.62586757  0.62857132  0.62845359  1
  Fe  Fe56  1  0.62394430  0.62342703  0.88358587  1
  Fe  Fe57  1  0.37555299  0.12851102  0.14491416  1
  Fe  Fe58  1  0.12643812  0.12600104  0.88546499  1
  Fe  Fe59  1  0.87495093  0.13029850  0.13752318  1
  Fe  Fe60  1  0.87775835  0.37419055  0.87996130  1
  Fe  Fe61  1  0.87453171  0.37391889  0.63134231  1
  Fe  Fe62  1  0.62667486  0.62458482  0.39584794  1
  Fe  Fe63  1  0.87082857  0.87599352  0.13383485  1
  Pb  Pb64  1  -0.00113984  -0.00439674  0.00376825  1
  Pb  Pb65  1  0.00410112  -0.00015045  0.24637792  1
  Pb  Pb66  1  0.00705818  0.00118285  0.49401853  1
  Pb  Pb67  1  0.01324171  0.00060421  0.75621081  1
  Pb  Pb68  1  -0.00443122  0.24396530  0.00169122  1
  Pb  Pb69  1  0.01060740  0.25258809  0.26178110  1
  Pb  Pb70  1  0.00753589  0.25159849  0.49869261  1
  Pb  Pb71  1  0.00297230  0.25290008  0.74037053  1
  Pb  Pb72  1  0.00242583  0.50187254  -0.00368345  1
  Pb  Pb73  1  0.00041650  0.48458660  0.26100721  1
  Pb  Pb74  1  -0.00367678  0.49678285  0.50300211  1
  Pb  Pb75  1  -0.01202402  0.49337798  0.74600876  1
  Pb  Pb76  1  0.00956650  0.75040608  0.00612631  1
  Pb  Pb77  1  0.00402905  0.75516487  0.24464595  1
  Pb  Pb78  1  -0.00717129  0.74409139  0.49980537  1
  Pb  Pb79  1  0.00265022  0.75226756  0.75471416  1
  Pb  Pb80  1  0.24534724  -0.00280524  0.00050548  1
  Pb  Pb81  1  0.25285726  -0.00260897  0.25347357  1
  Pb  Pb82  1  0.25171174  0.00057736  0.48943470  1
  Pb  Pb83  1  0.24926422  0.00101797  0.74452431  1
  Pb  Pb84  1  0.26204094  0.24961051  0.00643680  1
  Pb  Pb85  1  0.24486325  0.24473502  0.25790127  1
  Pb  Pb86  1  0.24478785  0.23819627  0.49782266  1
  Pb  Pb87  1  0.24458806  0.24307468  0.73512670  1
  Pb  Pb88  1  0.25409517  0.50452166  0.00468851  1
  Pb  Pb89  1  0.25218015  0.50016791  0.24826600  1
  Pb  Pb90  1  0.25162195  0.49359385  0.50220150  1
  Pb  Pb91  1  0.24893812  0.49695296  0.74436942  1
  Pb  Pb92  1  0.24437632  0.75066668  0.00510609  1
  Pb  Pb93  1  0.24854208  0.75313351  0.24528407  1
  Pb  Pb94  1  0.25431287  0.75901862  0.49567672  1
  Pb  Pb95  1  0.24964486  0.76317589  0.75514198  1
  Pb  Pb96  1  0.49739926  0.00675204  0.00127794  1
  Pb  Pb97  1  0.48745672  -0.00167163  0.25833735  1
  Pb  Pb98  1  0.48776099  -0.00180241  0.50094195  1
  Pb  Pb99  1  0.49102738  -0.00763559  0.74476626  1
  Pb  Pb100  1  0.49150031  0.25203866  0.00340980  1
  Pb  Pb101  1  0.49494730  0.24657298  0.25378240  1
  Pb  Pb102  1  0.49789655  0.25427825  0.50274749  1
  Pb  Pb103  1  0.49660176  0.24961722  0.74210442  1
  Pb  Pb104  1  0.49210315  0.49800329  0.00130488  1
  Pb  Pb105  1  0.50648146  0.50635757  0.25311310  1
  Pb  Pb106  1  0.50077084  0.49314111  0.50669076  1
  Pb  Pb107  1  0.50793882  0.50483248  0.74247142  1
  Pb  Pb108  1  0.50448845  0.75263066  0.00103688  1
  Pb  Pb109  1  0.49725853  0.75344751  0.25059406  1
  Pb  Pb110  1  0.50986338  0.75518467  0.50448169  1
  Pb  Pb111  1  0.50307858  0.75115954  0.74551585  1
  Pb  Pb112  1  0.75311981  -0.00620311  0.00407092  1
  Pb  Pb113  1  0.75241876  -0.00288119  0.24368946  1
  Pb  Pb114  1  0.74522644  -0.00522813  0.50026613  1
  Pb  Pb115  1  0.74481784  0.00507598  0.75584239  1
  Pb  Pb116  1  0.75424303  0.24501460  -0.00112871  1
  Pb  Pb117  1  0.75706973  0.25757680  0.25528923  1
  Pb  Pb118  1  0.74802521  0.25746944  0.50493003  1
  Pb  Pb119  1  0.75020399  0.25214179  0.74668552  1
  Pb  Pb120  1  0.75297640  0.50158686  -0.01079557  1
  Pb  Pb121  1  0.75205849  0.50040723  0.25815197  1
  Pb  Pb122  1  0.76024779  0.50376566  0.50969226  1
  Pb  Pb123  1  0.75324588  0.50102980  0.73870333  1
  Pb  Pb124  1  0.75045362  0.75462994  0.00017546  1
  Pb  Pb125  1  0.74256506  0.74193664  0.25084200  1
  Pb  Pb126  1  0.74776796  0.74725734  0.50469715  1
  Pb  Pb127  1  0.74343483  0.73663955  0.74950351  1
  O  O128  1  0.12471936  0.00638533  0.15929052  1
  O  O129  1  0.11998630  -0.00361436  0.40742358  1
  O  O130  1  0.12095053  -0.00743696  0.66047054  1
  O  O131  1  0.12415912  0.00374533  0.92079097  1
  O  O132  1  0.12247382  0.25407868  0.16878566  1
  O  O133  1  0.12302245  0.24894203  0.41413515  1
  O  O134  1  0.12243528  0.24850741  0.65367945  1
  O  O135  1  0.12774121  0.25533553  0.91168985  1
  O  O136  1  0.12230345  0.49327076  0.16542463  1
  O  O137  1  0.12291785  0.51174861  0.41559864  1
  O  O138  1  0.12783170  0.50866557  0.65646868  1
  O  O139  1  0.12814185  0.50029283  0.91453567  1
  O  O140  1  0.12421983  0.74669693  0.16328302  1
  O  O141  1  0.12051682  0.74197160  0.41147335  1
  O  O142  1  0.12431570  0.75339157  0.66641342  1
  O  O143  1  0.12689300  0.74296666  0.91632862  1
  O  O144  1  0.37822288  -0.00298913  0.16509826  1
  O  O145  1  0.37888475  -0.00300530  0.41004974  1
  O  O146  1  0.37384706  -0.00059638  0.66072184  1
  O  O147  1  0.37659239  0.00664495  0.91439225  1
  O  O148  1  0.37718513  0.25346436  0.17405523  1
  O  O149  1  0.37910820  0.25785103  0.40789277  1
  O  O150  1  0.37618204  0.24639615  0.65826963  1
  O  O151  1  0.37435903  0.24965345  0.91558460  1
  O  O152  1  0.37734304  0.49750565  0.17017224  1
  O  O153  1  0.37537715  0.50483889  0.41509773  1
  O  O154  1  0.37068590  0.51144547  0.66240280  1
  O  O155  1  0.37375739  0.50027053  0.91575003  1
  O  O156  1  0.37920888  0.75430387  0.16122914  1
  O  O157  1  0.37404246  0.74102929  0.41160946  1
  O  O158  1  0.36893984  0.74485441  0.66303361  1
  O  O159  1  0.37553081  0.74388806  0.91366118  1
  O  O160  1  0.62873924  0.00673802  0.15321243  1
  O  O161  1  0.62905711  -0.00353919  0.41228318  1
  O  O162  1  0.62982381  0.00294166  0.66657249  1
  O  O163  1  0.62508395  -0.00313688  0.91556899  1
  O  O164  1  0.62833764  0.25726657  0.16445049  1
  O  O165  1  0.62425433  0.25217110  0.41601024  1
  O  O166  1  0.62871621  0.24000585  0.66148139  1
  O  O167  1  0.62232911  0.25689474  0.91177490  1
  O  O168  1  0.62833248  0.50031861  0.16730056  1
  O  O169  1  0.62424728  0.49420096  0.41714996  1
  O  O170  1  0.62176250  0.50314068  0.65482564  1
  O  O171  1  0.62144691  0.49104109  0.91082229  1
  O  O172  1  0.62627110  0.74111145  0.16195463  1
  O  O173  1  0.62872276  0.75683954  0.41317372  1
  O  O174  1  0.62440778  0.75149477  0.66427921  1
  O  O175  1  0.62423651  0.75548494  0.91442841  1
  O  O176  1  0.87137071  0.00442770  0.16297070  1
  O  O177  1  0.86978334  0.00148428  0.41165482  1
  O  O178  1  0.87713011  -0.00262869  0.67011301  1
  O  O179  1  0.87385974  0.00228930  0.91540904  1
  O  O180  1  0.87204507  0.25661304  0.17026962  1
  O  O181  1  0.86783201  0.24144212  0.41261866  1
  O  O182  1  0.87439835  0.23906605  0.65749201  1
  O  O183  1  0.87627138  0.24807775  0.91327027  1
  O  O184  1  0.87136484  0.50241255  0.17081826  1
  O  O185  1  0.87330767  0.50813401  0.41620366  1
  O  O186  1  0.87760142  0.50130996  0.65810999  1
  O  O187  1  0.87770861  0.49793352  0.91153311  1
  O  O188  1  0.86966013  0.73827551  0.16085888  1
  O  O189  1  0.87440203  0.74918698  0.41329681  1
  O  O190  1  0.88049831  0.76129514  0.66668836  1
  O  O191  1  0.87380649  0.75441398  0.90977150  1
  O  O192  1  0.00503177  0.12962855  0.16520580  1
  O  O193  1  -0.01278494  0.12375159  0.41022295  1
  O  O194  1  -0.00717048  0.11909478  0.66064497  1
  O  O195  1  -0.00521321  0.12636053  0.91646359  1
  O  O196  1  0.00064851  0.37603739  0.16845009  1
  O  O197  1  -0.00309181  0.37795810  0.41702132  1
  O  O198  1  0.00127936  0.37442967  0.65565213  1
  O  O199  1  0.01010894  0.37638421  0.91200413  1
  O  O200  1  -0.00751440  0.62095891  0.16032033  1
  O  O201  1  -0.00263755  0.62629372  0.41381213  1
  O  O202  1  0.01104198  0.63135546  0.66384538  1
  O  O203  1  0.00559900  0.62395693  0.91179428  1
  O  O204  1  -0.00444208  0.87407791  0.16185297  1
  O  O205  1  -0.00751195  0.87276218  0.40930155  1
  O  O206  1  0.00176028  0.87529889  0.66760462  1
  O  O207  1  -0.00627463  0.87629344  0.91638231  1
  O  O208  1  0.24303534  0.12903634  0.16684970  1
  O  O209  1  0.25186148  0.12580813  0.40725028  1
  O  O210  1  0.24700716  0.12082398  0.65541787  1
  O  O211  1  0.25697472  0.12732569  0.91557613  1
  O  O212  1  0.24311105  0.37343411  0.16412162  1
  O  O213  1  0.25780865  0.38066960  0.41038664  1
  O  O214  1  0.24923813  0.37799909  0.66082514  1
  O  O215  1  0.24751241  0.37691267  0.91561688  1
  O  O216  1  0.25054446  0.62211621  0.16527678  1
  O  O217  1  0.24861933  0.62534625  0.40843939  1
  O  O218  1  0.24577114  0.62993633  0.66580383  1
  O  O219  1  0.25123579  0.62242919  0.91673880  1
  O  O220  1  0.25808031  0.87698277  0.16069890  1
  O  O221  1  0.24691474  0.86989418  0.40695995  1
  O  O222  1  0.24150242  0.87368567  0.65987754  1
  O  O223  1  0.25279627  0.87470993  0.92081782  1
  O  O224  1  0.51231687  0.13093385  0.16533870  1
  O  O225  1  0.50840915  0.12454850  0.41386586  1
  O  O226  1  0.50630793  0.12099657  0.65683161  1
  O  O227  1  0.49465517  0.12776413  0.91433470  1
  O  O228  1  0.51078831  0.37804383  0.16617006  1
  O  O229  1  0.49876662  0.37837971  0.41663399  1
  O  O230  1  0.49895773  0.37444134  0.66512849  1
  O  O231  1  0.49839958  0.37455932  0.91164529  1
  O  O232  1  0.50766956  0.62154894  0.16346598  1
  O  O233  1  0.49410787  0.62458277  0.41232122  1
  O  O234  1  0.49066534  0.62927106  0.65498035  1
  O  O235  1  0.49554775  0.62223654  0.91430910  1
  O  O236  1  0.49933377  0.87493036  0.16454628  1
  O  O237  1  0.50813299  0.87289945  0.41027404  1
  O  O238  1  0.50015746  0.87487509  0.66116718  1
  O  O239  1  0.50251884  0.87614388  0.91532817  1
  O  O240  1  0.74192177  0.13257668  0.16574793  1
  O  O241  1  0.74851538  0.12343762  0.41875786  1
  O  O242  1  0.75504994  0.11935459  0.66616195  1
  O  O243  1  0.75450573  0.12742515  0.91469924  1
  O  O244  1  0.74679043  0.37895647  0.17034111  1
  O  O245  1  0.74356476  0.37495417  0.41701472  1
  O  O246  1  0.74877374  0.37162476  0.65943941  1
  O  O247  1  0.74410192  0.37363113  0.90513381  1
  O  O248  1  0.74824569  0.62060087  0.16626537  1
  O  O249  1  0.75747878  0.62739108  0.41585488  1
  O  O250  1  0.75118206  0.62969560  0.65815258  1
  O  O251  1  0.74908626  0.62372558  0.91122139  1
  O  O252  1  0.74712284  0.87261672  0.16717023  1
  O  O253  1  0.75089363  0.87435406  0.41531136  1
  O  O254  1  0.75754870  0.87741194  0.66415999  1
  O  O255  1  0.75030833  0.87718733  0.91444268  1
  O  O256  1  0.12340590  0.13278195  0.05187852  1
  O  O257  1  0.12028090  0.13130544  0.28473706  1
  O  O258  1  0.11846023  0.12168821  0.52745095  1
  O  O259  1  0.12305694  0.12019115  0.78619002  1
  O  O260  1  0.12361930  0.37316796  0.05218768  1
  O  O261  1  0.11800716  0.37554269  0.29370236  1
  O  O262  1  0.12941691  0.37964359  0.52411223  1
  O  O263  1  0.12848659  0.37455420  0.79723796  1
  O  O264  1  0.12300458  0.62364228  0.03453449  1
  O  O265  1  0.12537993  0.62402444  0.29623515  1
  O  O266  1  0.12694718  0.63099556  0.54710141  1
  O  O267  1  0.12895042  0.62423356  0.80242163  1
  O  O268  1  0.12232788  0.86759832  0.03639698  1
  O  O269  1  0.12268261  0.87251929  0.27693829  1
  O  O270  1  0.11799326  0.87091556  0.54799082  1
  O  O271  1  0.12435371  0.87464087  0.79262040  1
  O  O272  1  0.37853676  0.13596821  0.04449898  1
  O  O273  1  0.38310996  0.12113334  0.28455231  1
  O  O274  1  0.37698276  0.12058521  0.52493982  1
  O  O275  1  0.37348895  0.12562216  0.79913245  1
  O  O276  1  0.37772542  0.36972784  0.03837842  1
  O  O277  1  0.37999226  0.38058595  0.30066555  1
  O  O278  1  0.37964903  0.38195741  0.53181799  1
  O  O279  1  0.37294695  0.37521174  0.79745596  1
  O  O280  1  0.37611220  0.61463351  0.03539069  1
  O  O281  1  0.37959486  0.62286510  0.29633181  1
  O  O282  1  0.36754854  0.62864388  0.54470861  1
  O  O283  1  0.37387716  0.62444637  0.80247496  1
  O  O284  1  0.38179787  0.87722110  0.04855670  1
  O  O285  1  0.38227754  0.87561566  0.28538594  1
  O  O286  1  0.37346486  0.87080889  0.53108201  1
  O  O287  1  0.36905146  0.87580501  0.78626739  1
  O  O288  1  0.62719194  0.13098310  0.04581829  1
  O  O289  1  0.62775784  0.12554602  0.29787130  1
  O  O290  1  0.63006911  0.11820934  0.54976371  1
  O  O291  1  0.63132399  0.12351602  0.78616698  1
  O  O292  1  0.62805123  0.37535961  0.05081421  1
  O  O293  1  0.62404247  0.37575501  0.30518196  1
  O  O294  1  0.61722888  0.36806821  0.53152787  1
  O  O295  1  0.62163588  0.37286749  0.79307951  1
  O  O296  1  0.62763008  0.61953166  0.04947294  1
  O  O297  1  0.62876095  0.62430018  0.29538432  1
  O  O298  1  0.62521381  0.63784084  0.52618811  1
  O  O299  1  0.62021433  0.62817687  0.78422942  1
  O  O300  1  0.62760376  0.86859479  0.03343049  1
  O  O301  1  0.62728430  0.87481980  0.29897827  1
  O  O302  1  0.62863546  0.87246235  0.53395019  1
  O  O303  1  0.62373411  0.87581564  0.80216411  1
  O  O304  1  0.87466683  0.13798183  0.03785694  1
  O  O305  1  0.86709385  0.12532129  0.29723796  1
  O  O306  1  0.87152624  0.11517022  0.54769117  1
  O  O307  1  0.87604194  0.12393986  0.80140142  1
  O  O308  1  0.87471358  0.37663640  0.05282896  1
  O  O309  1  0.87058244  0.38035513  0.29347653  1
  O  O310  1  0.86654011  0.37797570  0.52921126  1
  O  O311  1  0.88151381  0.37421017  0.78044690  1
  O  O312  1  0.87401019  0.61779540  0.04795306  1
  O  O313  1  0.87582070  0.62525344  0.30038126  1
  O  O314  1  0.88094600  0.63173617  0.53897330  1
  O  O315  1  0.87818507  0.62479705  0.77920113  1
  O  O316  1  0.86648170  0.87610394  0.03320072  1
  O  O317  1  0.87013589  0.87496310  0.29371392  1
  O  O318  1  0.87582904  0.87936466  0.55145791  1
  O  O319  1  0.87651449  0.87742509  0.80272070  1
