# generated using pymatgen
data_VFe(PbO3)2
_symmetry_space_group_name_H-M   'P 1'
_cell_length_a   15.38689729
_cell_length_b   15.37634247
_cell_length_c   18.49156585
_cell_angle_alpha   90.03750590
_cell_angle_beta   89.95272728
_cell_angle_gamma   90.01664679
_symmetry_Int_Tables_number   1
_chemical_formula_structural   VFe(PbO3)2
_chemical_formula_sum   'V32 Fe32 Pb64 O192'
_cell_volume   4374.99465914
_cell_formula_units_Z   32
loop_
 _symmetry_equiv_pos_site_id
 _symmetry_equiv_pos_as_xyz
  1  'x, y, z'
loop_
 _atom_site_type_symbol
 _atom_site_label
 _atom_site_symmetry_multiplicity
 _atom_site_fract_x
 _atom_site_fract_y
 _atom_site_fract_z
 _atom_site_occupancy
  V  V0  1  0.62559077  0.62442627  0.13570470  1
  V  V1  1  0.37485849  0.87492847  0.89052349  1
  V  V2  1  0.87596685  0.12579126  0.39844305  1
  V  V3  1  0.62551621  0.87843128  0.39673656  1
  V  V4  1  0.12296188  0.12304505  0.88675824  1
  V  V5  1  0.12470742  0.87594399  0.39560588  1
  V  V6  1  0.37517177  0.12853204  0.39585444  1
  V  V7  1  0.87539160  0.87451574  0.39602761  1
  V  V8  1  0.12564209  0.62274678  0.63797542  1
  V  V9  1  0.12602066  0.87076372  0.13803462  1
  V  V10  1  0.37813198  0.62427267  0.89388027  1
  V  V11  1  0.62780385  0.62824690  0.39044488  1
  V  V12  1  0.62384671  0.62272546  0.63603538  1
  V  V13  1  0.62334745  0.62544923  0.88803346  1
  V  V14  1  0.87623174  0.37490979  0.64049798  1
  V  V15  1  0.12502887  0.12676806  0.63807264  1
  V  V16  1  0.37518202  0.87554675  0.39270003  1
  V  V17  1  0.12659253  0.62596742  0.88956701  1
  V  V18  1  0.12343916  0.37397101  0.39282241  1
  V  V19  1  0.37406918  0.87234707  0.63503623  1
  V  V20  1  0.37490120  0.37464540  0.89263114  1
  V  V21  1  0.61499185  0.12403769  0.88743326  1
  V  V22  1  0.12488297  0.12359152  0.13939679  1
  V  V23  1  0.12308224  0.12346390  0.39234088  1
  V  V24  1  0.37649585  0.12295886  0.13980241  1
  V  V25  1  0.62309571  0.37816447  0.39132538  1
  V  V26  1  0.86782994  0.12634207  0.88518100  1
  V  V27  1  0.37180897  0.12547266  0.88598843  1
  V  V28  1  0.12239788  0.62491525  0.39008625  1
  V  V29  1  0.87419172  0.37417358  0.39195450  1
  V  V30  1  0.37312976  0.37687755  0.63522208  1
  V  V31  1  0.87324283  0.37189757  0.13481447  1
  Fe  Fe32  1  0.12480845  0.62401812  0.13050846  1
  Fe  Fe33  1  0.12486632  0.37671851  0.63409262  1
  Fe  Fe34  1  0.62382008  0.87437004  0.88414346  1
  Fe  Fe35  1  0.62764633  0.12532311  0.39650277  1
  Fe  Fe36  1  0.37205581  0.12753298  0.63369970  1
  Fe  Fe37  1  0.87568750  0.12745720  0.63424394  1
  Fe  Fe38  1  0.12772400  0.87505616  0.87962329  1
  Fe  Fe39  1  0.62323432  0.12762425  0.62879802  1
  Fe  Fe40  1  0.87552735  0.62610574  0.39799172  1
  Fe  Fe41  1  0.87510539  0.87597535  0.13311540  1
  Fe  Fe42  1  0.12648501  0.87239066  0.64049851  1
  Fe  Fe43  1  0.87446257  0.37379141  0.88397446  1
  Fe  Fe44  1  0.37407844  0.62682837  0.13268371  1
  Fe  Fe45  1  0.62684457  0.37600350  0.13441139  1
  Fe  Fe46  1  0.87511899  0.87468887  0.64082892  1
  Fe  Fe47  1  0.37324518  0.37483936  0.38138088  1
  Fe  Fe48  1  0.87631795  0.12325545  0.13104064  1
  Fe  Fe49  1  0.12680066  0.37486660  0.89396435  1
  Fe  Fe50  1  0.87328868  0.62358833  0.88810095  1
  Fe  Fe51  1  0.62789753  0.12502039  0.13299147  1
  Fe  Fe52  1  0.87460128  0.62183232  0.63167795  1
  Fe  Fe53  1  0.37495814  0.62301307  0.63252708  1
  Fe  Fe54  1  0.62237958  0.87254719  0.63240513  1
  Fe  Fe55  1  0.12420786  0.37307206  0.12944989  1
  Fe  Fe56  1  0.87528086  0.87597488  0.87796264  1
  Fe  Fe57  1  0.62369145  0.37529274  0.88596578  1
  Fe  Fe58  1  0.37536860  0.87798584  0.13719936  1
  Fe  Fe59  1  0.37610335  0.37304257  0.14052811  1
  Fe  Fe60  1  0.62459330  0.37761913  0.63665534  1
  Fe  Fe61  1  0.37411077  0.62711081  0.39175577  1
  Fe  Fe62  1  0.87584309  0.62598151  0.12759950  1
  Fe  Fe63  1  0.62382758  0.87464179  0.13346800  1
  Pb  Pb64  1  -0.00881227  -0.00284820  -0.00482050  1
  Pb  Pb65  1  -0.00455766  -0.00212931  0.24876013  1
  Pb  Pb66  1  -0.00671870  -0.00093568  0.51069547  1
  Pb  Pb67  1  -0.00334032  -0.00800088  0.74654417  1
  Pb  Pb68  1  0.00262355  0.25286090  -0.00315167  1
  Pb  Pb69  1  -0.00223927  0.25191851  0.24630151  1
  Pb  Pb70  1  0.00190353  0.25279953  0.50588946  1
  Pb  Pb71  1  0.00265161  0.26349504  0.75430432  1
  Pb  Pb72  1  0.00025802  0.50467859  -0.00397464  1
  Pb  Pb73  1  -0.00006534  0.50319242  0.24254141  1
  Pb  Pb74  1  -0.00019828  0.50230239  0.50390259  1
  Pb  Pb75  1  -0.00783589  0.50065242  0.75592840  1
  Pb  Pb76  1  -0.00797547  0.75445098  -0.00618154  1
  Pb  Pb77  1  -0.01002433  0.73823681  0.24941276  1
  Pb  Pb78  1  -0.00052819  0.76034562  0.51041616  1
  Pb  Pb79  1  -0.01116161  0.74900770  0.74825970  1
  Pb  Pb80  1  0.25598889  -0.00430868  -0.00086032  1
  Pb  Pb81  1  0.24818614  0.00020787  0.25189593  1
  Pb  Pb82  1  0.25248738  0.00369522  0.50551079  1
  Pb  Pb83  1  0.24620964  -0.00395274  0.74796034  1
  Pb  Pb84  1  0.25272688  0.25744477  0.00444942  1
  Pb  Pb85  1  0.25192144  0.25686997  0.25001029  1
  Pb  Pb86  1  0.24810045  0.25202283  0.50179752  1
  Pb  Pb87  1  0.24334752  0.25674739  0.75104579  1
  Pb  Pb88  1  0.25052105  0.50884931  0.00706384  1
  Pb  Pb89  1  0.25293831  0.49955839  0.24254044  1
  Pb  Pb90  1  0.25487164  0.50258872  0.49766206  1
  Pb  Pb91  1  0.24470729  0.49758477  0.75085418  1
  Pb  Pb92  1  0.25116809  0.74291400  0.00308929  1
  Pb  Pb93  1  0.25781960  0.73829774  0.25053476  1
  Pb  Pb94  1  0.24306514  0.75356860  0.50433935  1
  Pb  Pb95  1  0.24634700  0.74914741  0.75036251  1
  Pb  Pb96  1  0.50439367  -0.00669689  0.00366146  1
  Pb  Pb97  1  0.51060927  0.00265846  0.25083849  1
  Pb  Pb98  1  0.50093886  0.00890440  0.50623591  1
  Pb  Pb99  1  0.50540375  0.00003098  0.74122404  1
  Pb  Pb100  1  0.50054565  0.25772840  0.00623676  1
  Pb  Pb101  1  0.50463001  0.25205786  0.24930777  1
  Pb  Pb102  1  0.50933092  0.25467725  0.50530174  1
  Pb  Pb103  1  0.50430992  0.25185915  0.74477349  1
  Pb  Pb104  1  0.49801371  0.49160566  0.00563439  1
  Pb  Pb105  1  0.49159215  0.49890045  0.24669613  1
  Pb  Pb106  1  0.49418236  0.50371068  0.49874052  1
  Pb  Pb107  1  0.50519995  0.49597724  0.74996546  1
  Pb  Pb108  1  0.50020743  0.75843141  0.00370773  1
  Pb  Pb109  1  0.49565957  0.74844889  0.24647760  1
  Pb  Pb110  1  0.50391237  0.75351318  0.50239361  1
  Pb  Pb111  1  0.50515661  0.75205566  0.74951282  1
  Pb  Pb112  1  0.75019136  0.00354201  -0.00254640  1
  Pb  Pb113  1  0.74760289  0.00196336  0.24482850  1
  Pb  Pb114  1  0.75754860  0.00145615  0.50982443  1
  Pb  Pb115  1  0.74782568  -0.00270275  0.73880518  1
  Pb  Pb116  1  0.74143769  0.24489008  -0.00141018  1
  Pb  Pb117  1  0.74164447  0.23878832  0.24994462  1
  Pb  Pb118  1  0.74338943  0.25208314  0.50639575  1
  Pb  Pb119  1  0.74512523  0.25517287  0.74527739  1
  Pb  Pb120  1  0.75152255  0.49656845  -0.00650629  1
  Pb  Pb121  1  0.75828575  0.50730439  0.24725281  1
  Pb  Pb122  1  0.75179065  0.50209663  0.50415131  1
  Pb  Pb123  1  0.75944321  0.50149515  0.75400905  1
  Pb  Pb124  1  0.75734053  0.76223837  -0.00591805  1
  Pb  Pb125  1  0.75447565  0.75080749  0.24442088  1
  Pb  Pb126  1  0.75298873  0.76111996  0.51032225  1
  Pb  Pb127  1  0.75280248  0.75585677  0.74690089  1
  O  O128  1  0.12530877  0.00501292  0.16787134  1
  O  O129  1  0.12455178  -0.00008974  0.41993963  1
  O  O130  1  0.12884580  0.00611327  0.65932685  1
  O  O131  1  0.13115775  0.00671325  0.91127112  1
  O  O132  1  0.12417147  0.24201207  0.16368271  1
  O  O133  1  0.12395104  0.24743091  0.41904993  1
  O  O134  1  0.12652750  0.24776481  0.66413122  1
  O  O135  1  0.13027782  0.23882934  0.91527354  1
  O  O136  1  0.12289955  0.49708317  0.15988651  1
  O  O137  1  0.12212089  0.50443956  0.41106389  1
  O  O138  1  0.12756306  0.50437140  0.66393032  1
  O  O139  1  0.13205467  0.50593218  0.91281680  1
  O  O140  1  0.12634320  0.75712968  0.15671197  1
  O  O141  1  0.12424122  0.75008960  0.41820906  1
  O  O142  1  0.12784938  0.74020778  0.66536555  1
  O  O143  1  0.13295166  0.74532044  0.90815801  1
  O  O144  1  0.37172871  0.00753474  0.17019267  1
  O  O145  1  0.37308751  -0.00231116  0.41969714  1
  O  O146  1  0.37324559  -0.00812620  0.65914211  1
  O  O147  1  0.37559579  -0.00063227  0.91342237  1
  O  O148  1  0.37247649  0.23857139  0.16697848  1
  O  O149  1  0.37078253  0.24606515  0.41147108  1
  O  O150  1  0.37164860  0.25930416  0.65976221  1
  O  O151  1  0.37716768  0.25003056  0.91390977  1
  O  O152  1  0.37523629  0.50156221  0.16122447  1
  O  O153  1  0.37438822  0.49942120  0.41290312  1
  O  O154  1  0.37273904  0.49431725  0.66404462  1
  O  O155  1  0.37584722  0.49476920  0.91505457  1
  O  O156  1  0.37363763  0.75205773  0.16503904  1
  O  O157  1  0.37436127  0.75805066  0.41491813  1
  O  O158  1  0.37396517  0.75284198  0.66017170  1
  O  O159  1  0.37604732  0.75503051  0.91182673  1
  O  O160  1  0.62355531  0.00123638  0.16554459  1
  O  O161  1  0.62428912  -0.00299772  0.41949720  1
  O  O162  1  0.61997978  -0.00005741  0.65297212  1
  O  O163  1  0.62393119  0.00714148  0.90936593  1
  O  O164  1  0.62639156  0.25011891  0.16575663  1
  O  O165  1  0.62750818  0.25899854  0.41489317  1
  O  O166  1  0.62252241  0.25277503  0.66351924  1
  O  O167  1  0.62428236  0.24151634  0.91101067  1
  O  O168  1  0.62749675  0.50673749  0.16367891  1
  O  O169  1  0.62787260  0.49881814  0.41435630  1
  O  O170  1  0.62229400  0.50469386  0.66286974  1
  O  O171  1  0.61839801  0.50649950  0.91350212  1
  O  O172  1  0.62637218  0.74206263  0.16337088  1
  O  O173  1  0.62599573  0.74641202  0.41520497  1
  O  O174  1  0.62141336  0.74126135  0.66200530  1
  O  O175  1  0.61802303  0.74292340  0.91211182  1
  O  O176  1  0.87915560  -0.00037090  0.16713249  1
  O  O177  1  0.87666560  -0.00285560  0.42035013  1
  O  O178  1  0.87628376  0.00325039  0.66368919  1
  O  O179  1  0.87692359  0.00788155  0.90735655  1
  O  O180  1  0.87598820  0.25395728  0.16100006  1
  O  O181  1  0.87710254  0.25580841  0.41860522  1
  O  O182  1  0.87807717  0.25660829  0.66196943  1
  O  O183  1  0.87677299  0.24111042  0.91092089  1
  O  O184  1  0.87671111  0.49416093  0.15885702  1
  O  O185  1  0.87667188  0.49191412  0.41692353  1
  O  O186  1  0.87614065  0.49611209  0.66490638  1
  O  O187  1  0.87584135  0.49891108  0.91528435  1
  O  O188  1  0.87683929  0.75085197  0.16329036  1
  O  O189  1  0.87525492  0.75732379  0.41731073  1
  O  O190  1  0.87543703  0.74471763  0.65966785  1
  O  O191  1  0.87631678  0.74991555  0.90789821  1
  O  O192  1  0.00584750  0.12460863  0.16323910  1
  O  O193  1  0.00152465  0.12462563  0.42125440  1
  O  O194  1  0.00923541  0.12678046  0.66227472  1
  O  O195  1  0.00555795  0.12410203  0.90622734  1
  O  O196  1  -0.00592912  0.37129180  0.16162701  1
  O  O197  1  -0.00296823  0.37426247  0.41870282  1
  O  O198  1  -0.00268674  0.37683235  0.66399096  1
  O  O199  1  0.00056906  0.37046165  0.91427226  1
  O  O200  1  0.00014326  0.62591494  0.16279260  1
  O  O201  1  0.00750032  0.62775987  0.41906110  1
  O  O202  1  0.00720011  0.62145046  0.65899534  1
  O  O203  1  0.00954912  0.62394941  0.90638413  1
  O  O204  1  0.01038959  0.87922197  0.16561949  1
  O  O205  1  -0.00280075  0.87562374  0.41989866  1
  O  O206  1  0.00277223  0.87354885  0.66303017  1
  O  O207  1  0.00325864  0.87819874  0.90467949  1
  O  O208  1  0.24745118  0.12364413  0.16616155  1
  O  O209  1  0.24952494  0.12257349  0.41869409  1
  O  O210  1  0.24488726  0.12743864  0.66471864  1
  O  O211  1  0.25333058  0.12420301  0.91424862  1
  O  O212  1  0.24801762  0.36942779  0.16307952  1
  O  O213  1  0.24493131  0.37423505  0.41137789  1
  O  O214  1  0.25332797  0.37666250  0.66323006  1
  O  O215  1  0.25833827  0.37120239  0.91603953  1
  O  O216  1  0.24763766  0.62622759  0.16512408  1
  O  O217  1  0.24018479  0.62740022  0.41423221  1
  O  O218  1  0.24686442  0.62268378  0.66470403  1
  O  O219  1  0.25391200  0.62500879  0.91580484  1
  O  O220  1  0.24250000  0.88253398  0.16568945  1
  O  O221  1  0.25297705  0.87646289  0.41759713  1
  O  O222  1  0.25632550  0.87212395  0.66299352  1
  O  O223  1  0.25624689  0.87738958  0.91300669  1
  O  O224  1  0.49324632  0.12409277  0.16055121  1
  O  O225  1  0.49219392  0.12412347  0.41452948  1
  O  O226  1  0.49612525  0.12696727  0.66075954  1
  O  O227  1  0.49925587  0.12376008  0.91096518  1
  O  O228  1  0.50297843  0.37395203  0.16815350  1
  O  O229  1  0.50533484  0.37586073  0.40855516  1
  O  O230  1  0.49164387  0.37743511  0.65932178  1
  O  O231  1  0.49495554  0.37281169  0.91671015  1
  O  O232  1  0.50614943  0.62545669  0.15890524  1
  O  O233  1  0.50893711  0.62397864  0.41441313  1
  O  O234  1  0.50305687  0.62255421  0.66173693  1
  O  O235  1  0.49832563  0.62430384  0.91870628  1
  O  O236  1  0.49977528  0.87622274  0.16945883  1
  O  O237  1  0.49521597  0.87588647  0.41660103  1
  O  O238  1  0.49255289  0.87115176  0.65970831  1
  O  O239  1  0.49435832  0.87737418  0.91464783  1
  O  O240  1  0.75318479  0.12428556  0.16539425  1
  O  O241  1  0.75654951  0.12617607  0.41951514  1
  O  O242  1  0.74882633  0.12900857  0.65835486  1
  O  O243  1  0.74980293  0.12427149  0.90414919  1
  O  O244  1  0.75748705  0.37609380  0.16194816  1
  O  O245  1  0.75379727  0.37566683  0.41552615  1
  O  O246  1  0.75622027  0.37660819  0.66062899  1
  O  O247  1  0.74835320  0.37312833  0.91125664  1
  O  O248  1  0.74805024  0.62422594  0.16155919  1
  O  O249  1  0.74323995  0.62286280  0.41804937  1
  O  O250  1  0.74222311  0.62186598  0.65833882  1
  O  O251  1  0.73978745  0.62414740  0.90753457  1
  O  O252  1  0.74891855  0.87436473  0.16325563  1
  O  O253  1  0.75406584  0.87595891  0.41832971  1
  O  O254  1  0.74664016  0.87174692  0.65957783  1
  O  O255  1  0.74913463  0.87635323  0.90717066  1
  O  O256  1  0.12656932  0.12095771  0.04871259  1
  O  O257  1  0.12326657  0.12502651  0.30171466  1
  O  O258  1  0.12767044  0.12992439  0.54629473  1
  O  O259  1  0.12800423  0.12534915  0.79558563  1
  O  O260  1  0.12682728  0.36447527  0.02879187  1
  O  O261  1  0.11618676  0.36949739  0.30183985  1
  O  O262  1  0.12214033  0.37250878  0.53434503  1
  O  O263  1  0.12943403  0.36946706  0.79198303  1
  O  O264  1  0.13250951  0.62636662  0.03038658  1
  O  O265  1  0.12023150  0.62920460  0.29886664  1
  O  O266  1  0.12882779  0.62395376  0.54637735  1
  O  O267  1  0.13344926  0.62322208  0.79797508  1
  O  O268  1  0.12640630  0.87858851  0.04675177  1
  O  O269  1  0.12395901  0.87488142  0.30503620  1
  O  O270  1  0.12659557  0.86404183  0.53890057  1
  O  O271  1  0.13665424  0.87689759  0.77903073  1
  O  O272  1  0.37274036  0.12100405  0.04861509  1
  O  O273  1  0.37123376  0.12062554  0.30515050  1
  O  O274  1  0.36993871  0.12321114  0.53363290  1
  O  O275  1  0.37275955  0.12539657  0.79501304  1
  O  O276  1  0.38235410  0.36532308  0.03926896  1
  O  O277  1  0.37432579  0.37120743  0.28154937  1
  O  O278  1  0.37090750  0.37903869  0.54325540  1
  O  O279  1  0.37540721  0.37529435  0.80152838  1
  O  O280  1  0.36489734  0.62672466  0.03184118  1
  O  O281  1  0.37161791  0.63221235  0.29145451  1
  O  O282  1  0.37406172  0.61679752  0.53205189  1
  O  O283  1  0.37700737  0.62316405  0.80252242  1
  O  O284  1  0.37823177  0.88298360  0.03734688  1
  O  O285  1  0.37410498  0.87927357  0.30191053  1
  O  O286  1  0.37299288  0.87236605  0.54348420  1
  O  O287  1  0.37593890  0.87611805  0.79950298  1
  O  O288  1  0.63410416  0.12382642  0.03247681  1
  O  O289  1  0.62783395  0.12734213  0.29591593  1
  O  O290  1  0.61886567  0.13530328  0.52584716  1
  O  O291  1  0.61527424  0.12542368  0.79585364  1
  O  O292  1  0.61860431  0.37204562  0.03394940  1
  O  O293  1  0.62981437  0.37897381  0.30062373  1
  O  O294  1  0.62453147  0.36990910  0.53600220  1
  O  O295  1  0.61729274  0.37590606  0.78510450  1
  O  O296  1  0.62759608  0.62487088  0.04511840  1
  O  O297  1  0.62951695  0.62620610  0.29976497  1
  O  O298  1  0.62251742  0.62297806  0.54447236  1
  O  O299  1  0.61685081  0.62432423  0.79666790  1
  O  O300  1  0.61488179  0.87461783  0.03248302  1
  O  O301  1  0.62463545  0.87382510  0.30552119  1
  O  O302  1  0.62340589  0.86224789  0.53121133  1
  O  O303  1  0.61515471  0.86940349  0.78378900  1
  O  O304  1  0.87245031  0.11664411  0.03132369  1
  O  O305  1  0.88009401  0.12548989  0.30713346  1
  O  O306  1  0.88083181  0.12040083  0.53389059  1
  O  O307  1  0.87411799  0.12823287  0.79449026  1
  O  O308  1  0.87398532  0.37128312  0.04367516  1
  O  O309  1  0.87641332  0.37262453  0.30125662  1
  O  O310  1  0.87855478  0.37800777  0.54886561  1
  O  O311  1  0.87837511  0.37897377  0.78312610  1
  O  O312  1  0.87936820  0.62729939  0.02755550  1
  O  O313  1  0.87752526  0.62547158  0.29733521  1
  O  O314  1  0.87477092  0.61489284  0.52983795  1
  O  O315  1  0.87525268  0.61413235  0.78598091  1
  O  O316  1  0.88107756  0.87387066  0.03236014  1
  O  O317  1  0.87742126  0.87772759  0.30497874  1
  O  O318  1  0.87432402  0.87759207  0.53778704  1
  O  O319  1  0.87459977  0.87297450  0.77628397  1
