# generated using pymatgen
data_VFe(PbO3)2
_symmetry_space_group_name_H-M   'P 1'
_cell_length_a   15.38370421
_cell_length_b   15.38442226
_cell_length_c   18.57822345
_cell_angle_alpha   89.98006359
_cell_angle_beta   89.98675380
_cell_angle_gamma   90.00365360
_symmetry_Int_Tables_number   1
_chemical_formula_structural   VFe(PbO3)2
_chemical_formula_sum   'V32 Fe32 Pb64 O192'
_cell_volume   4396.89663080
_cell_formula_units_Z   32
loop_
 _symmetry_equiv_pos_site_id
 _symmetry_equiv_pos_as_xyz
  1  'x, y, z'
loop_
 _atom_site_type_symbol
 _atom_site_label
 _atom_site_symmetry_multiplicity
 _atom_site_fract_x
 _atom_site_fract_y
 _atom_site_fract_z
 _atom_site_occupancy
  V  V0  1  0.87341003  0.62648158  0.38983300  1
  V  V1  1  0.62484641  0.36865485  0.13723840  1
  V  V2  1  0.12540583  0.37691771  0.64291808  1
  V  V3  1  0.62527360  0.62355677  0.63524199  1
  V  V4  1  0.37785666  0.87431907  0.14130016  1
  V  V5  1  0.12451600  0.12787763  0.39355631  1
  V  V6  1  0.62248766  0.62243795  0.88657683  1
  V  V7  1  0.37608511  0.12466125  0.39046952  1
  V  V8  1  0.62478782  0.61916499  0.14373537  1
  V  V9  1  0.36998528  0.87492436  0.39465709  1
  V  V10  1  0.37403509  0.62212027  0.63717085  1
  V  V11  1  0.62633001  0.87644970  0.39620564  1
  V  V12  1  0.37384114  0.12638241  0.63888680  1
  V  V13  1  0.87502843  0.87417797  0.63903287  1
  V  V14  1  0.37640687  0.12282173  0.88761725  1
  V  V15  1  0.37187825  0.87695786  0.88854084  1
  V  V16  1  0.62630080  0.37362071  0.38963883  1
  V  V17  1  0.37461601  0.37694859  0.13775026  1
  V  V18  1  0.12351862  0.37529137  0.38843041  1
  V  V19  1  0.62402481  0.12703469  0.39226171  1
  V  V20  1  0.62354035  0.12413435  0.63729383  1
  V  V21  1  0.87588941  0.87404676  0.13643131  1
  V  V22  1  0.12026327  0.87536093  0.88374485  1
  V  V23  1  0.13131133  0.87196231  0.63741569  1
  V  V24  1  0.62060463  0.87154280  0.88947904  1
  V  V25  1  0.62521977  0.12219847  0.88762587  1
  V  V26  1  0.12588631  0.87682469  0.14137073  1
  V  V27  1  0.62462579  0.37669464  0.64352057  1
  V  V28  1  0.87861771  0.87844112  0.39232351  1
  V  V29  1  0.87496644  0.62301286  0.64399620  1
  V  V30  1  0.62777577  0.87450516  0.13968175  1
  V  V31  1  0.87522382  0.12395061  0.13757772  1
  Fe  Fe32  1  0.87038875  0.87606237  0.88400270  1
  Fe  Fe33  1  0.12344522  0.62493441  0.38475962  1
  Fe  Fe34  1  0.12905813  0.37499144  0.88724363  1
  Fe  Fe35  1  0.37769095  0.87334115  0.63020432  1
  Fe  Fe36  1  0.12542815  0.12563633  0.64904962  1
  Fe  Fe37  1  0.87273822  0.12581449  0.64305990  1
  Fe  Fe38  1  0.87386427  0.12061632  0.87560014  1
  Fe  Fe39  1  0.37629785  0.12373550  0.13449002  1
  Fe  Fe40  1  0.12250067  0.37305389  0.12485073  1
  Fe  Fe41  1  0.62047203  0.37389125  0.88164258  1
  Fe  Fe42  1  0.37695616  0.62757940  0.14358286  1
  Fe  Fe43  1  0.12223449  0.87857061  0.38740953  1
  Fe  Fe44  1  0.87440877  0.12574494  0.39183590  1
  Fe  Fe45  1  0.37764270  0.63008342  0.88626748  1
  Fe  Fe46  1  0.87432462  0.62775727  0.13186194  1
  Fe  Fe47  1  0.12887335  0.62973066  0.88080103  1
  Fe  Fe48  1  0.12358363  0.62617254  0.64424407  1
  Fe  Fe49  1  0.62586183  0.62347171  0.38710045  1
  Fe  Fe50  1  0.12474423  0.62373680  0.13573780  1
  Fe  Fe51  1  0.37584846  0.62386032  0.38241790  1
  Fe  Fe52  1  0.37357813  0.37452662  0.64107961  1
  Fe  Fe53  1  0.37884860  0.37673446  0.88066433  1
  Fe  Fe54  1  0.87634703  0.37444324  0.38719828  1
  Fe  Fe55  1  0.62535505  0.12315105  0.13458146  1
  Fe  Fe56  1  0.37349533  0.37175080  0.38690080  1
  Fe  Fe57  1  0.87564778  0.37733986  0.64563108  1
  Fe  Fe58  1  0.62551821  0.87126400  0.63079556  1
  Fe  Fe59  1  0.87426905  0.62928751  0.88541818  1
  Fe  Fe60  1  0.87266367  0.37449361  0.87811921  1
  Fe  Fe61  1  0.87213480  0.37582660  0.13197157  1
  Fe  Fe62  1  0.12765983  0.11980823  0.87621585  1
  Fe  Fe63  1  0.12627912  0.12510934  0.13197923  1
  Pb  Pb64  1  0.00197606  0.00747267  -0.00935742  1
  Pb  Pb65  1  0.00260122  -0.00147107  0.25124052  1
  Pb  Pb66  1  0.00462141  0.01951296  0.51444365  1
  Pb  Pb67  1  -0.00400950  0.00417968  0.74972503  1
  Pb  Pb68  1  0.00314669  0.25181967  -0.01618407  1
  Pb  Pb69  1  -0.00102956  0.25578425  0.24290658  1
  Pb  Pb70  1  -0.00874996  0.24882312  0.50835715  1
  Pb  Pb71  1  -0.00571002  0.24817527  0.75055127  1
  Pb  Pb72  1  0.00271347  0.49809530  -0.01260527  1
  Pb  Pb73  1  0.00061489  0.49990373  0.23786174  1
  Pb  Pb74  1  -0.00232767  0.49578557  0.50264431  1
  Pb  Pb75  1  0.00476213  0.49207031  0.75962643  1
  Pb  Pb76  1  0.00014416  0.73672636  -0.00136230  1
  Pb  Pb77  1  0.00588758  0.74672888  0.24910814  1
  Pb  Pb78  1  0.00792036  0.74288557  0.50206073  1
  Pb  Pb79  1  -0.00784924  0.74710777  0.75386072  1
  Pb  Pb80  1  0.25098735  0.00851318  0.00251005  1
  Pb  Pb81  1  0.24508043  -0.00299183  0.25076494  1
  Pb  Pb82  1  0.24430995  0.00620196  0.50429020  1
  Pb  Pb83  1  0.24808172  0.00139745  0.74831198  1
  Pb  Pb84  1  0.23998065  0.25140213  -0.00514115  1
  Pb  Pb85  1  0.24899929  0.24905516  0.24157065  1
  Pb  Pb86  1  0.25044406  0.25398234  0.50535193  1
  Pb  Pb87  1  0.24304334  0.26279869  0.75719509  1
  Pb  Pb88  1  0.24702380  0.50121889  -0.00892905  1
  Pb  Pb89  1  0.24574027  0.50561161  0.24580467  1
  Pb  Pb90  1  0.25290573  0.50157920  0.49665672  1
  Pb  Pb91  1  0.24324994  0.50115060  0.75686122  1
  Pb  Pb92  1  0.24940585  0.73391947  0.00788629  1
  Pb  Pb93  1  0.24487257  0.74173810  0.25424845  1
  Pb  Pb94  1  0.24161556  0.74020139  0.49912077  1
  Pb  Pb95  1  0.25595614  0.73866317  0.75300756  1
  Pb  Pb96  1  0.50116116  0.00648075  0.00547024  1
  Pb  Pb97  1  0.50171961  0.00177855  0.24812816  1
  Pb  Pb98  1  0.49783534  -0.00719693  0.50389837  1
  Pb  Pb99  1  0.50139588  -0.00514215  0.74436700  1
  Pb  Pb100  1  0.50023258  0.24200879  -0.00161566  1
  Pb  Pb101  1  0.49690086  0.25394556  0.24916558  1
  Pb  Pb102  1  0.49441092  0.25637319  0.50347124  1
  Pb  Pb103  1  0.50017985  0.25699825  0.75290010  1
  Pb  Pb104  1  0.49256995  0.49925780  -0.00401690  1
  Pb  Pb105  1  0.49115089  0.49831579  0.25787567  1
  Pb  Pb106  1  0.49400549  0.49986988  0.49569003  1
  Pb  Pb107  1  0.49641367  0.49390609  0.75178960  1
  Pb  Pb108  1  0.49528306  0.74754418  0.00512917  1
  Pb  Pb109  1  0.50400891  0.74089206  0.25869760  1
  Pb  Pb110  1  0.49892657  0.75493989  0.49931396  1
  Pb  Pb111  1  0.49648301  0.74313400  0.74466669  1
  Pb  Pb112  1  0.74659022  0.00369783  -0.00317980  1
  Pb  Pb113  1  0.75664474  0.00517599  0.25090561  1
  Pb  Pb114  1  0.74985527  0.00238760  0.50330368  1
  Pb  Pb115  1  0.75696213  -0.00496200  0.75050870  1
  Pb  Pb116  1  0.75866410  0.25650550  -0.00848740  1
  Pb  Pb117  1  0.76546967  0.24651269  0.25631138  1
  Pb  Pb118  1  0.75889063  0.24946200  0.50496586  1
  Pb  Pb119  1  0.75239356  0.25308612  0.75002856  1
  Pb  Pb120  1  0.76350780  0.49406095  -0.00432744  1
  Pb  Pb121  1  0.75621002  0.49669473  0.24839281  1
  Pb  Pb122  1  0.75766083  0.49162715  0.50262551  1
  Pb  Pb123  1  0.75581712  0.50054683  0.75558985  1
  Pb  Pb124  1  0.75602945  0.74562872  -0.00052294  1
  Pb  Pb125  1  0.74634656  0.74761645  0.25102671  1
  Pb  Pb126  1  0.74775522  0.75286016  0.50127190  1
  Pb  Pb127  1  0.75495453  0.74984710  0.75198807  1
  O  O128  1  0.12358480  -0.00223095  0.16675411  1
  O  O129  1  0.12551673  0.00724497  0.41814389  1
  O  O130  1  0.12239622  -0.01353757  0.66550619  1
  O  O131  1  0.13141578  -0.00882207  0.91258337  1
  O  O132  1  0.12668553  0.25015490  0.16265023  1
  O  O133  1  0.12436091  0.24754619  0.41761605  1
  O  O134  1  0.12607874  0.25682112  0.66591114  1
  O  O135  1  0.13135885  0.24350167  0.90374080  1
  O  O136  1  0.12688396  0.49595784  0.15920556  1
  O  O137  1  0.12423834  0.49257553  0.40989860  1
  O  O138  1  0.12619037  0.49743517  0.66637013  1
  O  O139  1  0.12842521  0.50404354  0.90789439  1
  O  O140  1  0.12430624  0.75970236  0.16415146  1
  O  O141  1  0.12321667  0.75207373  0.41577715  1
  O  O142  1  0.12172567  0.75931440  0.66530681  1
  O  O143  1  0.13154443  0.76383858  0.91249737  1
  O  O144  1  0.37393482  -0.00874651  0.16792606  1
  O  O145  1  0.37522748  0.00251667  0.41881447  1
  O  O146  1  0.38029757  0.00607695  0.66150138  1
  O  O147  1  0.38254450  -0.00434055  0.91671818  1
  O  O148  1  0.38314132  0.25735904  0.16115392  1
  O  O149  1  0.37341310  0.24545196  0.41924596  1
  O  O150  1  0.37663426  0.24171710  0.66485714  1
  O  O151  1  0.37986916  0.23759809  0.90487875  1
  O  O152  1  0.38134589  0.49464749  0.16406443  1
  O  O153  1  0.37329070  0.49675732  0.41398401  1
  O  O154  1  0.37633885  0.50609319  0.66137673  1
  O  O155  1  0.38031760  0.50367081  0.90917847  1
  O  O156  1  0.37460542  0.76110988  0.17013835  1
  O  O157  1  0.37663380  0.75755095  0.40996223  1
  O  O158  1  0.37825559  0.74396237  0.65903000  1
  O  O159  1  0.38267612  0.76235004  0.91530213  1
  O  O160  1  0.62586424  -0.00539126  0.16820015  1
  O  O161  1  0.62691702  0.00169470  0.41954243  1
  O  O162  1  0.62284185  0.00644807  0.65671002  1
  O  O163  1  0.62136727  0.00003019  0.91448763  1
  O  O164  1  0.62142459  0.25397036  0.15738396  1
  O  O165  1  0.62589744  0.25300044  0.41842616  1
  O  O166  1  0.62285671  0.25147074  0.66325873  1
  O  O167  1  0.61916030  0.23904024  0.90774503  1
  O  O168  1  0.62550267  0.50325393  0.16227813  1
  O  O169  1  0.62578833  0.49145026  0.41242455  1
  O  O170  1  0.62340627  0.49892081  0.66510841  1
  O  O171  1  0.61892408  0.50759562  0.90579871  1
  O  O172  1  0.62469403  0.75401453  0.16927496  1
  O  O173  1  0.62717873  0.75336693  0.41649893  1
  O  O174  1  0.62518439  0.74259159  0.65832783  1
  O  O175  1  0.62220720  0.75480434  0.91179585  1
  O  O176  1  0.87479713  0.00068849  0.16581626  1
  O  O177  1  0.87226668  -0.00543254  0.41398431  1
  O  O178  1  0.87038654  -0.00746842  0.65952811  1
  O  O179  1  0.87020772  -0.00081045  0.91435301  1
  O  O180  1  0.87003773  0.24280413  0.15967345  1
  O  O181  1  0.87608316  0.25098046  0.42126926  1
  O  O182  1  0.87297837  0.25176063  0.66505562  1
  O  O183  1  0.87094519  0.24563557  0.90265614  1
  O  O184  1  0.86848356  0.50188189  0.16172949  1
  O  O185  1  0.87563350  0.50402653  0.41531250  1
  O  O186  1  0.87392142  0.50752092  0.66757229  1
  O  O187  1  0.87147803  0.50248907  0.90653285  1
  O  O188  1  0.87487718  0.75569010  0.16410078  1
  O  O189  1  0.87291304  0.74735070  0.41470925  1
  O  O190  1  0.87068756  0.74902050  0.66449361  1
  O  O191  1  0.86966832  0.75471717  0.91658086  1
  O  O192  1  -0.00716772  0.12367037  0.16052919  1
  O  O193  1  0.00571199  0.12553014  0.41756597  1
  O  O194  1  -0.00083574  0.12159592  0.66739578  1
  O  O195  1  0.00169895  0.11757643  0.90067607  1
  O  O196  1  -0.00298761  0.37209541  0.15742918  1
  O  O197  1  0.00684166  0.37273671  0.41621926  1
  O  O198  1  0.00664054  0.37811921  0.66768282  1
  O  O199  1  -0.00061271  0.37403758  0.90423576  1
  O  O200  1  -0.00099091  0.62774455  0.16276020  1
  O  O201  1  -0.00746963  0.62504954  0.41469805  1
  O  O202  1  -0.00758571  0.62888644  0.66632587  1
  O  O203  1  0.00289320  0.63288023  0.90640815  1
  O  O204  1  0.00145003  0.87860892  0.16525448  1
  O  O205  1  -0.00798495  0.87306709  0.41536209  1
  O  O206  1  -0.00765991  0.87168457  0.66278793  1
  O  O207  1  0.00504576  0.87866563  0.90137285  1
  O  O208  1  0.25253397  0.12440292  0.16558586  1
  O  O209  1  0.24750599  0.12573395  0.41761421  1
  O  O210  1  0.25816227  0.12088090  0.66245089  1
  O  O211  1  0.25938813  0.11360885  0.90597971  1
  O  O212  1  0.25898862  0.37374935  0.15471046  1
  O  O213  1  0.24132363  0.36964851  0.41456764  1
  O  O214  1  0.24592744  0.37591312  0.66537486  1
  O  O215  1  0.25735543  0.37256234  0.91171318  1
  O  O216  1  0.25089721  0.62810650  0.16649495  1
  O  O217  1  0.25013556  0.62531397  0.41370896  1
  O  O218  1  0.25673337  0.62775529  0.66080354  1
  O  O219  1  0.25303201  0.63336977  0.91388819  1
  O  O220  1  0.24750439  0.87782269  0.16358740  1
  O  O221  1  0.25377155  0.88000369  0.41374588  1
  O  O222  1  0.24818182  0.87580131  0.65396260  1
  O  O223  1  0.25865028  0.88017692  0.90534321  1
  O  O224  1  0.50028378  0.12110401  0.16752050  1
  O  O225  1  0.50020410  0.12628814  0.41759232  1
  O  O226  1  0.50259746  0.12697015  0.66309125  1
  O  O227  1  0.49978776  0.11783210  0.91492160  1
  O  O228  1  0.50661783  0.37838810  0.16640771  1
  O  O229  1  0.50654178  0.37136341  0.41475864  1
  O  O230  1  0.50390207  0.37530014  0.66363979  1
  O  O231  1  0.49964528  0.37177218  0.91794314  1
  O  O232  1  0.50704069  0.63026770  0.16846276  1
  O  O233  1  0.50027290  0.62419226  0.41453557  1
  O  O234  1  0.49903106  0.62340848  0.66046236  1
  O  O235  1  0.50687362  0.63324674  0.91716389  1
  O  O236  1  0.49759835  0.87664413  0.16329299  1
  O  O237  1  0.49825067  0.87891190  0.41601443  1
  O  O238  1  0.50166845  0.87450715  0.66183660  1
  O  O239  1  0.50469862  0.87803495  0.91831858  1
  O  O240  1  0.75450966  0.12066135  0.16377685  1
  O  O241  1  0.74499472  0.12622764  0.42108297  1
  O  O242  1  0.73910491  0.12757730  0.66165123  1
  O  O243  1  0.74166452  0.11954321  0.90676429  1
  O  O244  1  0.73953419  0.37627154  0.16349061  1
  O  O245  1  0.74515881  0.37341951  0.41654633  1
  O  O246  1  0.74215364  0.37747320  0.66514707  1
  O  O247  1  0.74464698  0.37390514  0.90872185  1
  O  O248  1  0.74347860  0.63083810  0.16518781  1
  O  O249  1  0.75631317  0.62347235  0.41713228  1
  O  O250  1  0.75080114  0.62342881  0.66431343  1
  O  O251  1  0.73712697  0.63042477  0.91212508  1
  O  O252  1  0.75150939  0.87626883  0.16537497  1
  O  O253  1  0.75559425  0.87368501  0.41976278  1
  O  O254  1  0.75265236  0.87219176  0.65981586  1
  O  O255  1  0.73744623  0.87819539  0.91424412  1
  O  O256  1  0.13055685  0.11804588  0.03260012  1
  O  O257  1  0.12523054  0.12841580  0.30298176  1
  O  O258  1  0.12378425  0.11692613  0.54735003  1
  O  O259  1  0.13313498  0.11434307  0.77464016  1
  O  O260  1  0.12728930  0.36761474  0.02446909  1
  O  O261  1  0.12287330  0.37003787  0.29795898  1
  O  O262  1  0.12444821  0.37725817  0.55180871  1
  O  O263  1  0.13362416  0.38111215  0.78543949  1
  O  O264  1  0.12878717  0.63581660  0.03564895  1
  O  O265  1  0.12518691  0.62804738  0.28478161  1
  O  O266  1  0.12355858  0.63248501  0.54378406  1
  O  O267  1  0.13567771  0.63046181  0.77850710  1
  O  O268  1  0.12425722  0.87837744  0.05130706  1
  O  O269  1  0.12046597  0.88338731  0.28840318  1
  O  O270  1  0.12288253  0.87297234  0.54607991  1
  O  O271  1  0.12864063  0.87509387  0.79310247  1
  O  O272  1  0.37707727  0.11937879  0.03491265  1
  O  O273  1  0.37542657  0.12501805  0.29984668  1
  O  O274  1  0.37452195  0.12818623  0.54771698  1
  O  O275  1  0.38130017  0.11481977  0.79709896  1
  O  O276  1  0.38267587  0.37840393  0.04737974  1
  O  O277  1  0.38358908  0.37341888  0.28774492  1
  O  O278  1  0.37289599  0.36826168  0.54086010  1
  O  O279  1  0.38253985  0.37218995  0.77902057  1
  O  O280  1  0.37953844  0.63698410  0.04329417  1
  O  O281  1  0.37918426  0.62440111  0.28154140  1
  O  O282  1  0.37441802  0.62083337  0.54590414  1
  O  O283  1  0.37588311  0.63771121  0.78646178  1
  O  O284  1  0.37506056  0.87272913  0.05062616  1
  O  O285  1  0.37402006  0.88115459  0.30426558  1
  O  O286  1  0.38276312  0.87534873  0.53124440  1
  O  O287  1  0.37993180  0.87735613  0.79732167  1
  O  O288  1  0.62118012  0.11986742  0.03554346  1
  O  O289  1  0.62604252  0.12623239  0.30155476  1
  O  O290  1  0.62331721  0.12866720  0.54661998  1
  O  O291  1  0.62054680  0.11798582  0.79697556  1
  O  O292  1  0.62392342  0.37455444  0.04672782  1
  O  O293  1  0.62682360  0.37018621  0.29902993  1
  O  O294  1  0.62480187  0.37649149  0.55273311  1
  O  O295  1  0.61443547  0.37367785  0.78205280  1
  O  O296  1  0.62270482  0.62474056  0.05337963  1
  O  O297  1  0.62666030  0.63177160  0.28793662  1
  O  O298  1  0.62674322  0.61987696  0.54459526  1
  O  O299  1  0.61996383  0.62764473  0.79563421  1
  O  O300  1  0.62739839  0.87441118  0.04908819  1
  O  O301  1  0.62832305  0.87839389  0.30534182  1
  O  O302  1  0.62470787  0.87398721  0.53115884  1
  O  O303  1  0.61936699  0.87444268  0.79847913  1
  O  O304  1  0.87375028  0.12001978  0.04712299  1
  O  O305  1  0.86755509  0.12819833  0.29209850  1
  O  O306  1  0.87959230  0.12513644  0.54069730  1
  O  O307  1  0.86721725  0.11512615  0.77453538  1
  O  O308  1  0.86335352  0.37358879  0.03228110  1
  O  O309  1  0.86877584  0.36898273  0.28761679  1
  O  O310  1  0.87727705  0.38432914  0.54391490  1
  O  O311  1  0.87148825  0.38068138  0.77603996  1
  O  O312  1  0.87178181  0.63108233  0.03166661  1
  O  O313  1  0.87135996  0.62638719  0.29927368  1
  O  O314  1  0.87496583  0.62298330  0.55294222  1
  O  O315  1  0.86674033  0.63557524  0.78495596  1
  O  O316  1  0.87718011  0.87621363  0.04589902  1
  O  O317  1  0.87636414  0.87585939  0.30161716  1
  O  O318  1  0.87580632  0.87081801  0.54836716  1
  O  O319  1  0.86325363  0.87247868  0.78395376  1
