# generated using pymatgen
data_VFe(PbO3)2
_symmetry_space_group_name_H-M   'P 1'
_cell_length_a   15.37952644
_cell_length_b   15.37432512
_cell_length_c   18.55384355
_cell_angle_alpha   90.00338157
_cell_angle_beta   90.04536207
_cell_angle_gamma   90.00600551
_symmetry_Int_Tables_number   1
_chemical_formula_structural   VFe(PbO3)2
_chemical_formula_sum   'V32 Fe32 Pb64 O192'
_cell_volume   4387.05192566
_cell_formula_units_Z   32
loop_
 _symmetry_equiv_pos_site_id
 _symmetry_equiv_pos_as_xyz
  1  'x, y, z'
loop_
 _atom_site_type_symbol
 _atom_site_label
 _atom_site_symmetry_multiplicity
 _atom_site_fract_x
 _atom_site_fract_y
 _atom_site_fract_z
 _atom_site_occupancy
  V  V0  1  0.37447208  0.87575778  0.13923124  1
  V  V1  1  0.87604062  0.37547143  0.63755575  1
  V  V2  1  0.62527739  0.62315129  0.88793357  1
  V  V3  1  0.62740761  0.12411427  0.89092675  1
  V  V4  1  0.37564462  0.12529439  0.88975934  1
  V  V5  1  0.12772981  0.12256643  0.13864769  1
  V  V6  1  0.87651509  0.87911531  0.64005409  1
  V  V7  1  0.12647399  0.87224606  0.38961000  1
  V  V8  1  0.62534993  0.12538769  0.63403448  1
  V  V9  1  0.62178312  0.87501244  0.14567647  1
  V  V10  1  0.87197503  0.87513115  0.89102484  1
  V  V11  1  0.12849503  0.37448977  0.13887681  1
  V  V12  1  0.37674004  0.62514239  0.13969704  1
  V  V13  1  0.62150594  0.62574090  0.38949784  1
  V  V14  1  0.12602078  0.12486664  0.64036507  1
  V  V15  1  0.87585965  0.37439776  0.89475210  1
  V  V16  1  0.87528557  0.87399738  0.13902474  1
  V  V17  1  0.37613954  0.62252649  0.88474174  1
  V  V18  1  0.87303409  0.12816688  0.63795582  1
  V  V19  1  0.12399038  0.37299284  0.38995781  1
  V  V20  1  0.87192540  0.62703748  0.64171839  1
  V  V21  1  0.12556782  0.87714354  0.89103033  1
  V  V22  1  0.12442924  0.12104906  0.38649353  1
  V  V23  1  0.37308850  0.87763215  0.63917716  1
  V  V24  1  0.12296024  0.62327078  0.39092635  1
  V  V25  1  0.63083920  0.37685133  0.63800674  1
  V  V26  1  0.87480573  0.62716534  0.38724141  1
  V  V27  1  0.62558256  0.62608089  0.13950271  1
  V  V28  1  0.37440695  0.87195991  0.38951640  1
  V  V29  1  0.13003001  0.37121690  0.88887314  1
  V  V30  1  0.37451868  0.37400842  0.14336802  1
  V  V31  1  0.62318922  0.12713494  0.14762337  1
  Fe  Fe32  1  0.12914297  0.87423021  0.13255669  1
  Fe  Fe33  1  0.37374372  0.37728570  0.39055644  1
  Fe  Fe34  1  0.87330373  0.62299796  0.89760842  1
  Fe  Fe35  1  0.37171149  0.62774843  0.39629442  1
  Fe  Fe36  1  0.87397794  0.12356070  0.14550283  1
  Fe  Fe37  1  0.62113562  0.37790557  0.14779981  1
  Fe  Fe38  1  0.62595747  0.37204276  0.88760965  1
  Fe  Fe39  1  0.87534823  0.37569030  0.14113073  1
  Fe  Fe40  1  0.37450577  0.12475189  0.14193500  1
  Fe  Fe41  1  0.12332004  0.62583778  0.64054055  1
  Fe  Fe42  1  0.87427794  0.62722078  0.12603647  1
  Fe  Fe43  1  0.12900962  0.62430933  0.13050985  1
  Fe  Fe44  1  0.62552111  0.12470626  0.37778692  1
  Fe  Fe45  1  0.87850052  0.37988743  0.37756691  1
  Fe  Fe46  1  0.37709580  0.62525482  0.62803646  1
  Fe  Fe47  1  0.37726612  0.37437544  0.88256268  1
  Fe  Fe48  1  0.62597194  0.37770814  0.37572402  1
  Fe  Fe49  1  0.37167668  0.12322368  0.38938184  1
  Fe  Fe50  1  0.37477447  0.37131769  0.63023021  1
  Fe  Fe51  1  0.11877565  0.37370976  0.63330391  1
  Fe  Fe52  1  0.11962147  0.87676364  0.63770524  1
  Fe  Fe53  1  0.87944823  0.87106240  0.38167253  1
  Fe  Fe54  1  0.37556017  0.87415536  0.88339234  1
  Fe  Fe55  1  0.62647210  0.87268302  0.38109059  1
  Fe  Fe56  1  0.62627748  0.62589285  0.63245344  1
  Fe  Fe57  1  0.87955193  0.12383691  0.37531198  1
  Fe  Fe58  1  0.12352006  0.12715945  0.88646122  1
  Fe  Fe59  1  0.37882987  0.12379516  0.62847311  1
  Fe  Fe60  1  0.62359191  0.87686876  0.88548369  1
  Fe  Fe61  1  0.87518610  0.12451243  0.89052821  1
  Fe  Fe62  1  0.62813511  0.87693254  0.63684959  1
  Fe  Fe63  1  0.12497216  0.62304965  0.88723316  1
  Pb  Pb64  1  -0.00120269  0.00358446  0.00177326  1
  Pb  Pb65  1  -0.01021919  -0.00637721  0.25169648  1
  Pb  Pb66  1  0.00008870  -0.00525995  0.49657386  1
  Pb  Pb67  1  -0.00085344  0.01178465  0.75632289  1
  Pb  Pb68  1  -0.00746541  0.24954350  0.00494636  1
  Pb  Pb69  1  -0.00486735  0.24921932  0.24784468  1
  Pb  Pb70  1  0.00134377  0.25600766  0.49490741  1
  Pb  Pb71  1  -0.00136164  0.24209517  0.75276573  1
  Pb  Pb72  1  -0.00136094  0.50474556  0.00133787  1
  Pb  Pb73  1  -0.00356396  0.50216513  0.24036336  1
  Pb  Pb74  1  0.01036549  0.50191769  0.50465727  1
  Pb  Pb75  1  0.00146657  0.50740970  0.75449143  1
  Pb  Pb76  1  0.00510355  0.74620061  0.00019287  1
  Pb  Pb77  1  0.00298807  0.74846277  0.24010002  1
  Pb  Pb78  1  0.00952516  0.74906245  0.50522662  1
  Pb  Pb79  1  0.00009196  0.74110904  0.75683390  1
  Pb  Pb80  1  0.24967423  -0.00172476  0.00022360  1
  Pb  Pb81  1  0.25368128  0.00492427  0.25227012  1
  Pb  Pb82  1  0.25316235  0.00068154  0.50366017  1
  Pb  Pb83  1  0.25399563  -0.00123126  0.74960694  1
  Pb  Pb84  1  0.25946466  0.24016474  0.00273369  1
  Pb  Pb85  1  0.25902458  0.25181534  0.25667001  1
  Pb  Pb86  1  0.25944718  0.25311907  0.50238411  1
  Pb  Pb87  1  0.25562826  0.25452601  0.74271381  1
  Pb  Pb88  1  0.24773893  0.50405710  -0.00345220  1
  Pb  Pb89  1  0.26037208  0.50189542  0.25708960  1
  Pb  Pb90  1  0.25504724  0.50021308  0.50590405  1
  Pb  Pb91  1  0.24980009  0.49769766  0.73766241  1
  Pb  Pb92  1  0.24178819  0.74975601  -0.00003455  1
  Pb  Pb93  1  0.25373204  0.74346167  0.24921790  1
  Pb  Pb94  1  0.24540014  0.74394447  0.50663781  1
  Pb  Pb95  1  0.24595365  0.74524867  0.74532774  1
  Pb  Pb96  1  0.49523696  0.00347620  0.00099263  1
  Pb  Pb97  1  0.50038479  0.00680745  0.25692786  1
  Pb  Pb98  1  0.50428840  0.00375777  0.49240821  1
  Pb  Pb99  1  0.50070564  -0.01071475  0.75191388  1
  Pb  Pb100  1  0.50502085  0.25347354  0.00293048  1
  Pb  Pb101  1  0.50366428  0.24906183  0.25781864  1
  Pb  Pb102  1  0.49945677  0.25239906  0.48733293  1
  Pb  Pb103  1  0.50079676  0.25734390  0.74766344  1
  Pb  Pb104  1  0.50599945  0.49162898  0.00071696  1
  Pb  Pb105  1  0.49028394  0.49788508  0.25880904  1
  Pb  Pb106  1  0.49222654  0.49753072  0.49798207  1
  Pb  Pb107  1  0.49526812  0.49642467  0.74144940  1
  Pb  Pb108  1  0.49875214  0.75097706  -0.00595205  1
  Pb  Pb109  1  0.49950978  0.74932244  0.25399673  1
  Pb  Pb110  1  0.51269243  0.75142070  0.50627835  1
  Pb  Pb111  1  0.50277129  0.75341677  0.74366388  1
  Pb  Pb112  1  0.75393130  0.00540868  0.00649375  1
  Pb  Pb113  1  0.74489093  0.00142334  0.25509425  1
  Pb  Pb114  1  0.75177918  -0.00206219  0.48423722  1
  Pb  Pb115  1  0.75144775  0.00565241  0.75001352  1
  Pb  Pb116  1  0.75861128  0.25098931  0.01213410  1
  Pb  Pb117  1  0.75271737  0.25632127  0.25061092  1
  Pb  Pb118  1  0.75389505  0.25065764  0.47956531  1
  Pb  Pb119  1  0.74638113  0.25363427  0.75251515  1
  Pb  Pb120  1  0.74864439  0.48194601  0.01052105  1
  Pb  Pb121  1  0.75308259  0.49511492  0.24671509  1
  Pb  Pb122  1  0.74939702  0.50160416  0.49321673  1
  Pb  Pb123  1  0.75683979  0.50496689  0.75565586  1
  Pb  Pb124  1  0.75048665  0.74542150  0.00014409  1
  Pb  Pb125  1  0.75085628  0.75966385  0.25176983  1
  Pb  Pb126  1  0.74428888  0.75468625  0.50086191  1
  Pb  Pb127  1  0.74610418  0.75258511  0.75099980  1
  O  O128  1  0.12988588  0.00499325  0.15797701  1
  O  O129  1  0.12414820  0.00231805  0.41053215  1
  O  O130  1  0.11938072  0.00569327  0.66508826  1
  O  O131  1  0.12554973  -0.00361406  0.91515330  1
  O  O132  1  0.13044039  0.25287202  0.16591199  1
  O  O133  1  0.12165303  0.25177658  0.40726352  1
  O  O134  1  0.11851158  0.24269888  0.66416894  1
  O  O135  1  0.12319963  0.25661432  0.91672838  1
  O  O136  1  0.13045114  0.49274314  0.16013999  1
  O  O137  1  0.12179677  0.50331970  0.41276778  1
  O  O138  1  0.11995499  0.49922442  0.66440508  1
  O  O139  1  0.12366335  0.48984129  0.91495143  1
  O  O140  1  0.12949600  0.75029716  0.16299724  1
  O  O141  1  0.12332056  0.74653564  0.41485281  1
  O  O142  1  0.12105118  0.75306471  0.66992267  1
  O  O143  1  0.12540797  0.75577926  0.91180002  1
  O  O144  1  0.37511050  -0.00667959  0.16392119  1
  O  O145  1  0.36857387  -0.00948490  0.41527143  1
  O  O146  1  0.37468439  -0.00000607  0.66438283  1
  O  O147  1  0.37470320  0.00631779  0.91524255  1
  O  O148  1  0.37261091  0.25583388  0.16602634  1
  O  O149  1  0.36932399  0.25017932  0.41086783  1
  O  O150  1  0.37668388  0.24581895  0.66051352  1
  O  O151  1  0.37698884  0.24383336  0.91453604  1
  O  O152  1  0.37351232  0.49857768  0.16677827  1
  O  O153  1  0.37104928  0.50212910  0.41834992  1
  O  O154  1  0.37892782  0.49701429  0.65648656  1
  O  O155  1  0.37741061  0.50515384  0.91148992  1
  O  O156  1  0.37509742  0.75258395  0.16437044  1
  O  O157  1  0.36846475  0.75796143  0.41680218  1
  O  O158  1  0.37496915  0.75906791  0.65858386  1
  O  O159  1  0.37709107  0.74199579  0.90891229  1
  O  O160  1  0.62170865  -0.00214958  0.16782216  1
  O  O161  1  0.62449921  -0.00269025  0.40727096  1
  O  O162  1  0.63112565  0.00782121  0.65881693  1
  O  O163  1  0.62272589  0.00687516  0.91837686  1
  O  O164  1  0.62012212  0.24483703  0.16485502  1
  O  O165  1  0.62675698  0.25160963  0.40362432  1
  O  O166  1  0.63336267  0.24735705  0.66301703  1
  O  O167  1  0.62298123  0.24024429  0.91806982  1
  O  O168  1  0.61956221  0.51206698  0.16475483  1
  O  O169  1  0.62808493  0.50848585  0.41038328  1
  O  O170  1  0.62977887  0.49301589  0.65843886  1
  O  O171  1  0.62374065  0.50537213  0.91395120  1
  O  O172  1  0.61934337  0.74629489  0.16801689  1
  O  O173  1  0.62695244  0.74562607  0.41453313  1
  O  O174  1  0.62915388  0.75145479  0.66670378  1
  O  O175  1  0.62124040  0.74465415  0.91304385  1
  O  O176  1  0.87445890  -0.00788737  0.16384923  1
  O  O177  1  0.88199593  -0.00135384  0.40886943  1
  O  O178  1  0.87395633  -0.00137625  0.66267604  1
  O  O179  1  0.87493696  -0.00677630  0.92013828  1
  O  O180  1  0.87638763  0.24934405  0.16609073  1
  O  O181  1  0.88105054  0.25200413  0.40163632  1
  O  O182  1  0.87235888  0.24980173  0.66388966  1
  O  O183  1  0.87363697  0.25321992  0.91905738  1
  O  O184  1  0.87407701  0.50465060  0.15886151  1
  O  O185  1  0.87938174  0.51074704  0.41372290  1
  O  O186  1  0.87189037  0.50224331  0.66576437  1
  O  O187  1  0.87329661  0.49133999  0.91864399  1
  O  O188  1  0.87314423  0.75426783  0.15968095  1
  O  O189  1  0.88070033  0.74151817  0.41438775  1
  O  O190  1  0.87198684  0.74815346  0.66289748  1
  O  O191  1  0.87557061  0.75918755  0.91582706  1
  O  O192  1  0.01180974  0.12655892  0.16042578  1
  O  O193  1  0.00892925  0.12562985  0.41221764  1
  O  O194  1  -0.00334282  0.12447278  0.66629129  1
  O  O195  1  0.00005482  0.12443182  0.92112739  1
  O  O196  1  0.01029874  0.37431186  0.15924238  1
  O  O197  1  0.00492874  0.37976339  0.41350935  1
  O  O198  1  -0.00817809  0.37358058  0.66625938  1
  O  O199  1  -0.00275047  0.37317656  0.91620312  1
  O  O200  1  0.00169245  0.62661203  0.15319077  1
  O  O201  1  0.00280258  0.62588350  0.41394244  1
  O  O202  1  -0.01074612  0.62537141  0.66789748  1
  O  O203  1  0.00139805  0.62359556  0.91737141  1
  O  O204  1  -0.00382545  0.87392151  0.15640719  1
  O  O205  1  0.00632439  0.87305203  0.41492081  1
  O  O206  1  -0.01068907  0.87437301  0.66846950  1
  O  O207  1  0.00026187  0.87648825  0.91449890  1
  O  O208  1  0.24498651  0.12696881  0.16961727  1
  O  O209  1  0.23851822  0.12536206  0.41509077  1
  O  O210  1  0.24321072  0.12364897  0.65830581  1
  O  O211  1  0.25450298  0.12599224  0.91250898  1
  O  O212  1  0.25193143  0.37526623  0.16798597  1
  O  O213  1  0.23879281  0.37817660  0.41420428  1
  O  O214  1  0.24656515  0.37049409  0.65811982  1
  O  O215  1  0.24743910  0.37407965  0.90853095  1
  O  O216  1  0.25608550  0.62470740  0.16503401  1
  O  O217  1  0.23895049  0.62627754  0.41689847  1
  O  O218  1  0.25252372  0.62688360  0.66173959  1
  O  O219  1  0.25657494  0.62219426  0.90757362  1
  O  O220  1  0.25836024  0.87415778  0.16411318  1
  O  O221  1  0.24722099  0.87394169  0.41738745  1
  O  O222  1  0.25278675  0.87986179  0.66314734  1
  O  O223  1  0.24673552  0.87605588  0.91073738  1
  O  O224  1  0.50129799  0.12259500  0.16792898  1
  O  O225  1  0.49875172  0.12190259  0.40898389  1
  O  O226  1  0.51040825  0.12709170  0.65320949  1
  O  O227  1  0.49898697  0.12383929  0.91496109  1
  O  O228  1  0.49015399  0.37678281  0.16633938  1
  O  O229  1  0.50297696  0.37945038  0.41034799  1
  O  O230  1  0.51204102  0.36874303  0.65652761  1
  O  O231  1  0.50034124  0.37308784  0.91879656  1
  O  O232  1  0.49752556  0.62720893  0.16871867  1
  O  O233  1  0.50564743  0.62798488  0.41068197  1
  O  O234  1  0.50134718  0.62670021  0.65943909  1
  O  O235  1  0.50029867  0.62380503  0.91298490  1
  O  O236  1  0.49359810  0.87261946  0.16696359  1
  O  O237  1  0.49209308  0.87245384  0.40922808  1
  O  O238  1  0.49613497  0.87956836  0.66049524  1
  O  O239  1  0.49898144  0.87684491  0.91769437  1
  O  O240  1  0.74191635  0.12135548  0.16713016  1
  O  O241  1  0.75357780  0.12329448  0.40194335  1
  O  O242  1  0.74992568  0.12493851  0.66659336  1
  O  O243  1  0.74451494  0.12238477  0.91482446  1
  O  O244  1  0.74762275  0.37642064  0.16557508  1
  O  O245  1  0.75277603  0.38216754  0.40466765  1
  O  O246  1  0.75107950  0.37365212  0.66864220  1
  O  O247  1  0.75292541  0.37237162  0.91826272  1
  O  O248  1  0.74188827  0.63022491  0.15768766  1
  O  O249  1  0.75427348  0.62697320  0.40862958  1
  O  O250  1  0.75432386  0.62369254  0.66812928  1
  O  O251  1  0.74039705  0.62753912  0.91327537  1
  O  O252  1  0.75086194  0.87341362  0.16549345  1
  O  O253  1  0.75331140  0.87040068  0.40761279  1
  O  O254  1  0.75919701  0.87580992  0.66670050  1
  O  O255  1  0.75329213  0.87579088  0.91395936  1
  O  O256  1  0.13352379  0.12816209  0.04735383  1
  O  O257  1  0.12624467  0.12031343  0.29565765  1
  O  O258  1  0.12050836  0.12525899  0.54960960  1
  O  O259  1  0.11531086  0.12607686  0.78744678  1
  O  O260  1  0.13291646  0.37144379  0.04845027  1
  O  O261  1  0.12373119  0.37756372  0.29928272  1
  O  O262  1  0.11271198  0.37370041  0.53365287  1
  O  O263  1  0.12414019  0.37031727  0.79825211  1
  O  O264  1  0.13640560  0.62487518  0.02973011  1
  O  O265  1  0.12375620  0.62487592  0.29998254  1
  O  O266  1  0.11690276  0.62950522  0.53965033  1
  O  O267  1  0.11608567  0.62572676  0.78683925  1
  O  O268  1  0.13425781  0.87080311  0.03345011  1
  O  O269  1  0.12714822  0.87201294  0.29847708  1
  O  O270  1  0.11542321  0.87374794  0.53842165  1
  O  O271  1  0.12326184  0.87818317  0.80024628  1
  O  O272  1  0.36937456  0.12617903  0.04248094  1
  O  O273  1  0.36595623  0.11875524  0.28751550  1
  O  O274  1  0.36820131  0.11973811  0.52877392  1
  O  O275  1  0.37751684  0.12428679  0.79910596  1
  O  O276  1  0.37250393  0.37568547  0.05223431  1
  O  O277  1  0.36976034  0.38382208  0.28887745  1
  O  O278  1  0.37287405  0.37295383  0.52895644  1
  O  O279  1  0.38370657  0.36940879  0.78332720  1
  O  O280  1  0.37720474  0.62361962  0.04890180  1
  O  O281  1  0.36821366  0.62452026  0.29482249  1
  O  O282  1  0.36945141  0.62608764  0.52711345  1
  O  O283  1  0.38048664  0.62077957  0.79431895  1
  O  O284  1  0.37514978  0.87516593  0.04804899  1
  O  O285  1  0.36974376  0.87249222  0.29845892  1
  O  O286  1  0.37172205  0.88176022  0.54838284  1
  O  O287  1  0.37903720  0.88490779  0.78456743  1
  O  O288  1  0.62293118  0.12285787  0.05618063  1
  O  O289  1  0.61841635  0.12082894  0.27726106  1
  O  O290  1  0.63156919  0.12776275  0.54356924  1
  O  O291  1  0.62599465  0.12406195  0.80001389  1
  O  O292  1  0.62074593  0.38031036  0.04534637  1
  O  O293  1  0.62000392  0.37795821  0.27439572  1
  O  O294  1  0.63685367  0.37398406  0.54780098  1
  O  O295  1  0.62680651  0.36622022  0.78838432  1
  O  O296  1  0.61967804  0.62806499  0.04860015  1
  O  O297  1  0.62374777  0.62873757  0.29869156  1
  O  O298  1  0.63157819  0.63304773  0.53288191  1
  O  O299  1  0.62483658  0.62258689  0.79694473  1
  O  O300  1  0.62334911  0.87353421  0.05473885  1
  O  O301  1  0.62517554  0.86656222  0.28074011  1
  O  O302  1  0.62658345  0.86558894  0.53689514  1
  O  O303  1  0.62102263  0.87962944  0.78576226  1
  O  O304  1  0.86832781  0.12242148  0.04371402  1
  O  O305  1  0.88502741  0.11745408  0.27400317  1
  O  O306  1  0.87423858  0.12644980  0.54742236  1
  O  O307  1  0.87830145  0.12041569  0.79080437  1
  O  O308  1  0.86829161  0.36925500  0.03970997  1
  O  O309  1  0.88063274  0.38453949  0.27718428  1
  O  O310  1  0.87406649  0.37712522  0.54675034  1
  O  O311  1  0.87409634  0.37466833  0.80392550  1
  O  O312  1  0.86998374  0.63043890  0.02521774  1
  O  O313  1  0.87805674  0.62708019  0.29632631  1
  O  O314  1  0.87262558  0.62497612  0.55136540  1
  O  O315  1  0.87273909  0.61858230  0.79685407  1
  O  O316  1  0.86917186  0.87632837  0.04812851  1
  O  O317  1  0.88283558  0.87058144  0.28191964  1
  O  O318  1  0.87833430  0.87805887  0.54913819  1
  O  O319  1  0.87337359  0.87730429  0.80041427  1
