# generated using pymatgen
data_VFe(PbO3)2
_symmetry_space_group_name_H-M   'P 1'
_cell_length_a   15.38020981
_cell_length_b   15.37468787
_cell_length_c   18.49996431
_cell_angle_alpha   89.98231158
_cell_angle_beta   90.01430576
_cell_angle_gamma   89.99623257
_symmetry_Int_Tables_number   1
_chemical_formula_structural   VFe(PbO3)2
_chemical_formula_sum   'V32 Fe32 Pb64 O192'
_cell_volume   4374.61082401
_cell_formula_units_Z   32
loop_
 _symmetry_equiv_pos_site_id
 _symmetry_equiv_pos_as_xyz
  1  'x, y, z'
loop_
 _atom_site_type_symbol
 _atom_site_label
 _atom_site_symmetry_multiplicity
 _atom_site_fract_x
 _atom_site_fract_y
 _atom_site_fract_z
 _atom_site_occupancy
  V  V0  1  0.62506464  0.62432569  0.64062259  1
  V  V1  1  0.62662928  0.37248332  0.89617408  1
  V  V2  1  0.12359200  0.12267712  0.39230799  1
  V  V3  1  0.37333925  0.12610908  0.89324576  1
  V  V4  1  0.87632209  0.37464181  0.13472766  1
  V  V5  1  0.62746834  0.62851360  0.38561555  1
  V  V6  1  0.37682147  0.37612238  0.63629191  1
  V  V7  1  0.87691355  0.12549483  0.38831726  1
  V  V8  1  0.37619072  0.37473133  0.89527481  1
  V  V9  1  0.37282749  0.87511701  0.38740875  1
  V  V10  1  0.12611730  0.87963715  0.88891336  1
  V  V11  1  0.62257608  0.87194117  0.88852291  1
  V  V12  1  0.12662255  0.62591375  0.89097768  1
  V  V13  1  0.87826184  0.37486990  0.38715686  1
  V  V14  1  0.62071261  0.12383576  0.89613266  1
  V  V15  1  0.87814136  0.87340364  0.38886056  1
  V  V16  1  0.62800022  0.37469734  0.63945311  1
  V  V17  1  0.87481703  0.12828206  0.64404100  1
  V  V18  1  0.62357035  0.37738487  0.14223899  1
  V  V19  1  0.12571256  0.87314973  0.13893355  1
  V  V20  1  0.87082445  0.37685225  0.64031566  1
  V  V21  1  0.87782475  0.37447551  0.89214675  1
  V  V22  1  0.12171880  0.12503756  0.13549188  1
  V  V23  1  0.12534857  0.37341843  0.38848900  1
  V  V24  1  0.12163012  0.87647425  0.63757674  1
  V  V25  1  0.62394092  0.12617248  0.63891872  1
  V  V26  1  0.62306048  0.87247172  0.13654937  1
  V  V27  1  0.37681348  0.62913103  0.14022695  1
  V  V28  1  0.87625357  0.62224430  0.64397792  1
  V  V29  1  0.12708230  0.12858201  0.88953265  1
  V  V30  1  0.37562650  0.62376957  0.89082214  1
  V  V31  1  0.87447753  0.87562526  0.13571332  1
  Fe  Fe32  1  0.87645130  0.12246727  0.13119699  1
  Fe  Fe33  1  0.62799340  0.37545266  0.37649392  1
  Fe  Fe34  1  0.12477230  0.62554061  0.13597167  1
  Fe  Fe35  1  0.37779279  0.87612243  0.63304409  1
  Fe  Fe36  1  0.12266864  0.37612919  0.12864339  1
  Fe  Fe37  1  0.37337127  0.12458820  0.37615539  1
  Fe  Fe38  1  0.87322147  0.87433120  0.88353228  1
  Fe  Fe39  1  0.37555760  0.62500808  0.38695364  1
  Fe  Fe40  1  0.62741023  0.12287719  0.37634620  1
  Fe  Fe41  1  0.12809717  0.37508456  0.89533717  1
  Fe  Fe42  1  0.12552876  0.62590733  0.63393088  1
  Fe  Fe43  1  0.87481620  0.62461343  0.37932271  1
  Fe  Fe44  1  0.12582836  0.12508221  0.63543787  1
  Fe  Fe45  1  0.62631262  0.87556244  0.38552009  1
  Fe  Fe46  1  0.12475988  0.87765721  0.38447347  1
  Fe  Fe47  1  0.37519997  0.37512135  0.37426809  1
  Fe  Fe48  1  0.62208595  0.62112402  0.89559694  1
  Fe  Fe49  1  0.37546406  0.12769662  0.63315442  1
  Fe  Fe50  1  0.87432893  0.12571614  0.89373162  1
  Fe  Fe51  1  0.62803376  0.12371808  0.13966011  1
  Fe  Fe52  1  0.37320315  0.12123248  0.14395276  1
  Fe  Fe53  1  0.87156764  0.87479203  0.64381515  1
  Fe  Fe54  1  0.37304904  0.37626764  0.14419259  1
  Fe  Fe55  1  0.87314059  0.62695381  0.14051605  1
  Fe  Fe56  1  0.37567058  0.62220072  0.63055939  1
  Fe  Fe57  1  0.87511703  0.62377029  0.88668514  1
  Fe  Fe58  1  0.62840266  0.87652657  0.63476067  1
  Fe  Fe59  1  0.37556911  0.87462263  0.89655574  1
  Fe  Fe60  1  0.37330689  0.87262672  0.12913067  1
  Fe  Fe61  1  0.12315086  0.37581903  0.63420887  1
  Fe  Fe62  1  0.62490823  0.62564422  0.13051928  1
  Fe  Fe63  1  0.12189507  0.62727232  0.38534885  1
  Pb  Pb64  1  -0.00637718  0.00054933  -0.00173889  1
  Pb  Pb65  1  0.00440492  -0.00948191  0.25014247  1
  Pb  Pb66  1  -0.00123782  0.00039045  0.50432230  1
  Pb  Pb67  1  -0.00875217  0.00140511  0.75405516  1
  Pb  Pb68  1  -0.00039354  0.24999036  0.00132373  1
  Pb  Pb69  1  -0.00142614  0.25047193  0.24523894  1
  Pb  Pb70  1  0.00895318  0.25128358  0.50689619  1
  Pb  Pb71  1  0.00647074  0.25502432  0.75277676  1
  Pb  Pb72  1  0.01141855  0.50589170  0.00637889  1
  Pb  Pb73  1  0.00293051  0.50983672  0.24602981  1
  Pb  Pb74  1  0.00779789  0.50141755  0.50037564  1
  Pb  Pb75  1  0.00680620  0.49488604  0.75270894  1
  Pb  Pb76  1  -0.00324543  0.74119695  0.00052544  1
  Pb  Pb77  1  0.00454525  0.74385676  0.25130416  1
  Pb  Pb78  1  0.00412057  0.74395411  0.49770593  1
  Pb  Pb79  1  -0.00774909  0.75028633  0.75237222  1
  Pb  Pb80  1  0.25892981  0.00236969  0.00565774  1
  Pb  Pb81  1  0.25177146  -0.00358151  0.24798834  1
  Pb  Pb82  1  0.26279386  0.00085477  0.50351942  1
  Pb  Pb83  1  0.25503001  -0.00119849  0.74513795  1
  Pb  Pb84  1  0.26297983  0.25274577  0.01189550  1
  Pb  Pb85  1  0.25605891  0.25204747  0.24597897  1
  Pb  Pb86  1  0.25262396  0.24354087  0.49743832  1
  Pb  Pb87  1  0.24549367  0.25230979  0.74681223  1
  Pb  Pb88  1  0.24768764  0.49548377  0.00659978  1
  Pb  Pb89  1  0.24874349  0.50060013  0.24610369  1
  Pb  Pb90  1  0.25179920  0.50781586  0.49570835  1
  Pb  Pb91  1  0.24509425  0.49712813  0.74654494  1
  Pb  Pb92  1  0.24707512  0.74772348  0.00201665  1
  Pb  Pb93  1  0.24745641  0.73886809  0.25505779  1
  Pb  Pb94  1  0.24860609  0.74427137  0.49672360  1
  Pb  Pb95  1  0.25597902  0.75104833  0.74233578  1
  Pb  Pb96  1  0.49667153  0.00573227  0.00779132  1
  Pb  Pb97  1  0.49999693  0.00471962  0.24642367  1
  Pb  Pb98  1  0.50032540  0.00268985  0.49158985  1
  Pb  Pb99  1  0.49081250  -0.01010700  0.75187277  1
  Pb  Pb100  1  0.49535668  0.24386614  0.01350938  1
  Pb  Pb101  1  0.49780047  0.24578768  0.24682593  1
  Pb  Pb102  1  0.49672783  0.24682030  0.48116299  1
  Pb  Pb103  1  0.50254221  0.25259331  0.74836900  1
  Pb  Pb104  1  0.49403992  0.49118020  0.00798517  1
  Pb  Pb105  1  0.49120075  0.50210188  0.25324984  1
  Pb  Pb106  1  0.49559977  0.49829367  0.49039147  1
  Pb  Pb107  1  0.50703328  0.50599131  0.75293044  1
  Pb  Pb108  1  0.50085648  0.74987937  0.00166895  1
  Pb  Pb109  1  0.49991824  0.75180808  0.25048045  1
  Pb  Pb110  1  0.49488035  0.75823018  0.49974565  1
  Pb  Pb111  1  0.49473807  0.75575552  0.74859074  1
  Pb  Pb112  1  0.74819466  0.00412855  -0.00007077  1
  Pb  Pb113  1  0.74354705  0.00009886  0.24893776  1
  Pb  Pb114  1  0.74860076  -0.00750242  0.50189449  1
  Pb  Pb115  1  0.75375638  -0.00019517  0.75415545  1
  Pb  Pb116  1  0.74433568  0.24187351  0.00823000  1
  Pb  Pb117  1  0.74481253  0.24796010  0.24752469  1
  Pb  Pb118  1  0.74626509  0.24947449  0.49289266  1
  Pb  Pb119  1  0.75717031  0.24543196  0.75742858  1
  Pb  Pb120  1  0.75298301  0.50988140  0.00542436  1
  Pb  Pb121  1  0.74967064  0.50094220  0.24635032  1
  Pb  Pb122  1  0.74901884  0.50413375  0.49350508  1
  Pb  Pb123  1  0.74813087  0.50958499  0.75995293  1
  Pb  Pb124  1  0.75651992  0.73899322  0.00042794  1
  Pb  Pb125  1  0.74861635  0.75038297  0.24822036  1
  Pb  Pb126  1  0.75281298  0.76193481  0.50461979  1
  Pb  Pb127  1  0.75061461  0.74563903  0.75512438  1
  O  O128  1  0.12186651  -0.00149266  0.16205961  1
  O  O129  1  0.11977726  0.00631222  0.41393448  1
  O  O130  1  0.12250998  -0.00465287  0.66505665  1
  O  O131  1  0.12650675  -0.00115565  0.91094256  1
  O  O132  1  0.12004464  0.24303693  0.15583559  1
  O  O133  1  0.11902799  0.24921442  0.41567772  1
  O  O134  1  0.12282042  0.25174033  0.66762418  1
  O  O135  1  0.12603200  0.24320460  0.91353406  1
  O  O136  1  0.12356497  0.49991389  0.16029597  1
  O  O137  1  0.11790322  0.49088234  0.40722333  1
  O  O138  1  0.12300890  0.49974796  0.66726628  1
  O  O139  1  0.12731860  0.50716870  0.91486767  1
  O  O140  1  0.12319051  0.75657910  0.16075838  1
  O  O141  1  0.12152187  0.75443211  0.41488105  1
  O  O142  1  0.12286585  0.75653875  0.66248251  1
  O  O143  1  0.12794494  0.74655341  0.91303375  1
  O  O144  1  0.37182914  -0.00654333  0.16275615  1
  O  O145  1  0.37265086  -0.00334661  0.40913760  1
  O  O146  1  0.37706475  0.00184356  0.66480913  1
  O  O147  1  0.37355873  0.00471716  0.91792203  1
  O  O148  1  0.37361600  0.24843291  0.16332920  1
  O  O149  1  0.37037774  0.25040271  0.40413900  1
  O  O150  1  0.37929910  0.25839740  0.66423698  1
  O  O151  1  0.37422848  0.24895740  0.92270808  1
  O  O152  1  0.37632920  0.50936211  0.16247189  1
  O  O153  1  0.37442513  0.49719645  0.41003686  1
  O  O154  1  0.37948876  0.49184277  0.66304742  1
  O  O155  1  0.37471632  0.50256764  0.91875359  1
  O  O156  1  0.37561648  0.74836839  0.16428298  1
  O  O157  1  0.37641403  0.75565192  0.41202771  1
  O  O158  1  0.37846585  0.74887096  0.66128801  1
  O  O159  1  0.37372894  0.74166696  0.91430621  1
  O  O160  1  0.62851650  -0.01009961  0.16034816  1
  O  O161  1  0.63003843  0.00101353  0.41168321  1
  O  O162  1  0.62942723  0.01161838  0.65987059  1
  O  O163  1  0.62076965  0.00237996  0.91667942  1
  O  O164  1  0.62883518  0.25637512  0.16193601  1
  O  O165  1  0.63087157  0.24884470  0.40766152  1
  O  O166  1  0.62875635  0.24992962  0.66948473  1
  O  O167  1  0.61996788  0.25183771  0.92298616  1
  O  O168  1  0.62864622  0.49663194  0.16028715  1
  O  O169  1  0.63054488  0.50568858  0.40920974  1
  O  O170  1  0.62763774  0.49914731  0.66909902  1
  O  O171  1  0.62150561  0.48841194  0.91974431  1
  O  O172  1  0.62707081  0.75514932  0.16246518  1
  O  O173  1  0.62853111  0.74483981  0.41308638  1
  O  O174  1  0.62701038  0.74004906  0.66088356  1
  O  O175  1  0.62090157  0.75580464  0.90840368  1
  O  O176  1  0.87716738  -0.00822909  0.16165113  1
  O  O177  1  0.87791569  0.00519992  0.41291870  1
  O  O178  1  0.87185385  0.00871489  0.66735950  1
  O  O179  1  0.87610751  -0.00236890  0.91482496  1
  O  O180  1  0.87645091  0.25431589  0.15954883  1
  O  O181  1  0.87807922  0.24847362  0.41376440  1
  O  O182  1  0.87198868  0.24958351  0.66810489  1
  O  O183  1  0.87276931  0.25661538  0.91898807  1
  O  O184  1  0.87499230  0.49205767  0.15974863  1
  O  O185  1  0.87641161  0.49202404  0.40832187  1
  O  O186  1  0.87207465  0.50194682  0.66768061  1
  O  O187  1  0.86957450  0.49090747  0.91428285  1
  O  O188  1  0.87655993  0.76074882  0.16245755  1
  O  O189  1  0.87641441  0.75692386  0.40810826  1
  O  O190  1  0.87108125  0.74211258  0.66609955  1
  O  O191  1  0.87535404  0.75119075  0.91313344  1
  O  O192  1  0.00408014  0.12109298  0.16246254  1
  O  O193  1  -0.00235400  0.12654438  0.41931069  1
  O  O194  1  -0.00748621  0.12742906  0.66449296  1
  O  O195  1  0.00868114  0.12397635  0.91335788  1
  O  O196  1  -0.00514500  0.37320441  0.15962513  1
  O  O197  1  -0.00400437  0.37061754  0.41615359  1
  O  O198  1  -0.00804476  0.37551176  0.66742833  1
  O  O199  1  -0.00630498  0.37421432  0.91228627  1
  O  O200  1  -0.00110123  0.62781878  0.16266099  1
  O  O201  1  -0.00383190  0.62417278  0.41426148  1
  O  O202  1  -0.00647646  0.62417435  0.66329419  1
  O  O203  1  0.00590138  0.62431725  0.91046134  1
  O  O204  1  -0.00007921  0.87628682  0.16155487  1
  O  O205  1  -0.00658143  0.88096597  0.41662855  1
  O  O206  1  0.00316737  0.87610121  0.66483315  1
  O  O207  1  0.01030909  0.87184534  0.91351581  1
  O  O208  1  0.23665844  0.12165196  0.16339424  1
  O  O209  1  0.24127722  0.12658691  0.40880085  1
  O  O210  1  0.25123669  0.12792940  0.66683017  1
  O  O211  1  0.24583517  0.12384542  0.91663217  1
  O  O212  1  0.24473549  0.37463677  0.16120604  1
  O  O213  1  0.24063015  0.37166038  0.40346791  1
  O  O214  1  0.25802348  0.37532475  0.65827437  1
  O  O215  1  0.25603046  0.37562484  0.91843315  1
  O  O216  1  0.25550629  0.62905762  0.16226611  1
  O  O217  1  0.24755798  0.62499781  0.41174347  1
  O  O218  1  0.25114305  0.62307558  0.66373166  1
  O  O219  1  0.25223039  0.62353289  0.91598827  1
  O  O220  1  0.24257619  0.87516793  0.15823472  1
  O  O221  1  0.25463604  0.87631831  0.41058321  1
  O  O222  1  0.24361770  0.87625594  0.66075389  1
  O  O223  1  0.24214653  0.87238746  0.91615706  1
  O  O224  1  0.50207506  0.12217071  0.16173331  1
  O  O225  1  0.49989497  0.12389065  0.40134732  1
  O  O226  1  0.50783323  0.13183661  0.66025903  1
  O  O227  1  0.49819235  0.12681072  0.92232971  1
  O  O228  1  0.50680340  0.37669377  0.16096803  1
  O  O229  1  0.50217392  0.37518692  0.40330266  1
  O  O230  1  0.50329025  0.37449767  0.66561554  1
  O  O231  1  0.49984318  0.37232646  0.92387206  1
  O  O232  1  0.49756263  0.62844284  0.16236465  1
  O  O233  1  0.50987693  0.62537600  0.41052311  1
  O  O234  1  0.50674555  0.61888388  0.66145153  1
  O  O235  1  0.49174911  0.62230920  0.91638097  1
  O  O236  1  0.50538845  0.87243981  0.15579630  1
  O  O237  1  0.49527329  0.87600228  0.41047167  1
  O  O238  1  0.50532793  0.87568850  0.66645803  1
  O  O239  1  0.50667322  0.87817036  0.91996320  1
  O  O240  1  0.75477833  0.12242707  0.16141025  1
  O  O241  1  0.76080597  0.12679106  0.40906847  1
  O  O242  1  0.74986240  0.12968721  0.66970788  1
  O  O243  1  0.74266016  0.12748090  0.91672413  1
  O  O244  1  0.75487694  0.37452529  0.16042888  1
  O  O245  1  0.75937603  0.37265747  0.41110875  1
  O  O246  1  0.75008713  0.37491702  0.67134800  1
  O  O247  1  0.74406621  0.36976649  0.91541270  1
  O  O248  1  0.74746583  0.62700348  0.16340392  1
  O  O249  1  0.74859802  0.62489324  0.41152262  1
  O  O250  1  0.74838087  0.62076115  0.66894927  1
  O  O251  1  0.74900012  0.62203220  0.91616182  1
  O  O252  1  0.75335103  0.87432194  0.15780845  1
  O  O253  1  0.75978703  0.87806297  0.41371816  1
  O  O254  1  0.74690134  0.87535316  0.67313189  1
  O  O255  1  0.73980675  0.88046281  0.90813118  1
  O  O256  1  0.12234166  0.12154877  0.04428116  1
  O  O257  1  0.11755241  0.12636449  0.30154718  1
  O  O258  1  0.12376765  0.12934792  0.53581691  1
  O  O259  1  0.12825440  0.12752556  0.79821831  1
  O  O260  1  0.12035254  0.38126995  0.02639392  1
  O  O261  1  0.11560483  0.36720894  0.29774488  1
  O  O262  1  0.11856191  0.37495033  0.53445093  1
  O  O263  1  0.12368495  0.37738024  0.79451646  1
  O  O264  1  0.12306360  0.62495498  0.03473216  1
  O  O265  1  0.12308109  0.63169354  0.28322130  1
  O  O266  1  0.12139491  0.62172464  0.53362577  1
  O  O267  1  0.12940950  0.62571310  0.79987270  1
  O  O268  1  0.12293898  0.87466868  0.04774158  1
  O  O269  1  0.11975265  0.87925562  0.28479901  1
  O  O270  1  0.12024453  0.87927889  0.54640171  1
  O  O271  1  0.12657228  0.87655812  0.79810836  1
  O  O272  1  0.36732528  0.12430245  0.04076239  1
  O  O273  1  0.36910512  0.12051986  0.27514779  1
  O  O274  1  0.36854656  0.12525798  0.53314754  1
  O  O275  1  0.37602126  0.12975208  0.80233401  1
  O  O276  1  0.37526361  0.37607844  0.04173245  1
  O  O277  1  0.37491473  0.38099663  0.27247070  1
  O  O278  1  0.37992173  0.37562604  0.54543658  1
  O  O279  1  0.37971934  0.37407471  0.80428893  1
  O  O280  1  0.37622316  0.63005213  0.04881328  1
  O  O281  1  0.37737474  0.62803998  0.28614819  1
  O  O282  1  0.37492444  0.61947561  0.53017370  1
  O  O283  1  0.37551954  0.62065658  0.79977503  1
  O  O284  1  0.37237258  0.87258936  0.02813860  1
  O  O285  1  0.37409188  0.87339660  0.29602373  1
  O  O286  1  0.37927923  0.88033367  0.53321682  1
  O  O287  1  0.38335630  0.87583933  0.79542109  1
  O  O288  1  0.62663594  0.12529381  0.03770374  1
  O  O289  1  0.63267875  0.12052545  0.27512423  1
  O  O290  1  0.62925684  0.13194458  0.54803676  1
  O  O291  1  0.61793407  0.12694756  0.80524303  1
  O  O292  1  0.62647186  0.37538513  0.05053884  1
  O  O293  1  0.63535974  0.37685880  0.27729454  1
  O  O294  1  0.62999250  0.37518121  0.54865633  1
  O  O295  1  0.62122270  0.37032978  0.80514327  1
  O  O296  1  0.62586283  0.62845266  0.02981263  1
  O  O297  1  0.62722514  0.63036613  0.29414914  1
  O  O298  1  0.63064303  0.61850105  0.55009160  1
  O  O299  1  0.62366567  0.61338139  0.79447539  1
  O  O300  1  0.62660203  0.87104850  0.04536579  1
  O  O301  1  0.63054658  0.87135180  0.28578703  1
  O  O302  1  0.63626548  0.87341617  0.53397235  1
  O  O303  1  0.61612435  0.87696109  0.79709646  1
  O  O304  1  0.87844119  0.12304158  0.03020852  1
  O  O305  1  0.88254221  0.12664915  0.29748045  1
  O  O306  1  0.87105162  0.12817791  0.55323104  1
  O  O307  1  0.87097589  0.12699199  0.79330554  1
  O  O308  1  0.87659972  0.37444808  0.04352301  1
  O  O309  1  0.88144408  0.37102419  0.29630345  1
  O  O310  1  0.87086154  0.37619574  0.54949969  1
  O  O311  1  0.87328115  0.37177744  0.80066165  1
  O  O312  1  0.87017960  0.62953345  0.03766940  1
  O  O313  1  0.87666970  0.62534329  0.27945891  1
  O  O314  1  0.87087206  0.62113274  0.55295380  1
  O  O315  1  0.87017966  0.62588212  0.78664621  1
  O  O316  1  0.87771877  0.87612741  0.04423202  1
  O  O317  1  0.87915250  0.87821728  0.29759496  1
  O  O318  1  0.86530395  0.87749570  0.54352788  1
  O  O319  1  0.88016554  0.87692739  0.78232546  1
