# generated using pymatgen
data_VFe(PbO3)2
_symmetry_space_group_name_H-M   'P 1'
_cell_length_a   15.37900692
_cell_length_b   15.37760887
_cell_length_c   18.55755811
_cell_angle_alpha   90.00040209
_cell_angle_beta   90.03621282
_cell_angle_gamma   90.01056218
_symmetry_Int_Tables_number   1
_chemical_formula_structural   VFe(PbO3)2
_chemical_formula_sum   'V32 Fe32 Pb64 O192'
_cell_volume   4388.71963625
_cell_formula_units_Z   32
loop_
 _symmetry_equiv_pos_site_id
 _symmetry_equiv_pos_as_xyz
  1  'x, y, z'
loop_
 _atom_site_type_symbol
 _atom_site_label
 _atom_site_symmetry_multiplicity
 _atom_site_fract_x
 _atom_site_fract_y
 _atom_site_fract_z
 _atom_site_occupancy
  V  V0  1  0.87548092  0.87563559  0.13840067  1
  V  V1  1  0.12475197  0.37422474  0.88953407  1
  V  V2  1  0.12707613  0.87730592  0.39134059  1
  V  V3  1  0.87673189  0.37288315  0.13872388  1
  V  V4  1  0.37381078  0.87317410  0.63909193  1
  V  V5  1  0.88283471  0.37544731  0.64094446  1
  V  V6  1  0.62599670  0.62695466  0.38698599  1
  V  V7  1  0.37243430  0.62587921  0.89163836  1
  V  V8  1  0.87358846  0.12424285  0.13902172  1
  V  V9  1  0.87414946  0.62366244  0.13817621  1
  V  V10  1  0.38063036  0.87520982  0.38688350  1
  V  V11  1  0.12405579  0.62458110  0.14114947  1
  V  V12  1  0.12143214  0.37588538  0.14122779  1
  V  V13  1  0.62466012  0.37774490  0.63779233  1
  V  V14  1  0.12657219  0.87682998  0.88950782  1
  V  V15  1  0.61798866  0.12479710  0.89048962  1
  V  V16  1  0.87787775  0.12266740  0.39726446  1
  V  V17  1  0.87497735  0.87200997  0.39511665  1
  V  V18  1  0.12418692  0.37372015  0.38991018  1
  V  V19  1  0.37394610  0.37511645  0.89292854  1
  V  V20  1  0.62571439  0.87341571  0.63899638  1
  V  V21  1  0.36964918  0.12598483  0.89523519  1
  V  V22  1  0.87276345  0.37254225  0.39119207  1
  V  V23  1  0.12443985  0.62302124  0.64008444  1
  V  V24  1  0.37577033  0.37513524  0.63545194  1
  V  V25  1  0.87338052  0.12667551  0.88659371  1
  V  V26  1  0.37215346  0.12761410  0.38614740  1
  V  V27  1  0.62763513  0.12384792  0.14116833  1
  V  V28  1  0.62788032  0.87167991  0.14219011  1
  V  V29  1  0.87419158  0.87678765  0.88475118  1
  V  V30  1  0.37697825  0.62312290  0.63967351  1
  V  V31  1  0.37830133  0.62558202  0.14155739  1
  Fe  Fe32  1  0.37506569  0.37654131  0.37481945  1
  Fe  Fe33  1  0.12867583  0.12722159  0.63115261  1
  Fe  Fe34  1  0.37822860  0.12595634  0.63127815  1
  Fe  Fe35  1  0.12119113  0.87254831  0.13299697  1
  Fe  Fe36  1  0.13113744  0.37743030  0.63219200  1
  Fe  Fe37  1  0.62796739  0.62620709  0.13238493  1
  Fe  Fe38  1  0.37336092  0.37304138  0.14828772  1
  Fe  Fe39  1  0.61949345  0.12602524  0.63288692  1
  Fe  Fe40  1  0.12339818  0.12338072  0.39167122  1
  Fe  Fe41  1  0.62014750  0.62625643  0.64329552  1
  Fe  Fe42  1  0.37658176  0.87623197  0.89246535  1
  Fe  Fe43  1  0.37519004  0.12238681  0.13412613  1
  Fe  Fe44  1  0.37224939  0.62932795  0.38096666  1
  Fe  Fe45  1  0.87689319  0.62385764  0.38973514  1
  Fe  Fe46  1  0.62582963  0.12203736  0.38768846  1
  Fe  Fe47  1  0.62894866  0.37610689  0.13707356  1
  Fe  Fe48  1  0.62401999  0.87890305  0.88359328  1
  Fe  Fe49  1  0.62241743  0.37159492  0.88935415  1
  Fe  Fe50  1  0.87083089  0.12730839  0.63202825  1
  Fe  Fe51  1  0.62693939  0.37370035  0.38140585  1
  Fe  Fe52  1  0.62818653  0.87615564  0.38548873  1
  Fe  Fe53  1  0.87711303  0.87466040  0.63284575  1
  Fe  Fe54  1  0.87881074  0.62415665  0.87847137  1
  Fe  Fe55  1  0.12686313  0.87263198  0.63334955  1
  Fe  Fe56  1  0.87173986  0.62405410  0.63982012  1
  Fe  Fe57  1  0.12091956  0.12483965  0.13140298  1
  Fe  Fe58  1  0.12253117  0.62709940  0.38310134  1
  Fe  Fe59  1  0.62386181  0.62496584  0.88289865  1
  Fe  Fe60  1  0.87579568  0.37301320  0.87909583  1
  Fe  Fe61  1  0.37270009  0.87621051  0.13218100  1
  Fe  Fe62  1  0.12936657  0.62344631  0.88606668  1
  Fe  Fe63  1  0.12452509  0.12678588  0.89162472  1
  Pb  Pb64  1  0.00827091  -0.00009155  0.00146414  1
  Pb  Pb65  1  0.00687330  0.00318211  0.24895774  1
  Pb  Pb66  1  0.00093282  -0.00735232  0.50889588  1
  Pb  Pb67  1  0.00368772  0.00239965  0.73872476  1
  Pb  Pb68  1  0.00423339  0.24396901  -0.00130060  1
  Pb  Pb69  1  0.00441674  0.24274565  0.25386109  1
  Pb  Pb70  1  0.00453022  0.24746928  0.50548361  1
  Pb  Pb71  1  0.00883063  0.24098213  0.74625269  1
  Pb  Pb72  1  -0.00481709  0.50394049  -0.00745415  1
  Pb  Pb73  1  -0.00327858  0.50857451  0.25447299  1
  Pb  Pb74  1  -0.00172364  0.50345905  0.49928280  1
  Pb  Pb75  1  -0.00867473  0.49989073  0.75282430  1
  Pb  Pb76  1  0.00363721  0.75411216  -0.00494889  1
  Pb  Pb77  1  -0.00186469  0.74232904  0.25275386  1
  Pb  Pb78  1  -0.00114574  0.75532214  0.50417638  1
  Pb  Pb79  1  -0.00327528  0.74706678  0.74587063  1
  Pb  Pb80  1  0.25215366  -0.00303955  0.00617108  1
  Pb  Pb81  1  0.24688333  0.00045255  0.23862155  1
  Pb  Pb82  1  0.25152937  0.00723312  0.50303558  1
  Pb  Pb83  1  0.24749672  0.00294290  0.74506236  1
  Pb  Pb84  1  0.25817335  0.24991278  0.01041066  1
  Pb  Pb85  1  0.24974896  0.24351988  0.24626032  1
  Pb  Pb86  1  0.24265915  0.25212570  0.50144276  1
  Pb  Pb87  1  0.24437874  0.24195010  0.74936302  1
  Pb  Pb88  1  0.25705300  0.49387009  0.00526986  1
  Pb  Pb89  1  0.25275350  0.50623085  0.25333479  1
  Pb  Pb90  1  0.25010377  0.49944029  0.49054719  1
  Pb  Pb91  1  0.24761852  0.50477978  0.75161892  1
  Pb  Pb92  1  0.24848907  0.75933120  0.00379595  1
  Pb  Pb93  1  0.24872061  0.74672569  0.24813453  1
  Pb  Pb94  1  0.24518941  0.75276845  0.49675708  1
  Pb  Pb95  1  0.25007234  0.74678371  0.75266152  1
  Pb  Pb96  1  0.49382356  -0.00169613  0.00395139  1
  Pb  Pb97  1  0.50958207  -0.00096999  0.25097762  1
  Pb  Pb98  1  0.50125629  0.00694741  0.50048439  1
  Pb  Pb99  1  0.49601193  -0.00703612  0.75172202  1
  Pb  Pb100  1  0.48970861  0.25907222  0.01278002  1
  Pb  Pb101  1  0.50156680  0.25491570  0.24843770  1
  Pb  Pb102  1  0.50203868  0.24553262  0.49194655  1
  Pb  Pb103  1  0.50143147  0.25407843  0.74806808  1
  Pb  Pb104  1  0.51146425  0.49788214  0.00280904  1
  Pb  Pb105  1  0.50419690  0.49291135  0.24709280  1
  Pb  Pb106  1  0.49826060  0.49732537  0.48866368  1
  Pb  Pb107  1  0.50783341  0.49955805  0.75679533  1
  Pb  Pb108  1  0.50563874  0.74952935  -0.00283518  1
  Pb  Pb109  1  0.49573064  0.74870525  0.24925173  1
  Pb  Pb110  1  0.51060805  0.74314361  0.50189004  1
  Pb  Pb111  1  0.49773277  0.76163200  0.75861048  1
  Pb  Pb112  1  0.75359559  0.00172620  -0.00228794  1
  Pb  Pb113  1  0.74451165  -0.00061438  0.25746653  1
  Pb  Pb114  1  0.75209281  0.00300188  0.50292746  1
  Pb  Pb115  1  0.74943546  0.00391179  0.74118825  1
  Pb  Pb116  1  0.74638360  0.26035385  0.00021622  1
  Pb  Pb117  1  0.74340912  0.24811478  0.25382030  1
  Pb  Pb118  1  0.74662032  0.24344148  0.50158981  1
  Pb  Pb119  1  0.74736855  0.25936632  0.74824094  1
  Pb  Pb120  1  0.74720484  0.49952725  -0.00990773  1
  Pb  Pb121  1  0.74704183  0.49643210  0.24761700  1
  Pb  Pb122  1  0.74989197  0.50936851  0.50376111  1
  Pb  Pb123  1  0.74626744  0.50490573  0.75362113  1
  Pb  Pb124  1  0.74500412  0.74050037  -0.00866292  1
  Pb  Pb125  1  0.75676220  0.74619948  0.25139515  1
  Pb  Pb126  1  0.75186303  0.73844208  0.50790770  1
  Pb  Pb127  1  0.74895463  0.74277838  0.74820811  1
  O  O128  1  0.11853843  -0.00094426  0.16035830  1
  O  O129  1  0.12275997  -0.00563376  0.41600128  1
  O  O130  1  0.13030320  0.00024048  0.65919523  1
  O  O131  1  0.12307555  -0.00416513  0.91275750  1
  O  O132  1  0.11967241  0.25629478  0.16216121  1
  O  O133  1  0.12405795  0.25438241  0.41462253  1
  O  O134  1  0.12926046  0.25437202  0.66473053  1
  O  O135  1  0.12657779  0.25709576  0.91719083  1
  O  O136  1  0.12201097  0.49882589  0.16743192  1
  O  O137  1  0.12332068  0.49341811  0.41065566  1
  O  O138  1  0.13175369  0.50487861  0.66370843  1
  O  O139  1  0.12948627  0.49141052  0.91600165  1
  O  O140  1  0.12083503  0.74449754  0.16248440  1
  O  O141  1  0.12022786  0.75806733  0.41263324  1
  O  O142  1  0.12981298  0.74069622  0.66481058  1
  O  O143  1  0.12630445  0.75628788  0.91292691  1
  O  O144  1  0.37765313  -0.00136308  0.16366882  1
  O  O145  1  0.37096566  -0.00736596  0.41288798  1
  O  O146  1  0.37437786  -0.00914913  0.65968729  1
  O  O147  1  0.37530074  0.00826448  0.91668775  1
  O  O148  1  0.37556579  0.24458517  0.16882581  1
  O  O149  1  0.37548579  0.24411600  0.40137296  1
  O  O150  1  0.37836375  0.25971654  0.65573880  1
  O  O151  1  0.37578512  0.24724739  0.92042946  1
  O  O152  1  0.37262139  0.50757391  0.16367483  1
  O  O153  1  0.37300803  0.50214641  0.40663267  1
  O  O154  1  0.37538885  0.50416823  0.66321411  1
  O  O155  1  0.37295790  0.50011975  0.91854335  1
  O  O156  1  0.37586414  0.74764260  0.16296769  1
  O  O157  1  0.37176507  0.75908314  0.41355002  1
  O  O158  1  0.37415459  0.74771567  0.66556513  1
  O  O159  1  0.37218651  0.74353552  0.91336567  1
  O  O160  1  0.63186810  -0.00149771  0.16586791  1
  O  O161  1  0.62700572  -0.00213379  0.41884227  1
  O  O162  1  0.61776296  -0.00824303  0.65846894  1
  O  O163  1  0.62884172  0.00831038  0.91788927  1
  O  O164  1  0.63092865  0.24195994  0.16123875  1
  O  O165  1  0.62411513  0.24852054  0.41130615  1
  O  O166  1  0.61702245  0.25974313  0.66156720  1
  O  O167  1  0.62808966  0.23872694  0.91742076  1
  O  O168  1  0.62820906  0.50297129  0.16288340  1
  O  O169  1  0.62712084  0.50814298  0.40906697  1
  O  O170  1  0.61778632  0.49439501  0.66511722  1
  O  O171  1  0.62137928  0.49954075  0.91293029  1
  O  O172  1  0.62966117  0.75474340  0.16307325  1
  O  O173  1  0.62764777  0.74695749  0.41475010  1
  O  O174  1  0.61930547  0.75717960  0.66697506  1
  O  O175  1  0.62350718  0.75190036  0.91079317  1
  O  O176  1  0.87405304  0.00147797  0.16483159  1
  O  O177  1  0.87739801  0.00291956  0.41610665  1
  O  O178  1  0.87214039  0.00064154  0.66231342  1
  O  O179  1  0.87788349  -0.00138531  0.91359636  1
  O  O180  1  0.87497921  0.24775813  0.16614757  1
  O  O181  1  0.87664602  0.25336814  0.41700519  1
  O  O182  1  0.86937220  0.25911020  0.66257230  1
  O  O183  1  0.87599201  0.24303657  0.90906785  1
  O  O184  1  0.87655379  0.49865354  0.16403013  1
  O  O185  1  0.87589898  0.49181421  0.41571066  1
  O  O186  1  0.87198713  0.49270073  0.66477119  1
  O  O187  1  0.87857175  0.49807843  0.90936512  1
  O  O188  1  0.87436631  0.74966564  0.16554639  1
  O  O189  1  0.87751998  0.75555497  0.41290988  1
  O  O190  1  0.87467079  0.75006266  0.66450129  1
  O  O191  1  0.87869626  0.75968790  0.90645464  1
  O  O192  1  -0.00584427  0.12639005  0.16499487  1
  O  O193  1  -0.00493408  0.12770282  0.41983604  1
  O  O194  1  -0.00041135  0.12963124  0.65774694  1
  O  O195  1  -0.00720888  0.12381495  0.91270650  1
  O  O196  1  0.00144890  0.37633397  0.16888310  1
  O  O197  1  -0.00096238  0.37315059  0.41632018  1
  O  O198  1  -0.00086285  0.37760902  0.65640131  1
  O  O199  1  0.00707459  0.37338156  0.90964182  1
  O  O200  1  -0.00234709  0.62354168  0.16703215  1
  O  O201  1  0.00083757  0.62347846  0.41884603  1
  O  O202  1  0.00712057  0.62064154  0.65740811  1
  O  O203  1  0.00378957  0.62571253  0.91318842  1
  O  O204  1  -0.00706511  0.87314434  0.16443551  1
  O  O205  1  -0.00140009  0.87835596  0.41761008  1
  O  O206  1  0.00305860  0.87324822  0.66454678  1
  O  O207  1  0.00051062  0.87632492  0.91177371  1
  O  O208  1  0.24601073  0.12534869  0.15755874  1
  O  O209  1  0.25540300  0.12020899  0.41095639  1
  O  O210  1  0.25573362  0.12661723  0.66540669  1
  O  O211  1  0.25423949  0.12679587  0.91457355  1
  O  O212  1  0.23788443  0.37683566  0.16595862  1
  O  O213  1  0.24511683  0.37364614  0.40630073  1
  O  O214  1  0.26058902  0.38055622  0.66046446  1
  O  O215  1  0.24982991  0.37234608  0.92076019  1
  O  O216  1  0.25059071  0.62619495  0.16430740  1
  O  O217  1  0.24665659  0.62878098  0.41266311  1
  O  O218  1  0.25538973  0.62496021  0.66693735  1
  O  O219  1  0.25523746  0.62264953  0.92117156  1
  O  O220  1  0.24747876  0.87281444  0.16122300  1
  O  O221  1  0.24613219  0.87493847  0.41005026  1
  O  O222  1  0.25577916  0.86978204  0.66299004  1
  O  O223  1  0.24500929  0.87783848  0.91337550  1
  O  O224  1  0.51126570  0.12104300  0.15997955  1
  O  O225  1  0.49100889  0.11766046  0.40927598  1
  O  O226  1  0.49823450  0.12553288  0.66726132  1
  O  O227  1  0.50268844  0.12423840  0.91300346  1
  O  O228  1  0.50288333  0.37368178  0.16327560  1
  O  O229  1  0.49997284  0.37726187  0.40690161  1
  O  O230  1  0.49446023  0.38037317  0.66520291  1
  O  O231  1  0.49418257  0.37145008  0.91986169  1
  O  O232  1  0.49675121  0.62760536  0.16131935  1
  O  O233  1  0.50570747  0.62946850  0.40852402  1
  O  O234  1  0.49067659  0.62590077  0.66579321  1
  O  O235  1  0.49007243  0.62327739  0.91418351  1
  O  O236  1  0.50983938  0.87583676  0.15968312  1
  O  O237  1  0.49525347  0.87476006  0.40864839  1
  O  O238  1  0.49418942  0.87110771  0.66485070  1
  O  O239  1  0.50167101  0.87985095  0.91983889  1
  O  O240  1  0.75072040  0.12279865  0.16918906  1
  O  O241  1  0.75743571  0.12628092  0.41532503  1
  O  O242  1  0.74372102  0.12849824  0.66455314  1
  O  O243  1  0.75598505  0.12150057  0.91316067  1
  O  O244  1  0.75741420  0.37309837  0.16599729  1
  O  O245  1  0.75618874  0.37350561  0.41334910  1
  O  O246  1  0.74061181  0.37673212  0.65880927  1
  O  O247  1  0.75071343  0.37097029  0.91203227  1
  O  O248  1  0.75469631  0.62696986  0.16386656  1
  O  O249  1  0.74690440  0.62658596  0.41499326  1
  O  O250  1  0.74590270  0.62319127  0.66706237  1
  O  O251  1  0.75325213  0.62685150  0.90632344  1
  O  O252  1  0.75178415  0.87522315  0.16875147  1
  O  O253  1  0.75816560  0.87808159  0.41440798  1
  O  O254  1  0.74238100  0.87381832  0.65673090  1
  O  O255  1  0.75703253  0.87928914  0.90788941  1
  O  O256  1  0.11277667  0.12591280  0.03021105  1
  O  O257  1  0.11493767  0.12556395  0.29177237  1
  O  O258  1  0.13400390  0.13225130  0.52986116  1
  O  O259  1  0.12755931  0.13496795  0.79152117  1
  O  O260  1  0.11994927  0.37782761  0.05070586  1
  O  O261  1  0.11863382  0.37081103  0.29937314  1
  O  O262  1  0.13326114  0.37152750  0.53317204  1
  O  O263  1  0.12975817  0.37475111  0.79863238  1
  O  O264  1  0.12390908  0.62165658  0.05032062  1
  O  O265  1  0.11964816  0.62577038  0.28304638  1
  O  O266  1  0.13092870  0.62408177  0.54929723  1
  O  O267  1  0.13547095  0.62183017  0.78718810  1
  O  O268  1  0.12161480  0.87221683  0.03288500  1
  O  O269  1  0.12151853  0.87808087  0.30042320  1
  O  O270  1  0.12247297  0.86851366  0.53395688  1
  O  O271  1  0.12608019  0.87557729  0.79872377  1
  O  O272  1  0.37822374  0.12810467  0.03370606  1
  O  O273  1  0.37200254  0.11972181  0.29542084  1
  O  O274  1  0.37705233  0.11921102  0.53148811  1
  O  O275  1  0.37379897  0.12839185  0.80444619  1
  O  O276  1  0.36862929  0.36624481  0.04586484  1
  O  O277  1  0.37399080  0.37713418  0.27420066  1
  O  O278  1  0.37849381  0.37945703  0.54442343  1
  O  O279  1  0.37231389  0.37325140  0.80232426  1
  O  O280  1  0.37466468  0.62556065  0.05089269  1
  O  O281  1  0.37178480  0.63438382  0.28156892  1
  O  O282  1  0.37551724  0.62551077  0.54889428  1
  O  O283  1  0.36873190  0.62263846  0.80055685  1
  O  O284  1  0.36796052  0.87992501  0.03100773  1
  O  O285  1  0.37807446  0.87356418  0.29579417  1
  O  O286  1  0.37647673  0.87004052  0.54853011  1
  O  O287  1  0.38298449  0.87630483  0.79235666  1
  O  O288  1  0.63378244  0.11904786  0.05061798  1
  O  O289  1  0.62962250  0.11713541  0.28687267  1
  O  O290  1  0.61780813  0.12830993  0.53231922  1
  O  O291  1  0.62143667  0.12593145  0.79975367  1
  O  O292  1  0.62889246  0.37211593  0.03616746  1
  O  O293  1  0.63221598  0.37420352  0.28113311  1
  O  O294  1  0.62029783  0.37878299  0.54685906  1
  O  O295  1  0.61558038  0.37030095  0.78940512  1
  O  O296  1  0.62619522  0.63048168  0.03266444  1
  O  O297  1  0.62906655  0.62999184  0.29611022  1
  O  O298  1  0.62442799  0.63234163  0.54226100  1
  O  O299  1  0.62171471  0.61828488  0.78195780  1
  O  O300  1  0.63330253  0.87590213  0.05151966  1
  O  O301  1  0.62758938  0.88209056  0.28597315  1
  O  O302  1  0.61882352  0.86783835  0.54785092  1
  O  O303  1  0.61303169  0.88010014  0.78467273  1
  O  O304  1  0.87161795  0.12481543  0.04803920  1
  O  O305  1  0.87862995  0.12573662  0.30633544  1
  O  O306  1  0.86680957  0.12953164  0.53250672  1
  O  O307  1  0.87170384  0.12365491  0.79595085  1
  O  O308  1  0.87776250  0.37209368  0.04792414  1
  O  O309  1  0.87544209  0.37182452  0.30062769  1
  O  O310  1  0.87351348  0.37674919  0.55020569  1
  O  O311  1  0.87591286  0.37505228  0.77989127  1
  O  O312  1  0.87750558  0.62444498  0.04728001  1
  O  O313  1  0.87992546  0.62716810  0.28969138  1
  O  O314  1  0.86441550  0.62078277  0.53790805  1
  O  O315  1  0.88109443  0.62009421  0.77774762  1
  O  O316  1  0.87257407  0.87441334  0.04762640  1
  O  O317  1  0.87829804  0.87617575  0.30428249  1
  O  O318  1  0.88294140  0.87709204  0.53270749  1
  O  O319  1  0.87679798  0.87990307  0.79438380  1
