# generated using pymatgen
data_VFe(PbO3)2
_symmetry_space_group_name_H-M   'P 1'
_cell_length_a   15.37648096
_cell_length_b   15.37525065
_cell_length_c   18.52422249
_cell_angle_alpha   90.04994646
_cell_angle_beta   89.96842447
_cell_angle_gamma   90.00645375
_symmetry_Int_Tables_number   1
_chemical_formula_structural   VFe(PbO3)2
_chemical_formula_sum   'V32 Fe32 Pb64 O192'
_cell_volume   4379.44336351
_cell_formula_units_Z   32
loop_
 _symmetry_equiv_pos_site_id
 _symmetry_equiv_pos_as_xyz
  1  'x, y, z'
loop_
 _atom_site_type_symbol
 _atom_site_label
 _atom_site_symmetry_multiplicity
 _atom_site_fract_x
 _atom_site_fract_y
 _atom_site_fract_z
 _atom_site_occupancy
  V  V0  1  0.37542265  0.12508123  0.64557194  1
  V  V1  1  0.12244874  0.12597593  0.63693754  1
  V  V2  1  0.62290760  0.87839926  0.64218187  1
  V  V3  1  0.62970269  0.37316974  0.88825778  1
  V  V4  1  0.87600903  0.62430072  0.39349540  1
  V  V5  1  0.87732380  0.37629019  0.13765702  1
  V  V6  1  0.12361210  0.87480755  0.14622691  1
  V  V7  1  0.12489594  0.37604010  0.39194995  1
  V  V8  1  0.87438169  0.37610088  0.38820706  1
  V  V9  1  0.37287219  0.62296248  0.38980673  1
  V  V10  1  0.87592413  0.87386477  0.14403474  1
  V  V11  1  0.37338970  0.12667965  0.38692610  1
  V  V12  1  0.37645495  0.37758975  0.64807000  1
  V  V13  1  0.87683282  0.62458931  0.14066998  1
  V  V14  1  0.12273388  0.12390475  0.88789584  1
  V  V15  1  0.62645557  0.37564821  0.13804164  1
  V  V16  1  0.62342965  0.87200814  0.38655809  1
  V  V17  1  0.37468714  0.62605948  0.13614840  1
  V  V18  1  0.62199969  0.62698066  0.64494291  1
  V  V19  1  0.87670199  0.62487907  0.88451264  1
  V  V20  1  0.37383432  0.87310858  0.64354808  1
  V  V21  1  0.87301706  0.37536558  0.64232376  1
  V  V22  1  0.37389237  0.62599092  0.88573331  1
  V  V23  1  0.87433191  0.12369066  0.88875155  1
  V  V24  1  0.12169681  0.87561105  0.88834843  1
  V  V25  1  0.37363248  0.12598046  0.13527361  1
  V  V26  1  0.12487565  0.62687466  0.14277806  1
  V  V27  1  0.37429586  0.37482068  0.38634177  1
  V  V28  1  0.62288091  0.12854905  0.64510560  1
  V  V29  1  0.37420753  0.87338583  0.14164281  1
  V  V30  1  0.62391933  0.37502784  0.64147650  1
  V  V31  1  0.12530785  0.62518270  0.63973669  1
  Fe  Fe32  1  0.87875169  0.87685979  0.88443410  1
  Fe  Fe33  1  0.12428688  0.62744457  0.88099414  1
  Fe  Fe34  1  0.37442093  0.12266991  0.88392395  1
  Fe  Fe35  1  0.12765039  0.37194545  0.64614675  1
  Fe  Fe36  1  0.12797058  0.87339806  0.38965551  1
  Fe  Fe37  1  0.87602864  0.12594014  0.14194192  1
  Fe  Fe38  1  0.62430207  0.62347731  0.38397202  1
  Fe  Fe39  1  0.37324553  0.87648686  0.88412370  1
  Fe  Fe40  1  0.62284032  0.37809431  0.38470686  1
  Fe  Fe41  1  0.87303862  0.87466609  0.62971668  1
  Fe  Fe42  1  0.62858906  0.87543610  0.88433723  1
  Fe  Fe43  1  0.12130760  0.37518493  0.88020874  1
  Fe  Fe44  1  0.62549377  0.12191932  0.13903544  1
  Fe  Fe45  1  0.62588217  0.62365366  0.88750270  1
  Fe  Fe46  1  0.87464243  0.12712501  0.38464383  1
  Fe  Fe47  1  0.12539389  0.12472121  0.14081592  1
  Fe  Fe48  1  0.62719228  0.12526495  0.88035010  1
  Fe  Fe49  1  0.37555982  0.37699918  0.12704673  1
  Fe  Fe50  1  0.62217408  0.12673967  0.38056498  1
  Fe  Fe51  1  0.87240382  0.12611926  0.63003268  1
  Fe  Fe52  1  0.37640088  0.37379029  0.89199206  1
  Fe  Fe53  1  0.12732772  0.87750316  0.62954202  1
  Fe  Fe54  1  0.87430878  0.37304321  0.88453610  1
  Fe  Fe55  1  0.12551200  0.37705436  0.13226067  1
  Fe  Fe56  1  0.37688656  0.62517365  0.63902110  1
  Fe  Fe57  1  0.87316789  0.62358911  0.63384582  1
  Fe  Fe58  1  0.37726484  0.87498939  0.38086538  1
  Fe  Fe59  1  0.62690916  0.62651426  0.13392330  1
  Fe  Fe60  1  0.87250263  0.87335123  0.38709425  1
  Fe  Fe61  1  0.12526640  0.62093341  0.38607832  1
  Fe  Fe62  1  0.62584855  0.87311692  0.13356309  1
  Fe  Fe63  1  0.12688336  0.12835315  0.38254587  1
  Pb  Pb64  1  -0.00067040  0.01156397  0.00824610  1
  Pb  Pb65  1  -0.00029562  0.00744334  0.25796074  1
  Pb  Pb66  1  -0.00065386  -0.00161672  0.48954147  1
  Pb  Pb67  1  -0.01070576  -0.00698949  0.74003617  1
  Pb  Pb68  1  0.00240710  0.24548588  0.00201858  1
  Pb  Pb69  1  0.00407838  0.24079217  0.25160082  1
  Pb  Pb70  1  -0.00186854  0.24514877  0.49949654  1
  Pb  Pb71  1  -0.00308829  0.25879199  0.75217335  1
  Pb  Pb72  1  0.00641028  0.49291557  -0.00696241  1
  Pb  Pb73  1  0.00449686  0.50602314  0.25145489  1
  Pb  Pb74  1  -0.00097708  0.50044864  0.50545277  1
  Pb  Pb75  1  0.00374273  0.49655460  0.75076016  1
  Pb  Pb76  1  -0.00371836  0.74899734  -0.00277456  1
  Pb  Pb77  1  0.00142449  0.76016399  0.26232184  1
  Pb  Pb78  1  0.00173190  0.75908023  0.49949073  1
  Pb  Pb79  1  -0.00877728  0.75518848  0.74214490  1
  Pb  Pb80  1  0.24687908  0.00472287  -0.00053058  1
  Pb  Pb81  1  0.24980836  -0.00856671  0.25527082  1
  Pb  Pb82  1  0.24537874  -0.00425570  0.49608784  1
  Pb  Pb83  1  0.25727846  0.00070622  0.75131404  1
  Pb  Pb84  1  0.24644395  0.25738293  -0.00346014  1
  Pb  Pb85  1  0.24633428  0.25220306  0.24106229  1
  Pb  Pb86  1  0.24369224  0.25590777  0.50523145  1
  Pb  Pb87  1  0.25909889  0.24943990  0.75836021  1
  Pb  Pb88  1  0.24422586  0.49081478  -0.00507059  1
  Pb  Pb89  1  0.24859688  0.50296338  0.24533617  1
  Pb  Pb90  1  0.24584905  0.49592524  0.50636559  1
  Pb  Pb91  1  0.24228299  0.50052641  0.75572497  1
  Pb  Pb92  1  0.25191605  0.74847398  -0.00335199  1
  Pb  Pb93  1  0.24660887  0.75445477  0.25767797  1
  Pb  Pb94  1  0.24683469  0.75231694  0.49770902  1
  Pb  Pb95  1  0.24377645  0.74486998  0.74939199  1
  Pb  Pb96  1  0.50692360  0.00011363  -0.00839247  1
  Pb  Pb97  1  0.50101298  -0.00146222  0.24451210  1
  Pb  Pb98  1  0.50184533  -0.00016202  0.49532778  1
  Pb  Pb99  1  0.49857744  -0.00108819  0.75809782  1
  Pb  Pb100  1  0.49900377  0.24462903  -0.00593645  1
  Pb  Pb101  1  0.50811661  0.25151322  0.24664229  1
  Pb  Pb102  1  0.50144628  0.25154791  0.49605889  1
  Pb  Pb103  1  0.49323376  0.25075604  0.75950105  1
  Pb  Pb104  1  0.50027008  0.50120269  -0.00152284  1
  Pb  Pb105  1  0.50946564  0.49926060  0.24953260  1
  Pb  Pb106  1  0.49551900  0.50425604  0.50044833  1
  Pb  Pb107  1  0.50177593  0.50068466  0.75738310  1
  Pb  Pb108  1  0.50860510  0.75626351  -0.00419146  1
  Pb  Pb109  1  0.50548473  0.74573028  0.24627590  1
  Pb  Pb110  1  0.49377586  0.74276275  0.49971712  1
  Pb  Pb111  1  0.50351547  0.75977298  0.75852758  1
  Pb  Pb112  1  0.74199247  -0.00105805  -0.00018502  1
  Pb  Pb113  1  0.75062764  0.00687821  0.25089336  1
  Pb  Pb114  1  0.75892927  0.00419968  0.49468509  1
  Pb  Pb115  1  0.74508616  0.00011870  0.74896772  1
  Pb  Pb116  1  0.75264869  0.23472187  0.00599907  1
  Pb  Pb117  1  0.74944509  0.24310104  0.25237446  1
  Pb  Pb118  1  0.74897305  0.24387828  0.49556068  1
  Pb  Pb119  1  0.74934299  0.24814802  0.75047692  1
  Pb  Pb120  1  0.74665523  0.50651642  -0.00091921  1
  Pb  Pb121  1  0.74183042  0.49918966  0.25148996  1
  Pb  Pb122  1  0.74986360  0.50366430  0.50031358  1
  Pb  Pb123  1  0.74622713  0.50438234  0.75339286  1
  Pb  Pb124  1  0.74314919  0.75514922  -0.00357404  1
  Pb  Pb125  1  0.75381927  0.75151969  0.25102321  1
  Pb  Pb126  1  0.75630052  0.74970639  0.50313164  1
  Pb  Pb127  1  0.74716755  0.75422608  0.75135379  1
  O  O128  1  0.12410414  -0.00864908  0.16632639  1
  O  O129  1  0.12881255  0.00336943  0.41161708  1
  O  O130  1  0.13094956  0.00845101  0.65864979  1
  O  O131  1  0.12096874  -0.00110634  0.91592847  1
  O  O132  1  0.12401052  0.25296508  0.16258026  1
  O  O133  1  0.12789781  0.25557427  0.41788537  1
  O  O134  1  0.12957709  0.24079945  0.66749069  1
  O  O135  1  0.12116424  0.24164339  0.90637712  1
  O  O136  1  0.12463221  0.50422334  0.16514310  1
  O  O137  1  0.12580721  0.49641591  0.42270625  1
  O  O138  1  0.12814470  0.50393811  0.66519201  1
  O  O139  1  0.12382832  0.50268894  0.90780434  1
  O  O140  1  0.12441302  0.75039773  0.17016152  1
  O  O141  1  0.12768722  0.74401858  0.41540410  1
  O  O142  1  0.12909422  0.74586405  0.65800053  1
  O  O143  1  0.12293151  0.75625365  0.91144732  1
  O  O144  1  0.37237307  0.00071692  0.16273746  1
  O  O145  1  0.37665234  0.00762615  0.40981691  1
  O  O146  1  0.37818625  -0.00324646  0.66683792  1
  O  O147  1  0.36983104  -0.00015462  0.91698582  1
  O  O148  1  0.37598193  0.24443621  0.15544364  1
  O  O149  1  0.37575486  0.24965030  0.41453726  1
  O  O150  1  0.37912338  0.25246136  0.67065795  1
  O  O151  1  0.37319177  0.24596951  0.91558961  1
  O  O152  1  0.37372790  0.50858499  0.15617220  1
  O  O153  1  0.37455695  0.49983681  0.41560581  1
  O  O154  1  0.37832283  0.49511116  0.66799434  1
  O  O155  1  0.37517091  0.50799672  0.90998246  1
  O  O156  1  0.37154497  0.74564453  0.16668776  1
  O  O157  1  0.37654143  0.74258111  0.40942311  1
  O  O158  1  0.37826947  0.75592677  0.66463455  1
  O  O159  1  0.37169742  0.74663249  0.91276746  1
  O  O160  1  0.62690437  -0.00409930  0.16584061  1
  O  O161  1  0.62142115  -0.00580484  0.41002006  1
  O  O162  1  0.62220665  -0.00353974  0.66284804  1
  O  O163  1  0.62998033  0.00141118  0.91140086  1
  O  O164  1  0.62618617  0.25761167  0.16123136  1
  O  O165  1  0.62115341  0.25284651  0.41386101  1
  O  O166  1  0.62343437  0.25310655  0.66850206  1
  O  O167  1  0.62875695  0.25528924  0.90935494  1
  O  O168  1  0.62618205  0.49786733  0.16240796  1
  O  O169  1  0.62368545  0.50081830  0.41849618  1
  O  O170  1  0.62349781  0.49971387  0.66719921  1
  O  O171  1  0.62643754  0.49527042  0.91570225  1
  O  O172  1  0.62549729  0.74949910  0.16539514  1
  O  O173  1  0.62111906  0.75256333  0.41196296  1
  O  O174  1  0.62139363  0.74886049  0.66417368  1
  O  O175  1  0.62672167  0.74848153  0.91203341  1
  O  O176  1  0.87825313  -0.01024028  0.16320023  1
  O  O177  1  0.87166876  -0.00015040  0.40768416  1
  O  O178  1  0.87120705  0.00107688  0.65798498  1
  O  O179  1  0.87946084  0.00759480  0.91348536  1
  O  O180  1  0.87302583  0.26224935  0.16120086  1
  O  O181  1  0.87565052  0.25993975  0.41223388  1
  O  O182  1  0.87210700  0.25430925  0.66363749  1
  O  O183  1  0.87847018  0.24174273  0.91425192  1
  O  O184  1  0.87399508  0.50334503  0.16501936  1
  O  O185  1  0.87621826  0.49689876  0.41833302  1
  O  O186  1  0.87253539  0.49503186  0.66415251  1
  O  O187  1  0.87607887  0.50646250  0.90907134  1
  O  O188  1  0.87994535  0.74531629  0.16827334  1
  O  O189  1  0.87245186  0.74163514  0.41283278  1
  O  O190  1  0.87189588  0.74857958  0.66171807  1
  O  O191  1  0.87905935  0.74432145  0.91229097  1
  O  O192  1  -0.00033832  0.12266945  0.16923144  1
  O  O193  1  0.00104895  0.13022747  0.41232624  1
  O  O194  1  0.00551995  0.12639141  0.65340714  1
  O  O195  1  0.00132449  0.12280334  0.91641506  1
  O  O196  1  -0.00761393  0.38257547  0.15890923  1
  O  O197  1  -0.00242684  0.37716231  0.41644380  1
  O  O198  1  -0.00595585  0.37391954  0.66130286  1
  O  O199  1  -0.00179939  0.37323627  0.91401838  1
  O  O200  1  -0.00298649  0.62368651  0.16832207  1
  O  O201  1  -0.00570378  0.61985291  0.41632197  1
  O  O202  1  0.00600376  0.62251782  0.65758710  1
  O  O203  1  -0.00448431  0.62624744  0.91097046  1
  O  O204  1  0.00177243  0.86950719  0.16999700  1
  O  O205  1  -0.00041857  0.87155741  0.41093460  1
  O  O206  1  0.00256888  0.87588478  0.65546157  1
  O  O207  1  0.00561682  0.87645607  0.91826135  1
  O  O208  1  0.25703993  0.12314621  0.16290597  1
  O  O209  1  0.25793364  0.12931844  0.41199349  1
  O  O210  1  0.25296450  0.12592504  0.66692556  1
  O  O211  1  0.23948398  0.12089688  0.90993189  1
  O  O212  1  0.25280422  0.37727936  0.16079127  1
  O  O213  1  0.25198259  0.37604429  0.41839474  1
  O  O214  1  0.25920359  0.37295214  0.66933789  1
  O  O215  1  0.24650254  0.37377837  0.90871397  1
  O  O216  1  0.25173525  0.62649674  0.16454907  1
  O  O217  1  0.25661247  0.62029957  0.41357014  1
  O  O218  1  0.24857446  0.62444999  0.66554993  1
  O  O219  1  0.25421856  0.62784431  0.91181550  1
  O  O220  1  0.24566939  0.87180512  0.16798509  1
  O  O221  1  0.25686451  0.87404662  0.41610123  1
  O  O222  1  0.25573173  0.87687321  0.66076435  1
  O  O223  1  0.23926100  0.87678228  0.91387170  1
  O  O224  1  0.49242965  0.12294304  0.16066018  1
  O  O225  1  0.49392459  0.12725618  0.41470010  1
  O  O226  1  0.49961155  0.12448859  0.67011176  1
  O  O227  1  0.50184905  0.12511539  0.90740315  1
  O  O228  1  0.50529541  0.37740534  0.15675128  1
  O  O229  1  0.49290179  0.37631527  0.41529244  1
  O  O230  1  0.50019036  0.37484908  0.67101284  1
  O  O231  1  0.51007592  0.37542059  0.91527605  1
  O  O232  1  0.49312751  0.62709610  0.15764995  1
  O  O233  1  0.49413488  0.62196157  0.41517818  1
  O  O234  1  0.50507403  0.62350225  0.67046740  1
  O  O235  1  0.49261104  0.62644449  0.91009870  1
  O  O236  1  0.49530229  0.87270615  0.16084938  1
  O  O237  1  0.50276365  0.87463369  0.41400008  1
  O  O238  1  0.50069516  0.87502226  0.66884124  1
  O  O239  1  0.49925423  0.87509960  0.91196518  1
  O  O240  1  0.75147963  0.12594511  0.16822675  1
  O  O241  1  0.74651702  0.12847638  0.41008676  1
  O  O242  1  0.74509752  0.12625916  0.66329028  1
  O  O243  1  0.75715655  0.12620236  0.91010905  1
  O  O244  1  0.75016973  0.38056148  0.16348610  1
  O  O245  1  0.75702814  0.37818055  0.41029153  1
  O  O246  1  0.74896043  0.37506190  0.66582721  1
  O  O247  1  0.74624494  0.37634972  0.91359608  1
  O  O248  1  0.75889525  0.62594005  0.16190571  1
  O  O249  1  0.75451256  0.62054918  0.41371832  1
  O  O250  1  0.74139346  0.62383744  0.66545582  1
  O  O251  1  0.75888862  0.62490193  0.91122945  1
  O  O252  1  0.75910260  0.86805102  0.16205253  1
  O  O253  1  0.73944776  0.87181623  0.41173971  1
  O  O254  1  0.74034821  0.87275840  0.65994132  1
  O  O255  1  0.75602620  0.87472113  0.91280789  1
  O  O256  1  0.11957816  0.12028137  0.04021915  1
  O  O257  1  0.12222211  0.13057186  0.28207997  1
  O  O258  1  0.13083465  0.13161460  0.54566007  1
  O  O259  1  0.11800638  0.11818059  0.79763735  1
  O  O260  1  0.12672767  0.37928858  0.03218208  1
  O  O261  1  0.12636110  0.37750922  0.30086839  1
  O  O262  1  0.13571045  0.37255769  0.54594114  1
  O  O263  1  0.11669211  0.37746846  0.77707215  1
  O  O264  1  0.12359244  0.62860573  0.05181133  1
  O  O265  1  0.12514061  0.61524955  0.28636086  1
  O  O266  1  0.12971272  0.61997848  0.54834038  1
  O  O267  1  0.12971561  0.62802203  0.78170965  1
  O  O268  1  0.12294567  0.87206138  0.05567631  1
  O  O269  1  0.13173899  0.87010610  0.28773746  1
  O  O270  1  0.13084988  0.87474309  0.52948759  1
  O  O271  1  0.12061412  0.87821786  0.79745315  1
  O  O272  1  0.37146959  0.12180352  0.04433613  1
  O  O273  1  0.37562930  0.12895818  0.29636416  1
  O  O274  1  0.37611029  0.12645866  0.55470891  1
  O  O275  1  0.36994525  0.12386650  0.78277886  1
  O  O276  1  0.37388561  0.37794029  0.02680153  1
  O  O277  1  0.37460555  0.37495503  0.29556853  1
  O  O278  1  0.37780353  0.37414307  0.55674090  1
  O  O279  1  0.38245722  0.36820625  0.79114283  1
  O  O280  1  0.37082769  0.63196830  0.04549680  1
  O  O281  1  0.37461104  0.61954072  0.29892385  1
  O  O282  1  0.38346758  0.62508842  0.54004511  1
  O  O283  1  0.37251825  0.62725126  0.79427095  1
  O  O284  1  0.36634745  0.86983812  0.05090914  1
  O  O285  1  0.36953403  0.87690628  0.28142967  1
  O  O286  1  0.37979263  0.87612858  0.55256256  1
  O  O287  1  0.37584568  0.87992670  0.78428786  1
  O  O288  1  0.63382684  0.12595852  0.03864268  1
  O  O289  1  0.62091710  0.13175584  0.27995346  1
  O  O290  1  0.61961094  0.12751739  0.55365479  1
  O  O291  1  0.63341600  0.12093907  0.78030083  1
  O  O292  1  0.63064396  0.37710420  0.04744401  1
  O  O293  1  0.61963303  0.38177109  0.28428857  1
  O  O294  1  0.62225042  0.37387548  0.54888800  1
  O  O295  1  0.62818532  0.37803638  0.79686470  1
  O  O296  1  0.62901352  0.62114185  0.03360962  1
  O  O297  1  0.62008587  0.61723540  0.28395855  1
  O  O298  1  0.62045306  0.62599600  0.55365324  1
  O  O299  1  0.62901417  0.61849985  0.78754523  1
  O  O300  1  0.62996281  0.87259180  0.03306733  1
  O  O301  1  0.62261655  0.87117369  0.29535402  1
  O  O302  1  0.61689127  0.87585990  0.55178804  1
  O  O303  1  0.62530216  0.87226620  0.78261836  1
  O  O304  1  0.87789418  0.12883757  0.04103329  1
  O  O305  1  0.87568273  0.12974115  0.28260874  1
  O  O306  1  0.86809826  0.13166863  0.53010776  1
  O  O307  1  0.87764239  0.12434857  0.79735648  1
  O  O308  1  0.87346123  0.37774926  0.04671680  1
  O  O309  1  0.87805732  0.37829193  0.29769484  1
  O  O310  1  0.87092098  0.37521662  0.55115255  1
  O  O311  1  0.87843262  0.36911253  0.78502886  1
  O  O312  1  0.88146654  0.62603102  0.05020217  1
  O  O313  1  0.87691667  0.62033199  0.30232364  1
  O  O314  1  0.86805924  0.62074385  0.53443862  1
  O  O315  1  0.87559157  0.62686076  0.79296789  1
  O  O316  1  0.88280635  0.86835501  0.05327648  1
  O  O317  1  0.87333767  0.86387156  0.28653302  1
  O  O318  1  0.86660070  0.86889856  0.52875932  1
  O  O319  1  0.88444172  0.87516852  0.78441898  1
