# generated using pymatgen
data_VFe(PbO3)2
_symmetry_space_group_name_H-M   'P 1'
_cell_length_a   15.37765907
_cell_length_b   15.38619954
_cell_length_c   18.55247468
_cell_angle_alpha   90.01897295
_cell_angle_beta   89.96602581
_cell_angle_gamma   89.99231611
_symmetry_Int_Tables_number   1
_chemical_formula_structural   VFe(PbO3)2
_chemical_formula_sum   'V32 Fe32 Pb64 O192'
_cell_volume   4389.58367408
_cell_formula_units_Z   32
loop_
 _symmetry_equiv_pos_site_id
 _symmetry_equiv_pos_as_xyz
  1  'x, y, z'
loop_
 _atom_site_type_symbol
 _atom_site_label
 _atom_site_symmetry_multiplicity
 _atom_site_fract_x
 _atom_site_fract_y
 _atom_site_fract_z
 _atom_site_occupancy
  V  V0  1  0.37447382  0.62952797  0.38562741  1
  V  V1  1  0.62584996  0.37091042  0.88932999  1
  V  V2  1  0.37504987  0.37211966  0.14569750  1
  V  V3  1  0.87339790  0.37462265  0.63389165  1
  V  V4  1  0.62658624  0.87496458  0.89445598  1
  V  V5  1  0.87496397  0.87516194  0.63979047  1
  V  V6  1  0.87619844  0.62422225  0.63993275  1
  V  V7  1  0.37813601  0.37377737  0.88724283  1
  V  V8  1  0.37173845  0.87388079  0.13994682  1
  V  V9  1  0.12770462  0.12421022  0.14296928  1
  V  V10  1  0.87583365  0.12562146  0.89356495  1
  V  V11  1  0.87426430  0.37702240  0.38362215  1
  V  V12  1  0.37360514  0.62390949  0.63975076  1
  V  V13  1  0.37519045  0.12319815  0.38848705  1
  V  V14  1  0.12495152  0.89102683  0.88626088  1
  V  V15  1  0.12416888  0.62872146  0.64191051  1
  V  V16  1  0.87095128  0.87396120  0.38453199  1
  V  V17  1  0.12299728  0.87455606  0.13684926  1
  V  V18  1  0.12388478  0.87711102  0.38986533  1
  V  V19  1  0.12386419  0.62094033  0.88835181  1
  V  V20  1  0.12662561  0.62306373  0.14570863  1
  V  V21  1  0.12604579  0.37521220  0.14781919  1
  V  V22  1  0.87494658  0.62304256  0.14140337  1
  V  V23  1  0.87082820  0.37465720  0.89051212  1
  V  V24  1  0.62745276  0.37632551  0.14569740  1
  V  V25  1  0.37207728  0.62003398  0.14022440  1
  V  V26  1  0.37513343  0.87434653  0.64080512  1
  V  V27  1  0.87891204  0.37607796  0.14532033  1
  V  V28  1  0.62696545  0.12593007  0.89298578  1
  V  V29  1  0.37691844  0.37545581  0.63505453  1
  V  V30  1  0.62000555  0.87653023  0.38409713  1
  V  V31  1  0.62707628  0.12011946  0.63758440  1
  Fe  Fe32  1  0.12443052  0.62806164  0.38084404  1
  Fe  Fe33  1  0.12363179  0.37417717  0.88085164  1
  Fe  Fe34  1  0.62422850  0.37502189  0.38715612  1
  Fe  Fe35  1  0.87788585  0.12842671  0.14320034  1
  Fe  Fe36  1  0.62519559  0.62811255  0.63764894  1
  Fe  Fe37  1  0.37115774  0.12714516  0.13622725  1
  Fe  Fe38  1  0.12563947  0.37555829  0.38407552  1
  Fe  Fe39  1  0.12485867  0.87089889  0.63659115  1
  Fe  Fe40  1  0.87574646  0.87573419  0.89876002  1
  Fe  Fe41  1  0.12459426  0.13332899  0.88208671  1
  Fe  Fe42  1  0.37289049  0.87418970  0.38244252  1
  Fe  Fe43  1  0.12397791  0.12394954  0.63061451  1
  Fe  Fe44  1  0.12557718  0.37929933  0.63741721  1
  Fe  Fe45  1  0.62142884  0.62398027  0.14258313  1
  Fe  Fe46  1  0.87487552  0.62282625  0.88535532  1
  Fe  Fe47  1  0.37731526  0.12489276  0.88448867  1
  Fe  Fe48  1  0.37756127  0.12530118  0.63456935  1
  Fe  Fe49  1  0.62592790  0.62187263  0.88536160  1
  Fe  Fe50  1  0.87905160  0.87529436  0.12882733  1
  Fe  Fe51  1  0.37649385  0.87340314  0.88607602  1
  Fe  Fe52  1  0.12575016  0.12456536  0.39194311  1
  Fe  Fe53  1  0.87516503  0.12409878  0.38481209  1
  Fe  Fe54  1  0.62754626  0.87302916  0.13033793  1
  Fe  Fe55  1  0.62440692  0.37566895  0.62994383  1
  Fe  Fe56  1  0.37582165  0.62318525  0.88475562  1
  Fe  Fe57  1  0.62589889  0.62937710  0.37910127  1
  Fe  Fe58  1  0.37551430  0.37467266  0.38244535  1
  Fe  Fe59  1  0.62233824  0.12488880  0.14128021  1
  Fe  Fe60  1  0.87662272  0.62838531  0.38305283  1
  Fe  Fe61  1  0.62393791  0.12197992  0.37780765  1
  Fe  Fe62  1  0.87185606  0.12474172  0.62908547  1
  Fe  Fe63  1  0.62446107  0.87411194  0.63582834  1
  Pb  Pb64  1  -0.01354168  0.00718073  0.00977072  1
  Pb  Pb65  1  -0.00422688  0.00656624  0.25122401  1
  Pb  Pb66  1  0.00122388  0.00717269  0.50082806  1
  Pb  Pb67  1  0.00350733  0.00596819  0.74379936  1
  Pb  Pb68  1  -0.00247922  0.24876004  0.00176521  1
  Pb  Pb69  1  0.00649069  0.24096433  0.26202772  1
  Pb  Pb70  1  0.00195573  0.24574355  0.49649289  1
  Pb  Pb71  1  0.00859984  0.24699896  0.74319771  1
  Pb  Pb72  1  0.00008784  0.49680889  -0.00027777  1
  Pb  Pb73  1  -0.00049091  0.50652360  0.25761588  1
  Pb  Pb74  1  0.00434756  0.49918305  0.49281993  1
  Pb  Pb75  1  -0.00110585  0.49905519  0.74903689  1
  Pb  Pb76  1  -0.00258680  0.75054415  -0.00067679  1
  Pb  Pb77  1  -0.00033827  0.74213351  0.25083716  1
  Pb  Pb78  1  0.00430890  0.75492734  0.49836693  1
  Pb  Pb79  1  -0.01650310  0.75461686  0.75861471  1
  Pb  Pb80  1  0.26076151  0.01110471  -0.00279264  1
  Pb  Pb81  1  0.25182642  -0.00421959  0.25360207  1
  Pb  Pb82  1  0.25022121  0.00739299  0.50434169  1
  Pb  Pb83  1  0.24892647  0.00761455  0.74431516  1
  Pb  Pb84  1  0.25265928  0.24726924  -0.00383989  1
  Pb  Pb85  1  0.24149777  0.25007176  0.25869246  1
  Pb  Pb86  1  0.24090134  0.25286705  0.50005569  1
  Pb  Pb87  1  0.24159066  0.24436409  0.74437217  1
  Pb  Pb88  1  0.25075927  0.49567396  -0.00279956  1
  Pb  Pb89  1  0.24851920  0.49152664  0.25800113  1
  Pb  Pb90  1  0.24449743  0.49532788  0.49451547  1
  Pb  Pb91  1  0.25150379  0.49906641  0.74963865  1
  Pb  Pb92  1  0.25090687  0.74760836  -0.00341270  1
  Pb  Pb93  1  0.25103444  0.75137043  0.25217735  1
  Pb  Pb94  1  0.24620167  0.75647359  0.49838108  1
  Pb  Pb95  1  0.26038619  0.75128458  0.75519104  1
  Pb  Pb96  1  0.50458408  0.00036905  0.00246631  1
  Pb  Pb97  1  0.50197405  0.00364766  0.24323580  1
  Pb  Pb98  1  0.49401316  0.00342605  0.49925155  1
  Pb  Pb99  1  0.49077609  -0.00059532  0.75317857  1
  Pb  Pb100  1  0.50153430  0.24093068  0.00458035  1
  Pb  Pb101  1  0.50178424  0.25068604  0.25271128  1
  Pb  Pb102  1  0.50406503  0.25306779  0.49353736  1
  Pb  Pb103  1  0.49551856  0.24524405  0.74600409  1
  Pb  Pb104  1  0.50609952  0.50417037  0.00023325  1
  Pb  Pb105  1  0.50146192  0.48960930  0.25977620  1
  Pb  Pb106  1  0.50644285  0.50242607  0.49392002  1
  Pb  Pb107  1  0.50613497  0.50686068  0.74679847  1
  Pb  Pb108  1  0.50613478  0.74569654  -0.00113596  1
  Pb  Pb109  1  0.49985046  0.74981621  0.24702888  1
  Pb  Pb110  1  0.50937437  0.74922773  0.50052151  1
  Pb  Pb111  1  0.49906559  0.74730875  0.75133024  1
  Pb  Pb112  1  0.74075476  0.00128726  0.01074966  1
  Pb  Pb113  1  0.75161433  0.00190707  0.23925330  1
  Pb  Pb114  1  0.75220589  0.00353850  0.49464420  1
  Pb  Pb115  1  0.75705038  -0.01082368  0.75362819  1
  Pb  Pb116  1  0.75003755  0.24091601  0.00976112  1
  Pb  Pb117  1  0.74656844  0.24091009  0.25351107  1
  Pb  Pb118  1  0.74846902  0.24758778  0.49049864  1
  Pb  Pb119  1  0.74789801  0.25069550  0.74255901  1
  Pb  Pb120  1  0.74420907  0.50696075  0.00248273  1
  Pb  Pb121  1  0.74250363  0.50076603  0.25632495  1
  Pb  Pb122  1  0.74185336  0.50645165  0.49329560  1
  Pb  Pb123  1  0.74568188  0.50666416  0.74744914  1
  Pb  Pb124  1  0.74739551  0.74872732  -0.00037058  1
  Pb  Pb125  1  0.74628429  0.74733364  0.24360291  1
  Pb  Pb126  1  0.74086825  0.74817344  0.50016036  1
  Pb  Pb127  1  0.74809684  0.74483391  0.75299342  1
  O  O128  1  0.12540379  0.00354517  0.16260629  1
  O  O129  1  0.12601029  -0.00658973  0.41292301  1
  O  O130  1  0.12374189  -0.00326249  0.66251911  1
  O  O131  1  0.12486786  0.00371655  0.90135309  1
  O  O132  1  0.12725090  0.24886842  0.16835158  1
  O  O133  1  0.12570692  0.25169810  0.41543553  1
  O  O134  1  0.12456960  0.25287035  0.65878645  1
  O  O135  1  0.12341695  0.25462118  0.91692399  1
  O  O136  1  0.12596046  0.49963505  0.17100061  1
  O  O137  1  0.12560059  0.50221130  0.40917237  1
  O  O138  1  0.12458352  0.50825545  0.66692374  1
  O  O139  1  0.12470910  0.49773649  0.91798984  1
  O  O140  1  0.12568976  0.74787809  0.16198202  1
  O  O141  1  0.12385413  0.75562986  0.41363684  1
  O  O142  1  0.12501398  0.74276237  0.66879058  1
  O  O143  1  0.12394665  0.73424020  0.91199027  1
  O  O144  1  0.36667844  -0.00709365  0.16041492  1
  O  O145  1  0.37493434  0.00045427  0.41489761  1
  O  O146  1  0.37740523  -0.00659733  0.66241750  1
  O  O147  1  0.37435341  -0.00206003  0.91501594  1
  O  O148  1  0.37291028  0.25354165  0.16698254  1
  O  O149  1  0.37749729  0.24166827  0.40635319  1
  O  O150  1  0.37917010  0.25675142  0.65711879  1
  O  O151  1  0.37944342  0.25703031  0.91376347  1
  O  O152  1  0.37294155  0.50475605  0.16520316  1
  O  O153  1  0.37609999  0.51219176  0.40952277  1
  O  O154  1  0.37517842  0.49858415  0.66304333  1
  O  O155  1  0.37901042  0.49186104  0.91460152  1
  O  O156  1  0.36674133  0.74995862  0.16315446  1
  O  O157  1  0.37490295  0.74772183  0.41415681  1
  O  O158  1  0.37317047  0.75053555  0.66556271  1
  O  O159  1  0.37137564  0.74879301  0.91802448  1
  O  O160  1  0.62287828  -0.00408680  0.16160594  1
  O  O161  1  0.62656983  -0.00804070  0.40762327  1
  O  O162  1  0.62645530  0.00359439  0.66523041  1
  O  O163  1  0.62695282  0.00148381  0.91905503  1
  O  O164  1  0.62299980  0.25796619  0.16596735  1
  O  O165  1  0.62327356  0.24689551  0.40919848  1
  O  O166  1  0.62622898  0.24378934  0.66056897  1
  O  O167  1  0.62804987  0.24980753  0.92241209  1
  O  O168  1  0.62376862  0.49591805  0.16794181  1
  O  O169  1  0.62461566  0.50410045  0.40874060  1
  O  O170  1  0.62533567  0.50028879  0.66263366  1
  O  O171  1  0.62651571  0.49172209  0.91587941  1
  O  O172  1  0.62263941  0.75040802  0.16344515  1
  O  O173  1  0.62699667  0.75826497  0.41146180  1
  O  O174  1  0.62588737  0.75202554  0.67027436  1
  O  O175  1  0.62659882  0.75507243  0.91084906  1
  O  O176  1  0.88167565  0.00006563  0.16068544  1
  O  O177  1  0.87706213  -0.01027860  0.41129035  1
  O  O178  1  0.87317662  -0.00601074  0.66173772  1
  O  O179  1  0.87799101  0.00904069  0.91639826  1
  O  O180  1  0.87438183  0.26078001  0.16739217  1
  O  O181  1  0.87466649  0.25666815  0.40805253  1
  O  O182  1  0.87081731  0.25652856  0.65551632  1
  O  O183  1  0.87214163  0.25066867  0.91933689  1
  O  O184  1  0.87408298  0.49704663  0.17127165  1
  O  O185  1  0.87489516  0.49537619  0.40902441  1
  O  O186  1  0.87476619  0.49926294  0.66224519  1
  O  O187  1  0.87156482  0.49166691  0.91452848  1
  O  O188  1  0.88060647  0.74068474  0.15476064  1
  O  O189  1  0.87848942  0.76029654  0.41234063  1
  O  O190  1  0.87570988  0.75159879  0.66606646  1
  O  O191  1  0.88005424  0.74716983  0.91849048  1
  O  O192  1  0.00923142  0.12943429  0.16763381  1
  O  O193  1  -0.00144363  0.12277241  0.41489051  1
  O  O194  1  -0.00438843  0.12488565  0.65808283  1
  O  O195  1  -0.00581633  0.13118920  0.91455047  1
  O  O196  1  -0.00349219  0.37849719  0.16625009  1
  O  O197  1  -0.00633893  0.37594044  0.40954495  1
  O  O198  1  -0.00924716  0.37869899  0.65938180  1
  O  O199  1  -0.01017749  0.37364073  0.91305138  1
  O  O200  1  -0.00238843  0.61852485  0.16545627  1
  O  O201  1  0.00032547  0.62750701  0.41535666  1
  O  O202  1  0.00244780  0.62531177  0.66574997  1
  O  O203  1  0.00442904  0.61500506  0.91576289  1
  O  O204  1  0.00604823  0.87335234  0.16230934  1
  O  O205  1  0.00209824  0.87559714  0.41146628  1
  O  O206  1  -0.00742122  0.87220136  0.66472591  1
  O  O207  1  0.01488094  0.87207514  0.91733366  1
  O  O208  1  0.24409189  0.12568149  0.16778396  1
  O  O209  1  0.25708310  0.12191791  0.41404194  1
  O  O210  1  0.25183292  0.12455348  0.65907516  1
  O  O211  1  0.25053502  0.13025600  0.91238857  1
  O  O212  1  0.25012030  0.37817138  0.16957098  1
  O  O213  1  0.25357345  0.37663090  0.41364050  1
  O  O214  1  0.25945035  0.37792859  0.66178687  1
  O  O215  1  0.25863271  0.37520873  0.90845594  1
  O  O216  1  0.25352237  0.62416521  0.16861703  1
  O  O217  1  0.25437810  0.63053961  0.40848751  1
  O  O218  1  0.24685901  0.62470241  0.66651719  1
  O  O219  1  0.24505588  0.61580992  0.91418164  1
  O  O220  1  0.24558510  0.87381958  0.16842204  1
  O  O221  1  0.24435648  0.87358863  0.41273316  1
  O  O222  1  0.25616735  0.87247206  0.66376773  1
  O  O223  1  0.23648089  0.87047486  0.91490549  1
  O  O224  1  0.49459740  0.12465591  0.16390224  1
  O  O225  1  0.49627649  0.11853707  0.41040998  1
  O  O226  1  0.50776098  0.12318820  0.66388026  1
  O  O227  1  0.50502596  0.12686544  0.91618761  1
  O  O228  1  0.50166131  0.37787953  0.16756700  1
  O  O229  1  0.49655468  0.37687262  0.41538550  1
  O  O230  1  0.49497468  0.37735567  0.66104563  1
  O  O231  1  0.50170210  0.37213019  0.91566187  1
  O  O232  1  0.48780214  0.62884197  0.16208555  1
  O  O233  1  0.49584437  0.63152965  0.40868744  1
  O  O234  1  0.49467375  0.62648362  0.66337689  1
  O  O235  1  0.50130193  0.62327652  0.91582555  1
  O  O236  1  0.48821185  0.87167845  0.15648377  1
  O  O237  1  0.50450241  0.87366391  0.40509079  1
  O  O238  1  0.49402141  0.87219926  0.66459069  1
  O  O239  1  0.50658519  0.87632077  0.91410670  1
  O  O240  1  0.75076163  0.12902350  0.16300044  1
  O  O241  1  0.74905856  0.12073391  0.40870232  1
  O  O242  1  0.74557736  0.12321872  0.66411230  1
  O  O243  1  0.75414528  0.12637903  0.92133871  1
  O  O244  1  0.74803380  0.37759626  0.16711453  1
  O  O245  1  0.75611679  0.37605922  0.40928225  1
  O  O246  1  0.75476787  0.37715985  0.66157696  1
  O  O247  1  0.75211726  0.37104656  0.91917404  1
  O  O248  1  0.75718289  0.62127301  0.16113450  1
  O  O249  1  0.75158960  0.62999208  0.41072571  1
  O  O250  1  0.75593346  0.62656646  0.66377695  1
  O  O251  1  0.75002981  0.62352323  0.91748482  1
  O  O252  1  0.75478820  0.87188418  0.15474799  1
  O  O253  1  0.75262367  0.87470764  0.40500489  1
  O  O254  1  0.75640839  0.87354319  0.66736040  1
  O  O255  1  0.74509507  0.87806683  0.91864728  1
  O  O256  1  0.12682748  0.12810366  0.05197943  1
  O  O257  1  0.12338735  0.13094180  0.29074930  1
  O  O258  1  0.12650346  0.12203809  0.52894474  1
  O  O259  1  0.12228899  0.13551721  0.78199736  1
  O  O260  1  0.12637853  0.37514406  0.05678606  1
  O  O261  1  0.13122582  0.37060910  0.28306740  1
  O  O262  1  0.13035538  0.38302908  0.53742770  1
  O  O263  1  0.12213352  0.37634997  0.78117018  1
  O  O264  1  0.12679405  0.61806012  0.05475005  1
  O  O265  1  0.11696908  0.63022022  0.28075950  1
  O  O266  1  0.12490125  0.62904127  0.55111293  1
  O  O267  1  0.12309955  0.61801364  0.79767787  1
  O  O268  1  0.12708479  0.87836254  0.04642256  1
  O  O269  1  0.12435178  0.87593220  0.29868954  1
  O  O270  1  0.12471164  0.86519557  0.53752877  1
  O  O271  1  0.12370303  0.87699055  0.79546846  1
  O  O272  1  0.36708320  0.12830130  0.03616363  1
  O  O273  1  0.37282027  0.11733196  0.29727855  1
  O  O274  1  0.38055500  0.11450935  0.53562284  1
  O  O275  1  0.38460381  0.12436137  0.78402667  1
  O  O276  1  0.37675337  0.37594509  0.05473672  1
  O  O277  1  0.37824617  0.38263553  0.28213250  1
  O  O278  1  0.37608557  0.37889527  0.54434965  1
  O  O279  1  0.38182065  0.37390220  0.79674992  1
  O  O280  1  0.36846873  0.61992489  0.04912920  1
  O  O281  1  0.37496598  0.63141034  0.29439993  1
  O  O282  1  0.37174179  0.62545709  0.54938335  1
  O  O283  1  0.37210740  0.62645084  0.78525623  1
  O  O284  1  0.36394625  0.87124346  0.04916857  1
  O  O285  1  0.36627055  0.87421520  0.28328889  1
  O  O286  1  0.37543103  0.87241579  0.54963959  1
  O  O287  1  0.37565109  0.87104716  0.78682614  1
  O  O288  1  0.62609502  0.12657213  0.03923340  1
  O  O289  1  0.62276566  0.12435002  0.27754714  1
  O  O290  1  0.62712682  0.11826371  0.54659258  1
  O  O291  1  0.63099511  0.12652353  0.80254075  1
  O  O292  1  0.62604606  0.37626830  0.05487317  1
  O  O293  1  0.61964937  0.37945853  0.28603428  1
  O  O294  1  0.62391667  0.37629008  0.53061400  1
  O  O295  1  0.62791496  0.36819455  0.79855952  1
  O  O296  1  0.62211953  0.61956739  0.04167051  1
  O  O297  1  0.62812453  0.63165841  0.27835072  1
  O  O298  1  0.62624881  0.63599086  0.53681406  1
  O  O299  1  0.62751083  0.61917707  0.78518207  1
  O  O300  1  0.62258302  0.87711472  0.03031878  1
  O  O301  1  0.62353256  0.87259630  0.29302681  1
  O  O302  1  0.62492807  0.86845453  0.53678079  1
  O  O303  1  0.62972888  0.88188960  0.80345042  1
  O  O304  1  0.88543890  0.13011466  0.04196297  1
  O  O305  1  0.88281542  0.12437196  0.28265807  1
  O  O306  1  0.86943449  0.11940955  0.52963285  1
  O  O307  1  0.87217814  0.12850974  0.80299728  1
  O  O308  1  0.87539356  0.37882006  0.05453182  1
  O  O309  1  0.87427061  0.37734856  0.29262604  1
  O  O310  1  0.87239767  0.37837663  0.54359216  1
  O  O311  1  0.86832499  0.37201394  0.80019201  1
  O  O312  1  0.87920897  0.61211244  0.05056945  1
  O  O313  1  0.88317602  0.62885822  0.28307628  1
  O  O314  1  0.87753970  0.62611765  0.54939094  1
  O  O315  1  0.87744291  0.62664187  0.78561493  1
  O  O316  1  0.88722955  0.87919570  0.02719046  1
  O  O317  1  0.87611667  0.87337161  0.29363313  1
  O  O318  1  0.87363824  0.87341840  0.54920016  1
  O  O319  1  0.87632159  0.87665229  0.79809421  1
