# generated using pymatgen
data_VFe(PbO3)2
_symmetry_space_group_name_H-M   'P 1'
_cell_length_a   15.39583626
_cell_length_b   15.40530642
_cell_length_c   18.46171113
_cell_angle_alpha   90.00083977
_cell_angle_beta   89.96440899
_cell_angle_gamma   89.99704496
_symmetry_Int_Tables_number   1
_chemical_formula_structural   VFe(PbO3)2
_chemical_formula_sum   'V32 Fe32 Pb64 O192'
_cell_volume   4378.70302692
_cell_formula_units_Z   32
loop_
 _symmetry_equiv_pos_site_id
 _symmetry_equiv_pos_as_xyz
  1  'x, y, z'
loop_
 _atom_site_type_symbol
 _atom_site_label
 _atom_site_symmetry_multiplicity
 _atom_site_fract_x
 _atom_site_fract_y
 _atom_site_fract_z
 _atom_site_occupancy
  V  V0  1  0.12556605  0.63424689  0.65075373  1
  V  V1  1  0.12347752  0.38780804  0.65880837  1
  V  V2  1  0.87638790  0.62419956  0.38914527  1
  V  V3  1  0.87102046  0.87485403  0.64522789  1
  V  V4  1  0.61694201  0.87362013  0.64067082  1
  V  V5  1  0.37401618  0.12679146  0.39467690  1
  V  V6  1  0.12436605  0.12559677  0.64077638  1
  V  V7  1  0.87455893  0.12682236  0.39183624  1
  V  V8  1  0.12685001  0.12546491  0.13840947  1
  V  V9  1  0.37480484  0.12760422  0.13824795  1
  V  V10  1  0.62343875  0.37420210  0.39039913  1
  V  V11  1  0.62309954  0.37724953  0.64200265  1
  V  V12  1  0.36966641  0.87525598  0.63759287  1
  V  V13  1  0.37328626  0.37460736  0.64753226  1
  V  V14  1  0.86464668  0.12212505  0.89277681  1
  V  V15  1  0.12732767  0.37534860  0.13015051  1
  V  V16  1  0.12192364  0.87715480  0.64021869  1
  V  V17  1  0.12655855  0.87817359  0.88915013  1
  V  V18  1  0.62481506  0.87681411  0.38554198  1
  V  V19  1  0.12165974  0.87462415  0.39026257  1
  V  V20  1  0.12025042  0.37724538  0.39477563  1
  V  V21  1  0.62315582  0.61790715  0.89722040  1
  V  V22  1  0.62449779  0.36832815  0.89156197  1
  V  V23  1  0.37627377  0.87610700  0.89203015  1
  V  V24  1  0.62531532  0.12486039  0.64223519  1
  V  V25  1  0.87375908  0.87384859  0.38664952  1
  V  V26  1  0.12578731  0.87102572  0.13302708  1
  V  V27  1  0.37364291  0.37535076  0.38849163  1
  V  V28  1  0.37482696  0.12333415  0.88914495  1
  V  V29  1  0.12695065  0.12178011  0.88703031  1
  V  V30  1  0.87238943  0.37710395  0.39090605  1
  V  V31  1  0.62659486  0.87436024  0.89461037  1
  Fe  Fe32  1  0.87837344  0.87631812  0.12470007  1
  Fe  Fe33  1  0.87448838  0.37113266  0.88339360  1
  Fe  Fe34  1  0.37259124  0.37212851  0.13146778  1
  Fe  Fe35  1  0.87270647  0.62676852  0.88734631  1
  Fe  Fe36  1  0.37188475  0.62365931  0.12594624  1
  Fe  Fe37  1  0.87496918  0.12210640  0.63826937  1
  Fe  Fe38  1  0.61762429  0.12083631  0.89684341  1
  Fe  Fe39  1  0.12767555  0.37211736  0.87333716  1
  Fe  Fe40  1  0.37588384  0.62636321  0.64074737  1
  Fe  Fe41  1  0.37858487  0.62740835  0.89539135  1
  Fe  Fe42  1  0.12566050  0.62204933  0.12000767  1
  Fe  Fe43  1  0.37213160  0.62383392  0.38524254  1
  Fe  Fe44  1  0.62613273  0.62441985  0.12501715  1
  Fe  Fe45  1  0.37704496  0.37349194  0.88435753  1
  Fe  Fe46  1  0.87746681  0.37344464  0.12494287  1
  Fe  Fe47  1  0.87906206  0.62318472  0.12317394  1
  Fe  Fe48  1  0.62715230  0.62336846  0.38362330  1
  Fe  Fe49  1  0.62344452  0.37394179  0.12706782  1
  Fe  Fe50  1  0.62479396  0.62619992  0.63783369  1
  Fe  Fe51  1  0.37352639  0.87591573  0.37749469  1
  Fe  Fe52  1  0.62464474  0.87580899  0.13265821  1
  Fe  Fe53  1  0.87358966  0.62563602  0.64986729  1
  Fe  Fe54  1  0.12115318  0.12907185  0.38993947  1
  Fe  Fe55  1  0.87888123  0.12713100  0.12429956  1
  Fe  Fe56  1  0.12726032  0.62766348  0.89172296  1
  Fe  Fe57  1  0.62685364  0.12800227  0.38554016  1
  Fe  Fe58  1  0.37635972  0.12188485  0.63616612  1
  Fe  Fe59  1  0.87478085  0.87758626  0.89666980  1
  Fe  Fe60  1  0.62569043  0.12607272  0.12576285  1
  Fe  Fe61  1  0.37383083  0.87726596  0.14844832  1
  Fe  Fe62  1  0.12023404  0.62233575  0.38674116  1
  Fe  Fe63  1  0.87316046  0.37244521  0.65053460  1
  Pb  Pb64  1  -0.00528313  0.00265177  0.00280570  1
  Pb  Pb65  1  0.00032238  0.00426056  0.24429974  1
  Pb  Pb66  1  -0.00559873  0.00449614  0.50047911  1
  Pb  Pb67  1  -0.00778984  -0.00747042  0.75730682  1
  Pb  Pb68  1  -0.00683472  0.25231063  -0.00489894  1
  Pb  Pb69  1  -0.00035810  0.24929000  0.24539590  1
  Pb  Pb70  1  -0.01040215  0.25568739  0.51027227  1
  Pb  Pb71  1  -0.00507193  0.25052945  0.75529362  1
  Pb  Pb72  1  0.00157733  0.49873051  -0.01766282  1
  Pb  Pb73  1  0.00227869  0.50446068  0.23855892  1
  Pb  Pb74  1  -0.01659463  0.50105338  0.51414358  1
  Pb  Pb75  1  -0.01357923  0.50606831  0.76534159  1
  Pb  Pb76  1  -0.00901203  0.74188096  -0.00416729  1
  Pb  Pb77  1  0.00215973  0.74252447  0.23819219  1
  Pb  Pb78  1  -0.00843676  0.74446789  0.50269449  1
  Pb  Pb79  1  -0.00608936  0.74855635  0.76351772  1
  Pb  Pb80  1  0.25753610  -0.00576097  0.00675155  1
  Pb  Pb81  1  0.24896357  -0.00197120  0.25446472  1
  Pb  Pb82  1  0.24990567  0.00367370  0.49876790  1
  Pb  Pb83  1  0.25071027  -0.00006010  0.74882096  1
  Pb  Pb84  1  0.25327500  0.25779058  -0.00601446  1
  Pb  Pb85  1  0.24157720  0.24741084  0.25201981  1
  Pb  Pb86  1  0.24675876  0.25476751  0.50551404  1
  Pb  Pb87  1  0.25395933  0.25525985  0.75364009  1
  Pb  Pb88  1  0.25154912  0.50232827  -0.01172185  1
  Pb  Pb89  1  0.25349159  0.51127125  0.24352163  1
  Pb  Pb90  1  0.25219029  0.50568666  0.50266969  1
  Pb  Pb91  1  0.25191588  0.51648791  0.76887279  1
  Pb  Pb92  1  0.25520409  0.74338172  0.00266185  1
  Pb  Pb93  1  0.25911771  0.73974542  0.24724827  1
  Pb  Pb94  1  0.25446484  0.74626017  0.49505263  1
  Pb  Pb95  1  0.25182961  0.74111356  0.76242251  1
  Pb  Pb96  1  0.49587660  -0.01154731  0.01056626  1
  Pb  Pb97  1  0.50843083  0.00210525  0.24647301  1
  Pb  Pb98  1  0.49601728  0.00243587  0.49775318  1
  Pb  Pb99  1  0.51104134  0.00716634  0.75823575  1
  Pb  Pb100  1  0.49969300  0.25740466  0.00436296  1
  Pb  Pb101  1  0.50857313  0.25055479  0.24532439  1
  Pb  Pb102  1  0.49680409  0.24808809  0.50296896  1
  Pb  Pb103  1  0.50050575  0.24938071  0.75432511  1
  Pb  Pb104  1  0.49253524  0.49632031  0.00233185  1
  Pb  Pb105  1  0.49901111  0.50533793  0.23554741  1
  Pb  Pb106  1  0.49860673  0.51039686  0.50001808  1
  Pb  Pb107  1  0.49152698  0.49899320  0.75555041  1
  Pb  Pb108  1  0.50463011  0.74992525  0.00924693  1
  Pb  Pb109  1  0.50202961  0.74104145  0.23914945  1
  Pb  Pb110  1  0.49666660  0.74278147  0.49350619  1
  Pb  Pb111  1  0.49661574  0.74016289  0.75530820  1
  Pb  Pb112  1  0.73577598  -0.00203064  0.00786342  1
  Pb  Pb113  1  0.75275512  0.00376728  0.23399661  1
  Pb  Pb114  1  0.75213939  0.00225854  0.49824018  1
  Pb  Pb115  1  0.75103316  -0.00291208  0.75747780  1
  Pb  Pb116  1  0.74375610  0.25439973  0.00427051  1
  Pb  Pb117  1  0.74991711  0.24789076  0.23473165  1
  Pb  Pb118  1  0.75751142  0.25291067  0.50539658  1
  Pb  Pb119  1  0.75043876  0.24697634  0.75336606  1
  Pb  Pb120  1  0.76023582  0.49670564  -0.00185252  1
  Pb  Pb121  1  0.74760684  0.50217533  0.23332245  1
  Pb  Pb122  1  0.74986931  0.50727726  0.50553841  1
  Pb  Pb123  1  0.75321508  0.50229896  0.75315713  1
  Pb  Pb124  1  0.75015737  0.74389685  0.00270631  1
  Pb  Pb125  1  0.74972716  0.74502572  0.23466648  1
  Pb  Pb126  1  0.74577022  0.74241744  0.50141126  1
  Pb  Pb127  1  0.75511335  0.74913072  0.75775964  1
  O  O128  1  0.12520269  0.00714960  0.16037988  1
  O  O129  1  0.12023959  -0.00328827  0.41618442  1
  O  O130  1  0.12643713  -0.00275041  0.66730277  1
  O  O131  1  0.13466393  0.00092365  0.91762620  1
  O  O132  1  0.12613877  0.24831159  0.16341910  1
  O  O133  1  0.12403422  0.25858599  0.42372319  1
  O  O134  1  0.12790221  0.23685408  0.66560851  1
  O  O135  1  0.13327489  0.23836165  0.90449345  1
  O  O136  1  0.12535713  0.49122014  0.14773029  1
  O  O137  1  0.12283869  0.49144013  0.42172636  1
  O  O138  1  0.12961644  0.50213545  0.67146577  1
  O  O139  1  0.12901904  0.49663381  0.89840102  1
  O  O140  1  0.12348263  0.75548186  0.14747479  1
  O  O141  1  0.11990301  0.75706266  0.41450090  1
  O  O142  1  0.12683797  0.75260842  0.66936359  1
  O  O143  1  0.13044547  0.76438341  0.91051385  1
  O  O144  1  0.36799967  0.01341847  0.16917985  1
  O  O145  1  0.37340715  0.00472279  0.41230098  1
  O  O146  1  0.37827952  -0.00981133  0.66457000  1
  O  O147  1  0.37292983  -0.00121225  0.91817760  1
  O  O148  1  0.36889869  0.24218545  0.16586252  1
  O  O149  1  0.37468195  0.25009728  0.42076498  1
  O  O150  1  0.37908618  0.25112851  0.66501031  1
  O  O151  1  0.37508771  0.24066715  0.90727146  1
  O  O152  1  0.37038782  0.49721378  0.15654060  1
  O  O153  1  0.37380098  0.49436800  0.41755550  1
  O  O154  1  0.37736204  0.49390838  0.66792815  1
  O  O155  1  0.37955414  0.49907333  0.90868756  1
  O  O156  1  0.36912304  0.74924378  0.16041815  1
  O  O157  1  0.37229747  0.75354499  0.41053202  1
  O  O158  1  0.37686634  0.76038981  0.66484590  1
  O  O159  1  0.37701923  0.76113460  0.91396936  1
  O  O160  1  0.62304764  0.00388839  0.15932765  1
  O  O161  1  0.62765843  -0.00416848  0.41390910  1
  O  O162  1  0.62720289  -0.00772883  0.66817055  1
  O  O163  1  0.62045822  -0.00694899  0.91840580  1
  O  O164  1  0.62225028  0.24811235  0.15883309  1
  O  O165  1  0.62524311  0.25662601  0.41890956  1
  O  O166  1  0.62208881  0.24957593  0.66564476  1
  O  O167  1  0.62271654  0.25160255  0.90919074  1
  O  O168  1  0.62467388  0.49908999  0.15354205  1
  O  O169  1  0.62624283  0.49128564  0.41481859  1
  O  O170  1  0.62195882  0.49315269  0.66506010  1
  O  O171  1  0.62464227  0.49985947  0.91092019  1
  O  O172  1  0.62581764  0.74983517  0.15777737  1
  O  O173  1  0.62831574  0.75906964  0.41119387  1
  O  O174  1  0.62825930  0.76007532  0.66806950  1
  O  O175  1  0.61997536  0.75851670  0.91541126  1
  O  O176  1  0.88338190  0.00236879  0.15689240  1
  O  O177  1  0.87445757  -0.00047687  0.41526097  1
  O  O178  1  0.87549608  -0.00542780  0.66879212  1
  O  O179  1  0.88027847  0.00792104  0.91568234  1
  O  O180  1  0.88113338  0.24981934  0.15912911  1
  O  O181  1  0.87421116  0.25321319  0.41981651  1
  O  O182  1  0.87590556  0.24423709  0.67036595  1
  O  O183  1  0.87922149  0.23976908  0.90752631  1
  O  O184  1  0.88086160  0.49736401  0.15482135  1
  O  O185  1  0.87526733  0.49987009  0.42134388  1
  O  O186  1  0.87639880  0.49895654  0.67257123  1
  O  O187  1  0.87095565  0.49845047  0.90312351  1
  O  O188  1  0.88331577  0.75107712  0.15370142  1
  O  O189  1  0.87546455  0.74952454  0.41601373  1
  O  O190  1  0.87739185  0.75758866  0.67077535  1
  O  O191  1  0.87441397  0.75237525  0.91077887  1
  O  O192  1  0.00816978  0.12820130  0.16125338  1
  O  O193  1  -0.00477668  0.12788775  0.41948027  1
  O  O194  1  0.00694827  0.11790505  0.66511808  1
  O  O195  1  0.01286346  0.11991483  0.90663507  1
  O  O196  1  0.01138777  0.37002761  0.15761040  1
  O  O197  1  0.00027436  0.37447791  0.41879717  1
  O  O198  1  0.00769573  0.37273826  0.66998879  1
  O  O199  1  0.00337550  0.36819063  0.89863876  1
  O  O200  1  0.00499224  0.62332128  0.15688981  1
  O  O201  1  -0.00388651  0.62348051  0.42225865  1
  O  O202  1  0.00934122  0.62616560  0.67392628  1
  O  O203  1  0.00090295  0.62762815  0.90298187  1
  O  O204  1  0.01129515  0.88067442  0.16170303  1
  O  O205  1  -0.00224881  0.87614095  0.41827448  1
  O  O206  1  -0.00110808  0.87534756  0.66851280  1
  O  O207  1  0.01159089  0.88396811  0.90790915  1
  O  O208  1  0.24564411  0.12776220  0.16681534  1
  O  O209  1  0.25272388  0.12775942  0.41755764  1
  O  O210  1  0.24764260  0.11676253  0.66264120  1
  O  O211  1  0.25555412  0.12052698  0.91596583  1
  O  O212  1  0.24152481  0.36805976  0.15952358  1
  O  O213  1  0.24792477  0.37368299  0.41909401  1
  O  O214  1  0.25649042  0.37031365  0.66647538  1
  O  O215  1  0.25086456  0.36982194  0.90548169  1
  O  O216  1  0.24512106  0.62384501  0.15607221  1
  O  O217  1  0.24470802  0.62308755  0.41816665  1
  O  O218  1  0.24786854  0.62684462  0.67102655  1
  O  O219  1  0.25288359  0.63031966  0.91270332  1
  O  O220  1  0.23705175  0.88202895  0.16615615  1
  O  O221  1  0.24085331  0.87834882  0.41088615  1
  O  O222  1  0.25225470  0.87678859  0.65952554  1
  O  O223  1  0.25420610  0.87946609  0.91554782  1
  O  O224  1  0.49148484  0.12627618  0.15516435  1
  O  O225  1  0.49609375  0.12666197  0.41621599  1
  O  O226  1  0.50394110  0.11925365  0.66778294  1
  O  O227  1  0.48818531  0.11971223  0.91608088  1
  O  O228  1  0.49738646  0.37136578  0.16075803  1
  O  O229  1  0.50197422  0.37318771  0.41415486  1
  O  O230  1  0.50307287  0.37216267  0.66872379  1
  O  O231  1  0.50571826  0.37349977  0.91373441  1
  O  O232  1  0.49842934  0.62478531  0.15144099  1
  O  O233  1  0.50076964  0.62425718  0.41206020  1
  O  O234  1  0.50098535  0.62800769  0.66991594  1
  O  O235  1  0.50680480  0.62980879  0.91703454  1
  O  O236  1  0.50051841  0.87816420  0.16784301  1
  O  O237  1  0.50578384  0.87819066  0.40427673  1
  O  O238  1  0.50265894  0.87472028  0.65901101  1
  O  O239  1  0.49482302  0.87991865  0.91631436  1
  O  O240  1  0.75286611  0.12603673  0.15039330  1
  O  O241  1  0.75285420  0.12700061  0.41706972  1
  O  O242  1  0.74510628  0.12054033  0.66766402  1
  O  O243  1  0.75127876  0.12187892  0.90826777  1
  O  O244  1  0.75084375  0.37210636  0.15447758  1
  O  O245  1  0.74848721  0.37495494  0.41663083  1
  O  O246  1  0.73937488  0.37123034  0.66751057  1
  O  O247  1  0.74340063  0.37150421  0.91044516  1
  O  O248  1  0.75401444  0.62454970  0.15295265  1
  O  O249  1  0.75383061  0.62363194  0.41748284  1
  O  O250  1  0.74600204  0.62698800  0.67203764  1
  O  O251  1  0.74151739  0.63088482  0.91147924  1
  O  O252  1  0.75321105  0.87847346  0.15478666  1
  O  O253  1  0.75088303  0.87619776  0.41544874  1
  O  O254  1  0.75367797  0.87564507  0.66652712  1
  O  O255  1  0.74291934  0.87907762  0.91188527  1
  O  O256  1  0.12909570  0.12850081  0.04743230  1
  O  O257  1  0.12199958  0.13464729  0.29081435  1
  O  O258  1  0.12455936  0.12418933  0.54863205  1
  O  O259  1  0.13262921  0.11448477  0.79571107  1
  O  O260  1  0.12839259  0.36715573  0.03861515  1
  O  O261  1  0.12132714  0.37627976  0.30396299  1
  O  O262  1  0.13046071  0.37577934  0.56741073  1
  O  O263  1  0.13463616  0.36302009  0.76943615  1
  O  O264  1  0.12602821  0.62520947  0.01885466  1
  O  O265  1  0.11827367  0.61878660  0.28763420  1
  O  O266  1  0.12482152  0.62909288  0.55964828  1
  O  O267  1  0.13933056  0.63473188  0.78760237  1
  O  O268  1  0.12855192  0.88114921  0.04189353  1
  O  O269  1  0.11714918  0.87659749  0.29949808  1
  O  O270  1  0.12034154  0.87517800  0.54938096  1
  O  O271  1  0.13129582  0.88230716  0.79714084  1
  O  O272  1  0.36757438  0.12594347  0.04686820  1
  O  O273  1  0.37389703  0.13126393  0.30403613  1
  O  O274  1  0.37987933  0.11987448  0.53643145  1
  O  O275  1  0.37459866  0.11614823  0.79715811  1
  O  O276  1  0.37822295  0.36606141  0.03014866  1
  O  O277  1  0.37201539  0.37321413  0.29788456  1
  O  O278  1  0.37785017  0.37553137  0.55603661  1
  O  O279  1  0.38346115  0.36901160  0.78310641  1
  O  O280  1  0.37222520  0.62668124  0.02362103  1
  O  O281  1  0.36315351  0.62058060  0.28504516  1
  O  O282  1  0.37530947  0.62628713  0.54022673  1
  O  O283  1  0.37472977  0.63231824  0.79086602  1
  O  O284  1  0.37388932  0.88681661  0.04624709  1
  O  O285  1  0.36243641  0.88042435  0.27770957  1
  O  O286  1  0.37331464  0.87643992  0.54583912  1
  O  O287  1  0.37681776  0.87940094  0.80068466  1
  O  O288  1  0.62887860  0.12510305  0.02325963  1
  O  O289  1  0.62191526  0.13017204  0.28689202  1
  O  O290  1  0.62405987  0.12286607  0.55051754  1
  O  O291  1  0.61674107  0.11568066  0.79490530  1
  O  O292  1  0.62298214  0.36500163  0.02584459  1
  O  O293  1  0.62448180  0.37117611  0.29967798  1
  O  O294  1  0.62200772  0.37602637  0.55094620  1
  O  O295  1  0.62193210  0.37268891  0.79973441  1
  O  O296  1  0.62741156  0.63335433  0.02321172  1
  O  O297  1  0.63082484  0.62409605  0.28469799  1
  O  O298  1  0.62882452  0.62702461  0.53688929  1
  O  O299  1  0.62022555  0.62815165  0.80514948  1
  O  O300  1  0.61809033  0.87988495  0.03126956  1
  O  O301  1  0.63165758  0.87937472  0.29492452  1
  O  O302  1  0.62368273  0.87377776  0.54953649  1
  O  O303  1  0.62068900  0.87641501  0.80216926  1
  O  O304  1  0.88762969  0.12870273  0.02329202  1
  O  O305  1  0.87675780  0.12802445  0.30054491  1
  O  O306  1  0.87380865  0.12548269  0.53824632  1
  O  O307  1  0.87394403  0.11817316  0.79980003  1
  O  O308  1  0.87722048  0.36906897  0.02317314  1
  O  O309  1  0.87529437  0.37872671  0.30035117  1
  O  O310  1  0.87789400  0.37233108  0.54790494  1
  O  O311  1  0.87066880  0.36693394  0.78074931  1
  O  O312  1  0.87715001  0.62453319  0.02138344  1
  O  O313  1  0.88037265  0.62169484  0.29810936  1
  O  O314  1  0.87898140  0.62348803  0.54805491  1
  O  O315  1  0.87521170  0.63013345  0.78246643  1
  O  O316  1  0.88514509  0.87956299  0.02297459  1
  O  O317  1  0.87696755  0.87317420  0.29604530  1
  O  O318  1  0.87247853  0.87431210  0.55399795  1
  O  O319  1  0.87507208  0.88290518  0.79380312  1
