# generated using pymatgen
data_VFe(PbO3)2
_symmetry_space_group_name_H-M   'P 1'
_cell_length_a   15.38608605
_cell_length_b   15.38492010
_cell_length_c   18.54592217
_cell_angle_alpha   90.01584489
_cell_angle_beta   90.05420717
_cell_angle_gamma   89.99298816
_symmetry_Int_Tables_number   1
_chemical_formula_structural   VFe(PbO3)2
_chemical_formula_sum   'V32 Fe32 Pb64 O192'
_cell_volume   4390.07177497
_cell_formula_units_Z   32
loop_
 _symmetry_equiv_pos_site_id
 _symmetry_equiv_pos_as_xyz
  1  'x, y, z'
loop_
 _atom_site_type_symbol
 _atom_site_label
 _atom_site_symmetry_multiplicity
 _atom_site_fract_x
 _atom_site_fract_y
 _atom_site_fract_z
 _atom_site_occupancy
  V  V0  1  0.87619331  0.37602254  0.14240263  1
  V  V1  1  0.87063145  0.12147743  0.39074382  1
  V  V2  1  0.12106673  0.12567877  0.14760858  1
  V  V3  1  0.12640677  0.37290387  0.63108372  1
  V  V4  1  0.37867449  0.87307936  0.13634330  1
  V  V5  1  0.87638467  0.62146433  0.88869310  1
  V  V6  1  0.88514143  0.37500517  0.88934919  1
  V  V7  1  0.62249015  0.37482842  0.63811741  1
  V  V8  1  0.37345213  0.12346969  0.64073898  1
  V  V9  1  0.87211755  0.62869007  0.39038584  1
  V  V10  1  0.87496207  0.12600226  0.13663386  1
  V  V11  1  0.62134832  0.88037254  0.64708366  1
  V  V12  1  0.37589892  0.37420383  0.89743714  1
  V  V13  1  0.12742721  0.62029817  0.89136489  1
  V  V14  1  0.37580893  0.87531690  0.38856832  1
  V  V15  1  0.37896946  0.62815636  0.38630430  1
  V  V16  1  0.87801828  0.87562951  0.13513427  1
  V  V17  1  0.37056690  0.12551635  0.89465932  1
  V  V18  1  0.12771578  0.87764624  0.63623387  1
  V  V19  1  0.62506666  0.12114629  0.38662824  1
  V  V20  1  0.62679945  0.63034913  0.39008806  1
  V  V21  1  0.12678066  0.87648319  0.13964340  1
  V  V22  1  0.62132461  0.12789214  0.64348577  1
  V  V23  1  0.62701611  0.37350049  0.13955713  1
  V  V24  1  0.37770577  0.37230124  0.63502542  1
  V  V25  1  0.12559242  0.12802804  0.89026959  1
  V  V26  1  0.37442012  0.62319345  0.89317393  1
  V  V27  1  0.37023090  0.87320146  0.89197066  1
  V  V28  1  0.62628465  0.87439799  0.39052165  1
  V  V29  1  0.62970284  0.37752831  0.89394740  1
  V  V30  1  0.62985482  0.62581781  0.13636474  1
  V  V31  1  0.62295776  0.62730766  0.64401350  1
  Fe  Fe32  1  0.62254370  0.61846233  0.88552365  1
  Fe  Fe33  1  0.87211474  0.37595532  0.62832176  1
  Fe  Fe34  1  0.37492389  0.37803157  0.14701436  1
  Fe  Fe35  1  0.37842954  0.37503493  0.37330717  1
  Fe  Fe36  1  0.62400630  0.87289811  0.89214270  1
  Fe  Fe37  1  0.62259089  0.12861447  0.89380401  1
  Fe  Fe38  1  0.37527650  0.62454398  0.63372230  1
  Fe  Fe39  1  0.87328832  0.87411476  0.64743720  1
  Fe  Fe40  1  0.12032185  0.62733556  0.13900969  1
  Fe  Fe41  1  0.12216039  0.37377299  0.14844652  1
  Fe  Fe42  1  0.87492726  0.12772669  0.63828293  1
  Fe  Fe43  1  0.37948279  0.12082796  0.37223723  1
  Fe  Fe44  1  0.88026686  0.87672402  0.87678381  1
  Fe  Fe45  1  0.87756782  0.62386728  0.63476122  1
  Fe  Fe46  1  0.87022354  0.37466057  0.39092466  1
  Fe  Fe47  1  0.87411586  0.62489235  0.13408808  1
  Fe  Fe48  1  0.37261682  0.62811852  0.13570552  1
  Fe  Fe49  1  0.86832246  0.87518959  0.38850565  1
  Fe  Fe50  1  0.87775104  0.13071247  0.88210769  1
  Fe  Fe51  1  0.12333709  0.62985979  0.38896144  1
  Fe  Fe52  1  0.11899249  0.87375016  0.38532396  1
  Fe  Fe53  1  0.62873477  0.87313390  0.12387185  1
  Fe  Fe54  1  0.12895140  0.62423446  0.62597656  1
  Fe  Fe55  1  0.62970515  0.12248863  0.12844818  1
  Fe  Fe56  1  0.37440734  0.12167510  0.14579593  1
  Fe  Fe57  1  0.13056095  0.37509924  0.88800657  1
  Fe  Fe58  1  0.37768047  0.87647773  0.63587633  1
  Fe  Fe59  1  0.12434249  0.12046785  0.38418150  1
  Fe  Fe60  1  0.12829897  0.87375227  0.88613212  1
  Fe  Fe61  1  0.12835143  0.12529862  0.62872098  1
  Fe  Fe62  1  0.12407610  0.37524532  0.37562509  1
  Fe  Fe63  1  0.62521663  0.37537885  0.38269338  1
  Pb  Pb64  1  -0.00394496  -0.00315595  -0.00941531  1
  Pb  Pb65  1  0.00239376  -0.00341000  0.25619395  1
  Pb  Pb66  1  -0.00097716  0.00075549  0.50073262  1
  Pb  Pb67  1  -0.00318091  0.00309277  0.74545690  1
  Pb  Pb68  1  0.01454208  0.25676427  0.00675937  1
  Pb  Pb69  1  -0.00398772  0.25563286  0.25876370  1
  Pb  Pb70  1  0.00158836  0.24952341  0.49234891  1
  Pb  Pb71  1  -0.00196082  0.24764733  0.74162154  1
  Pb  Pb72  1  0.00757232  0.50768210  0.00932035  1
  Pb  Pb73  1  0.00710753  0.50790997  0.25263402  1
  Pb  Pb74  1  0.00010922  0.49841510  0.49182508  1
  Pb  Pb75  1  0.00323133  0.49936139  0.73970333  1
  Pb  Pb76  1  0.00188787  0.74152978  -0.00148071  1
  Pb  Pb77  1  0.00255182  0.75096552  0.25293052  1
  Pb  Pb78  1  -0.00569183  0.75343221  0.50018893  1
  Pb  Pb79  1  0.00306052  0.75305240  0.74348742  1
  Pb  Pb80  1  0.25563878  0.00789400  0.00633239  1
  Pb  Pb81  1  0.23913571  0.00040819  0.25698998  1
  Pb  Pb82  1  0.24447828  0.00556175  0.49455193  1
  Pb  Pb83  1  0.24424083  -0.00657462  0.75144203  1
  Pb  Pb84  1  0.25227861  0.26207814  0.01491231  1
  Pb  Pb85  1  0.25301891  0.25642545  0.25086392  1
  Pb  Pb86  1  0.25080287  0.24681462  0.47963904  1
  Pb  Pb87  1  0.24550177  0.25647203  0.74930497  1
  Pb  Pb88  1  0.25456489  0.49664465  0.01387104  1
  Pb  Pb89  1  0.24527296  0.50259675  0.24499915  1
  Pb  Pb90  1  0.24532560  0.50083637  0.48839769  1
  Pb  Pb91  1  0.24842777  0.49564249  0.74414884  1
  Pb  Pb92  1  0.24762345  0.73887392  0.00407972  1
  Pb  Pb93  1  0.23864358  0.74732788  0.25259664  1
  Pb  Pb94  1  0.24970570  0.74531145  0.49959833  1
  Pb  Pb95  1  0.25121545  0.74872387  0.74234039  1
  Pb  Pb96  1  0.50112769  0.00740921  0.00329161  1
  Pb  Pb97  1  0.50511507  0.00387831  0.24142256  1
  Pb  Pb98  1  0.49693617  -0.00524385  0.49942213  1
  Pb  Pb99  1  0.51193969  0.00063681  0.76300948  1
  Pb  Pb100  1  0.49246459  0.24299430  0.01077953  1
  Pb  Pb101  1  0.49554871  0.24640637  0.24549100  1
  Pb  Pb102  1  0.49649857  0.25175579  0.48705274  1
  Pb  Pb103  1  0.50309954  0.24545528  0.75573262  1
  Pb  Pb104  1  0.48851790  0.49821696  0.00877574  1
  Pb  Pb105  1  0.50142686  0.49713409  0.24823579  1
  Pb  Pb106  1  0.49534645  0.50446366  0.49499447  1
  Pb  Pb107  1  0.50169707  0.50214159  0.75126583  1
  Pb  Pb108  1  0.50469919  0.75057337  -0.00225815  1
  Pb  Pb109  1  0.50430439  0.75067255  0.24449607  1
  Pb  Pb110  1  0.49113002  0.75164630  0.50715252  1
  Pb  Pb111  1  0.50435989  0.75096260  0.75585216  1
  Pb  Pb112  1  0.74708682  0.00005449  -0.01255979  1
  Pb  Pb113  1  0.75368620  -0.00545387  0.24249746  1
  Pb  Pb114  1  0.75998534  0.00101188  0.51110796  1
  Pb  Pb115  1  0.75862413  0.00425517  0.75660571  1
  Pb  Pb116  1  0.74808681  0.24374475  -0.00064942  1
  Pb  Pb117  1  0.75019199  0.25719948  0.25343610  1
  Pb  Pb118  1  0.75477867  0.24990527  0.50186544  1
  Pb  Pb119  1  0.75347545  0.24386883  0.75193128  1
  Pb  Pb120  1  0.75744412  0.50357821  0.00340712  1
  Pb  Pb121  1  0.75039446  0.49134774  0.25540516  1
  Pb  Pb122  1  0.75414436  0.49910560  0.50080177  1
  Pb  Pb123  1  0.74905203  0.50233014  0.74800493  1
  Pb  Pb124  1  0.74902878  0.75494015  -0.00778401  1
  Pb  Pb125  1  0.75831873  0.75625414  0.24697905  1
  Pb  Pb126  1  0.75917243  0.75258837  0.51224634  1
  Pb  Pb127  1  0.74966292  0.75539610  0.75543014  1
  O  O128  1  0.11835383  -0.00406609  0.16581908  1
  O  O129  1  0.12373321  -0.00399696  0.41716012  1
  O  O130  1  0.12931268  -0.00226575  0.66217515  1
  O  O131  1  0.12901157  0.01045348  0.91325947  1
  O  O132  1  0.11954386  0.24015846  0.16948857  1
  O  O133  1  0.12286430  0.24777158  0.40474153  1
  O  O134  1  0.13200436  0.25551944  0.65762378  1
  O  O135  1  0.13001967  0.24598374  0.92106917  1
  O  O136  1  0.11887182  0.50139882  0.16361577  1
  O  O137  1  0.12506034  0.50210079  0.40683635  1
  O  O138  1  0.13177121  0.49049613  0.65644239  1
  O  O139  1  0.12690422  0.50358125  0.91660426  1
  O  O140  1  0.11896626  0.75990747  0.16363050  1
  O  O141  1  0.12674578  0.75311039  0.41873213  1
  O  O142  1  0.13003608  0.75707802  0.65527076  1
  O  O143  1  0.12377910  0.74043155  0.91330849  1
  O  O144  1  0.37275684  -0.01415924  0.16480887  1
  O  O145  1  0.38443986  -0.00715409  0.40653890  1
  O  O146  1  0.37951774  0.00867833  0.66509483  1
  O  O147  1  0.37071226  -0.00197907  0.91710876  1
  O  O148  1  0.37673434  0.24867022  0.16184300  1
  O  O149  1  0.38078954  0.24686072  0.40033871  1
  O  O150  1  0.37836062  0.24823516  0.66704465  1
  O  O151  1  0.37439037  0.25402356  0.91979700  1
  O  O152  1  0.37759546  0.50679653  0.16775863  1
  O  O153  1  0.38108136  0.50967328  0.40225528  1
  O  O154  1  0.37764972  0.49273871  0.66201859  1
  O  O155  1  0.37134103  0.49716300  0.92038071  1
  O  O156  1  0.37351128  0.75754012  0.16569584  1
  O  O157  1  0.38226934  0.75206335  0.41571155  1
  O  O158  1  0.37745167  0.75097683  0.66576426  1
  O  O159  1  0.37006369  0.75154107  0.91338388  1
  O  O160  1  0.62839850  -0.00405691  0.15386136  1
  O  O161  1  0.62432949  0.00046879  0.41453717  1
  O  O162  1  0.62078569  -0.00017522  0.66887637  1
  O  O163  1  0.62200317  0.00064329  0.91150615  1
  O  O164  1  0.62990808  0.25643342  0.15664658  1
  O  O165  1  0.62518562  0.24032579  0.40796080  1
  O  O166  1  0.62086228  0.25519796  0.66608577  1
  O  O167  1  0.61857329  0.26284390  0.92045278  1
  O  O168  1  0.62989617  0.50261440  0.16322415  1
  O  O169  1  0.62240140  0.51271118  0.41292639  1
  O  O170  1  0.62006250  0.49620219  0.66366324  1
  O  O171  1  0.62121451  0.49284838  0.92114200  1
  O  O172  1  0.62974513  0.74595568  0.15765483  1
  O  O173  1  0.62293786  0.74711781  0.41850064  1
  O  O174  1  0.62145051  0.74810999  0.66485587  1
  O  O175  1  0.62482921  0.74242444  0.91358427  1
  O  O176  1  0.87504219  -0.00256956  0.16081263  1
  O  O177  1  0.86655662  0.00394895  0.41757411  1
  O  O178  1  0.87158712  0.00196382  0.66706825  1
  O  O179  1  0.87889397  0.00392487  0.90585011  1
  O  O180  1  0.87219893  0.25165872  0.16633026  1
  O  O181  1  0.86791323  0.24053440  0.41276183  1
  O  O182  1  0.87231988  0.25560559  0.66439329  1
  O  O183  1  0.87407238  0.26112734  0.91415660  1
  O  O184  1  0.87289545  0.49314190  0.16360879  1
  O  O185  1  0.86857271  0.50965149  0.41081823  1
  O  O186  1  0.87431625  0.49750556  0.66425101  1
  O  O187  1  0.87741379  0.49249742  0.91945409  1
  O  O188  1  0.87457074  0.75732995  0.15831159  1
  O  O189  1  0.86697083  0.74613147  0.41799427  1
  O  O190  1  0.87277288  0.74602933  0.66978969  1
  O  O191  1  0.88052972  0.73756761  0.90221018  1
  O  O192  1  -0.00388336  0.12232469  0.17122302  1
  O  O193  1  -0.01119759  0.12114600  0.40928409  1
  O  O194  1  0.00467285  0.12791314  0.66057143  1
  O  O195  1  0.00856657  0.13118321  0.91021586  1
  O  O196  1  -0.00970569  0.37047977  0.16582660  1
  O  O197  1  -0.00243451  0.37497014  0.41043743  1
  O  O198  1  0.00924941  0.37366490  0.64995285  1
  O  O199  1  -0.00015060  0.37414502  0.91049018  1
  O  O200  1  -0.00547951  0.62842261  0.16921356  1
  O  O201  1  -0.01056515  0.62949946  0.40936246  1
  O  O202  1  0.00652328  0.62260871  0.66068860  1
  O  O203  1  0.00039177  0.61678155  0.91429002  1
  O  O204  1  -0.00345776  0.87743861  0.16125410  1
  O  O205  1  -0.00689161  0.87429727  0.41546147  1
  O  O206  1  0.00917866  0.87627537  0.65927073  1
  O  O207  1  0.00335127  0.87428385  0.91236440  1
  O  O208  1  0.23898659  0.11785302  0.16424215  1
  O  O209  1  0.25520627  0.11873741  0.40238626  1
  O  O210  1  0.25757741  0.12724621  0.66123739  1
  O  O211  1  0.24910864  0.12837196  0.92288391  1
  O  O212  1  0.24796835  0.37379282  0.16714873  1
  O  O213  1  0.25311416  0.37585646  0.40044542  1
  O  O214  1  0.25309756  0.37200962  0.66152035  1
  O  O215  1  0.25597884  0.37454684  0.92271559  1
  O  O216  1  0.24686088  0.63106382  0.16472584  1
  O  O217  1  0.26153238  0.63143098  0.40483148  1
  O  O218  1  0.24999035  0.62274414  0.66349998  1
  O  O219  1  0.24675655  0.62338501  0.91651052  1
  O  O220  1  0.24386752  0.87520342  0.15992194  1
  O  O221  1  0.26124393  0.87370771  0.40641416  1
  O  O222  1  0.24901568  0.87900095  0.66261141  1
  O  O223  1  0.25368401  0.87453482  0.92039758  1
  O  O224  1  0.50596049  0.12167473  0.16020910  1
  O  O225  1  0.50693969  0.12040976  0.40865438  1
  O  O226  1  0.49809970  0.12814988  0.67207055  1
  O  O227  1  0.49140611  0.12757161  0.92009614  1
  O  O228  1  0.51105380  0.37913386  0.15888822  1
  O  O229  1  0.50140520  0.37750286  0.41184981  1
  O  O230  1  0.50234544  0.37343415  0.66714418  1
  O  O231  1  0.49398610  0.37779968  0.92008441  1
  O  O232  1  0.51068958  0.62760385  0.16112037  1
  O  O233  1  0.50110362  0.63004293  0.41507405  1
  O  O234  1  0.50436677  0.62221644  0.66750467  1
  O  O235  1  0.49405571  0.62139704  0.91563512  1
  O  O236  1  0.49768201  0.87070857  0.15277592  1
  O  O237  1  0.50367329  0.87308015  0.41905472  1
  O  O238  1  0.50438870  0.87584012  0.67164157  1
  O  O239  1  0.48693088  0.87304446  0.91631114  1
  O  O240  1  0.75602277  0.12438570  0.16062183  1
  O  O241  1  0.74463072  0.12166385  0.41650745  1
  O  O242  1  0.74092392  0.12764419  0.66785576  1
  O  O243  1  0.75161470  0.13259636  0.91136256  1
  O  O244  1  0.75063836  0.37595176  0.16659576  1
  O  O245  1  0.74437101  0.37690263  0.41862778  1
  O  O246  1  0.73895555  0.37649039  0.65930392  1
  O  O247  1  0.74714528  0.37714293  0.91232667  1
  O  O248  1  0.74685652  0.62453897  0.16335936  1
  O  O249  1  0.74522195  0.62796732  0.41447188  1
  O  O250  1  0.74020920  0.62191394  0.66641625  1
  O  O251  1  0.75834709  0.61497678  0.90870466  1
  O  O252  1  0.75716369  0.87497356  0.15615565  1
  O  O253  1  0.74166050  0.87354483  0.42094737  1
  O  O254  1  0.73776440  0.87454348  0.67097246  1
  O  O255  1  0.75604782  0.87099026  0.90715181  1
  O  O256  1  0.11517887  0.12546339  0.05651069  1
  O  O257  1  0.11881073  0.10730339  0.28360130  1
  O  O258  1  0.12944838  0.12078156  0.52918884  1
  O  O259  1  0.13230740  0.13223007  0.79943621  1
  O  O260  1  0.12284089  0.36181473  0.04573179  1
  O  O261  1  0.11652109  0.37150722  0.27446689  1
  O  O262  1  0.13271397  0.37394102  0.54028191  1
  O  O263  1  0.13534901  0.37207898  0.78903031  1
  O  O264  1  0.11560830  0.62910747  0.03751066  1
  O  O265  1  0.11863039  0.63796128  0.28709166  1
  O  O266  1  0.13509948  0.62205455  0.52575704  1
  O  O267  1  0.12691018  0.61995619  0.80069168  1
  O  O268  1  0.12407599  0.87729934  0.04891339  1
  O  O269  1  0.12262348  0.87724609  0.28463663  1
  O  O270  1  0.12987170  0.88197979  0.54533726  1
  O  O271  1  0.13412531  0.87777394  0.78727755  1
  O  O272  1  0.37391584  0.11609035  0.04371568  1
  O  O273  1  0.38409299  0.11788938  0.27160766  1
  O  O274  1  0.37867539  0.12507376  0.55006028  1
  O  O275  1  0.36997297  0.12600216  0.80395954  1
  O  O276  1  0.37104610  0.38419553  0.04402234  1
  O  O277  1  0.38579472  0.37421710  0.27262319  1
  O  O278  1  0.37845382  0.36997867  0.54434126  1
  O  O279  1  0.37431902  0.37455388  0.80665796  1
  O  O280  1  0.36764297  0.62359814  0.03526486  1
  O  O281  1  0.38653839  0.63787164  0.29588783  1
  O  O282  1  0.37965000  0.62717801  0.53391296  1
  O  O283  1  0.37240419  0.62092340  0.80231484  1
  O  O284  1  0.37128445  0.87311289  0.04567967  1
  O  O285  1  0.38358057  0.86917481  0.29812552  1
  O  O286  1  0.38412603  0.87738396  0.53655026  1
  O  O287  1  0.36895649  0.87710442  0.80109173  1
  O  O288  1  0.62495682  0.12982798  0.02769703  1
  O  O289  1  0.62803156  0.11774127  0.29571537  1
  O  O290  1  0.61922548  0.12645944  0.55299019  1
  O  O291  1  0.61536025  0.13254969  0.79261813  1
  O  O292  1  0.63227997  0.37961370  0.04903566  1
  O  O293  1  0.63247982  0.37864075  0.28269571  1
  O  O294  1  0.61808946  0.37409630  0.54771225  1
  O  O295  1  0.62357060  0.37753377  0.80304349  1
  O  O296  1  0.63072252  0.62165861  0.04544285  1
  O  O297  1  0.62538575  0.63298993  0.29931689  1
  O  O298  1  0.62249092  0.62496986  0.55344391  1
  O  O299  1  0.62096000  0.61542525  0.78607240  1
  O  O300  1  0.62905103  0.86543447  0.02355908  1
  O  O301  1  0.62590552  0.87187862  0.29927527  1
  O  O302  1  0.62044100  0.87993600  0.55634924  1
  O  O303  1  0.61378285  0.87059219  0.79110357  1
  O  O304  1  0.87968232  0.12912653  0.04626761  1
  O  O305  1  0.86564230  0.11925007  0.29994597  1
  O  O306  1  0.86540971  0.12367945  0.53808348  1
  O  O307  1  0.87523348  0.13475843  0.78182469  1
  O  O308  1  0.87409211  0.37428941  0.05132333  1
  O  O309  1  0.86283001  0.36918856  0.28976777  1
  O  O310  1  0.86887923  0.37525285  0.52792383  1
  O  O311  1  0.87946361  0.37802869  0.79854773  1
  O  O312  1  0.87904947  0.61882705  0.03416366  1
  O  O313  1  0.86714237  0.63315328  0.29928942  1
  O  O314  1  0.86814729  0.62899346  0.53538111  1
  O  O315  1  0.88015287  0.60933604  0.79844032  1
  O  O316  1  0.88046782  0.87797206  0.04429758  1
  O  O317  1  0.86132948  0.87418345  0.28885035  1
  O  O318  1  0.86463112  0.87221358  0.54577697  1
  O  O319  1  0.87775403  0.87503130  0.77579014  1
