# generated using pymatgen
data_VFe(PbO3)2
_symmetry_space_group_name_H-M   'P 1'
_cell_length_a   15.40639056
_cell_length_b   15.37693907
_cell_length_c   18.50018010
_cell_angle_alpha   90.04058592
_cell_angle_beta   89.93354760
_cell_angle_gamma   89.97653421
_symmetry_Int_Tables_number   1
_chemical_formula_structural   VFe(PbO3)2
_chemical_formula_sum   'V32 Fe32 Pb64 O192'
_cell_volume   4382.74613531
_cell_formula_units_Z   32
loop_
 _symmetry_equiv_pos_site_id
 _symmetry_equiv_pos_as_xyz
  1  'x, y, z'
loop_
 _atom_site_type_symbol
 _atom_site_label
 _atom_site_symmetry_multiplicity
 _atom_site_fract_x
 _atom_site_fract_y
 _atom_site_fract_z
 _atom_site_occupancy
  V  V0  1  0.12169756  0.87507942  0.13955080  1
  V  V1  1  0.12679215  0.62308546  0.38862115  1
  V  V2  1  0.12785890  0.37379457  0.88732171  1
  V  V3  1  0.62187699  0.62585252  0.14025691  1
  V  V4  1  0.12326795  0.62666285  0.89071323  1
  V  V5  1  0.37369584  0.12452004  0.13566398  1
  V  V6  1  0.87533786  0.62439473  0.13941108  1
  V  V7  1  0.12568989  0.62356472  0.63865541  1
  V  V8  1  0.62601599  0.12902918  0.38895723  1
  V  V9  1  0.37296594  0.37279015  0.39131277  1
  V  V10  1  0.12306095  0.37590900  0.39006581  1
  V  V11  1  0.12670294  0.12268054  0.13927376  1
  V  V12  1  0.37577402  0.12403454  0.88878600  1
  V  V13  1  0.37515199  0.87413726  0.89042468  1
  V  V14  1  0.12310407  0.37408562  0.64272802  1
  V  V15  1  0.86499445  0.62683844  0.88292181  1
  V  V16  1  0.37407911  0.12540825  0.64271129  1
  V  V17  1  0.12506789  0.87682805  0.38953362  1
  V  V18  1  0.37656870  0.12897892  0.39127620  1
  V  V19  1  0.62765628  0.87064548  0.88958446  1
  V  V20  1  0.37567885  0.62312554  0.39314323  1
  V  V21  1  0.12116115  0.87649303  0.63959946  1
  V  V22  1  0.37264876  0.87786496  0.63468780  1
  V  V23  1  0.87215646  0.37524751  0.64358651  1
  V  V24  1  0.37329691  0.87411270  0.14445803  1
  V  V25  1  0.37471462  0.37718584  0.64418632  1
  V  V26  1  0.86898247  0.87545123  0.63761017  1
  V  V27  1  0.85991137  0.37252584  0.38834591  1
  V  V28  1  0.61545627  0.37389708  0.39024556  1
  V  V29  1  0.61974380  0.87721353  0.63511336  1
  V  V30  1  0.12335542  0.37648654  0.13497502  1
  V  V31  1  0.37616658  0.62672417  0.88990376  1
  Fe  Fe32  1  0.87597578  0.86938415  0.88408244  1
  Fe  Fe33  1  0.62514279  0.62604619  0.63934797  1
  Fe  Fe34  1  0.12589437  0.12745157  0.64858491  1
  Fe  Fe35  1  0.62240616  0.87471081  0.38015555  1
  Fe  Fe36  1  0.62033922  0.62857524  0.87952173  1
  Fe  Fe37  1  0.62401541  0.37979412  0.88071253  1
  Fe  Fe38  1  0.62566498  0.12370589  0.64483877  1
  Fe  Fe39  1  0.12640528  0.12920776  0.38465060  1
  Fe  Fe40  1  0.87875701  0.38027079  0.88946544  1
  Fe  Fe41  1  0.87776978  0.12297265  0.88647877  1
  Fe  Fe42  1  0.37294033  0.37677512  0.88917333  1
  Fe  Fe43  1  0.87711956  0.12458155  0.64364148  1
  Fe  Fe44  1  0.62314831  0.12134501  0.89197287  1
  Fe  Fe45  1  0.12503291  0.62764911  0.13592725  1
  Fe  Fe46  1  0.62423309  0.62024241  0.38540602  1
  Fe  Fe47  1  0.62550284  0.37523650  0.12925506  1
  Fe  Fe48  1  0.12706309  0.87125515  0.88252354  1
  Fe  Fe49  1  0.87770800  0.12521431  0.12696031  1
  Fe  Fe50  1  0.87620271  0.13033074  0.38658344  1
  Fe  Fe51  1  0.87648342  0.87377036  0.14015592  1
  Fe  Fe52  1  0.12889599  0.12174774  0.87912296  1
  Fe  Fe53  1  0.87566713  0.37695979  0.12651679  1
  Fe  Fe54  1  0.62473264  0.87560970  0.14570123  1
  Fe  Fe55  1  0.37256308  0.62545438  0.13362837  1
  Fe  Fe56  1  0.37243789  0.37415897  0.12786931  1
  Fe  Fe57  1  0.87853624  0.62427735  0.63205467  1
  Fe  Fe58  1  0.87433623  0.87645770  0.38355872  1
  Fe  Fe59  1  0.37303929  0.87777558  0.38733464  1
  Fe  Fe60  1  0.62432373  0.37189949  0.64713920  1
  Fe  Fe61  1  0.37221524  0.62803874  0.63395861  1
  Fe  Fe62  1  0.62521379  0.12330944  0.12459776  1
  Fe  Fe63  1  0.87626688  0.62060190  0.39502612  1
  Pb  Pb64  1  -0.00425996  -0.00064899  -0.00976436  1
  Pb  Pb65  1  -0.01088330  0.00557731  0.25113397  1
  Pb  Pb66  1  -0.00650377  0.01176122  0.50195104  1
  Pb  Pb67  1  -0.00224160  0.00747175  0.75603109  1
  Pb  Pb68  1  -0.00920762  0.24337062  -0.00463295  1
  Pb  Pb69  1  -0.00366036  0.24286805  0.24637880  1
  Pb  Pb70  1  -0.00130587  0.23667158  0.50834279  1
  Pb  Pb71  1  -0.00938700  0.24732137  0.75918949  1
  Pb  Pb72  1  0.00183754  0.50250076  0.00070184  1
  Pb  Pb73  1  -0.00795997  0.50267390  0.25092340  1
  Pb  Pb74  1  -0.00290668  0.49942708  0.50319272  1
  Pb  Pb75  1  -0.00544558  0.49721169  0.75396123  1
  Pb  Pb76  1  -0.00284895  0.75586440  0.00009205  1
  Pb  Pb77  1  -0.01417392  0.74538343  0.25910815  1
  Pb  Pb78  1  -0.00570169  0.74704107  0.49814440  1
  Pb  Pb79  1  -0.00053559  0.75917617  0.75088606  1
  Pb  Pb80  1  0.24494435  -0.00240819  -0.00357362  1
  Pb  Pb81  1  0.25119767  -0.00279763  0.25464624  1
  Pb  Pb82  1  0.24101576  0.00837413  0.50182223  1
  Pb  Pb83  1  0.24263936  -0.00244896  0.75299892  1
  Pb  Pb84  1  0.25426974  0.25625851  -0.00145087  1
  Pb  Pb85  1  0.24174940  0.24685183  0.24873594  1
  Pb  Pb86  1  0.24343429  0.24606216  0.50525997  1
  Pb  Pb87  1  0.25677197  0.25518188  0.75636591  1
  Pb  Pb88  1  0.25257221  0.50989502  0.00423276  1
  Pb  Pb89  1  0.25202737  0.50055180  0.24266217  1
  Pb  Pb90  1  0.25624344  0.50116708  0.50347209  1
  Pb  Pb91  1  0.25535242  0.49616040  0.75392215  1
  Pb  Pb92  1  0.25032993  0.74110782  0.00483473  1
  Pb  Pb93  1  0.25159693  0.75289330  0.25138358  1
  Pb  Pb94  1  0.25258378  0.74700899  0.50055867  1
  Pb  Pb95  1  0.24452357  0.75545144  0.74779652  1
  Pb  Pb96  1  0.50960728  -0.00300039  0.00557430  1
  Pb  Pb97  1  0.50211183  -0.00457906  0.25035902  1
  Pb  Pb98  1  0.50144211  0.00043485  0.49700548  1
  Pb  Pb99  1  0.50432696  0.00427518  0.75390482  1
  Pb  Pb100  1  0.51144910  0.25895473  -0.00520785  1
  Pb  Pb101  1  0.50278660  0.25336232  0.23791765  1
  Pb  Pb102  1  0.50921276  0.25101773  0.51255452  1
  Pb  Pb103  1  0.51070737  0.25320064  0.76020919  1
  Pb  Pb104  1  0.50119351  0.49449380  -0.00354550  1
  Pb  Pb105  1  0.49932305  0.49905430  0.24340604  1
  Pb  Pb106  1  0.50377759  0.50569387  0.50909072  1
  Pb  Pb107  1  0.50850844  0.50299369  0.75174097  1
  Pb  Pb108  1  0.50374873  0.75423657  0.00462115  1
  Pb  Pb109  1  0.50677907  0.74896497  0.25607929  1
  Pb  Pb110  1  0.50412042  0.74648984  0.49664930  1
  Pb  Pb111  1  0.50058296  0.74313852  0.74567362  1
  Pb  Pb112  1  0.75808449  0.00877036  -0.00114361  1
  Pb  Pb113  1  0.75410044  0.00490711  0.24005137  1
  Pb  Pb114  1  0.75455618  0.00385304  0.49336375  1
  Pb  Pb115  1  0.75378199  0.00942239  0.75746796  1
  Pb  Pb116  1  0.75171654  0.24988687  -0.01268475  1
  Pb  Pb117  1  0.75484913  0.24836034  0.23213411  1
  Pb  Pb118  1  0.73595169  0.24666241  0.51396967  1
  Pb  Pb119  1  0.74900814  0.24209941  0.75841855  1
  Pb  Pb120  1  0.74261689  0.48961682  -0.00492410  1
  Pb  Pb121  1  0.74630122  0.50638298  0.24811555  1
  Pb  Pb122  1  0.73991090  0.51124952  0.50882716  1
  Pb  Pb123  1  0.74366254  0.50161846  0.74862309  1
  Pb  Pb124  1  0.74877272  0.76952465  0.01353277  1
  Pb  Pb125  1  0.75087961  0.75591508  0.25488684  1
  Pb  Pb126  1  0.74598645  0.74776784  0.49056101  1
  Pb  Pb127  1  0.75543356  0.75146645  0.74473929  1
  O  O128  1  0.12863263  -0.00416212  0.16578828  1
  O  O129  1  0.12862039  -0.00417938  0.40940735  1
  O  O130  1  0.12682452  -0.00781677  0.66252351  1
  O  O131  1  0.12919160  -0.00343792  0.91046119  1
  O  O132  1  0.12751470  0.25102227  0.16135415  1
  O  O133  1  0.13162088  0.25849018  0.41589888  1
  O  O134  1  0.12941057  0.25930557  0.66880209  1
  O  O135  1  0.13030081  0.25675256  0.90453800  1
  O  O136  1  0.12606296  0.49390351  0.15910154  1
  O  O137  1  0.13400367  0.49711242  0.41645563  1
  O  O138  1  0.12936667  0.49530895  0.66564809  1
  O  O139  1  0.13122940  0.50562084  0.91328178  1
  O  O140  1  0.13092868  0.75887255  0.16279715  1
  O  O141  1  0.12678432  0.74774844  0.41489132  1
  O  O142  1  0.12781079  0.75197401  0.66164612  1
  O  O143  1  0.13270137  0.74446039  0.91378797  1
  O  O144  1  0.37127451  0.00097612  0.16697412  1
  O  O145  1  0.37353937  0.01056692  0.41604374  1
  O  O146  1  0.37491831  -0.00127364  0.66653080  1
  O  O147  1  0.37571139  -0.00561085  0.91500593  1
  O  O148  1  0.36977466  0.24232002  0.15656788  1
  O  O149  1  0.37328267  0.24637623  0.41893278  1
  O  O150  1  0.37073209  0.24588667  0.66475554  1
  O  O151  1  0.37257672  0.24144919  0.90900280  1
  O  O152  1  0.37171672  0.49918491  0.16100644  1
  O  O153  1  0.37240880  0.50044629  0.41684287  1
  O  O154  1  0.37154572  0.49454546  0.66221099  1
  O  O155  1  0.37184190  0.50962775  0.90750657  1
  O  O156  1  0.37096613  0.75614940  0.16446234  1
  O  O157  1  0.37409830  0.74367094  0.41286476  1
  O  O158  1  0.37281678  0.75840798  0.65984206  1
  O  O159  1  0.37437153  0.75341649  0.91556155  1
  O  O160  1  0.62045554  0.00289255  0.16395506  1
  O  O161  1  0.62236713  0.01206572  0.40834385  1
  O  O162  1  0.62661070  -0.00852819  0.66624396  1
  O  O163  1  0.62059276  -0.01358203  0.91451049  1
  O  O164  1  0.62134874  0.24764030  0.15614362  1
  O  O165  1  0.62007085  0.24931014  0.42090192  1
  O  O166  1  0.62375381  0.24705836  0.67473656  1
  O  O167  1  0.62187892  0.25056970  0.90451508  1
  O  O168  1  0.62497378  0.50664332  0.16259362  1
  O  O169  1  0.62096040  0.49174883  0.41797726  1
  O  O170  1  0.62222456  0.49894774  0.66299593  1
  O  O171  1  0.61983061  0.50714842  0.91090020  1
  O  O172  1  0.62453463  0.74149015  0.16766803  1
  O  O173  1  0.62104752  0.74804760  0.41005552  1
  O  O174  1  0.62544986  0.76092739  0.65934193  1
  O  O175  1  0.61960351  0.75338087  0.91608347  1
  O  O176  1  0.87977028  0.00053400  0.16060947  1
  O  O177  1  0.87659791  0.00291376  0.41404839  1
  O  O178  1  0.87832663  -0.01044303  0.66402765  1
  O  O179  1  0.87634006  -0.00571264  0.90798625  1
  O  O180  1  0.87962251  0.25157431  0.15453572  1
  O  O181  1  0.88145805  0.26202855  0.41682569  1
  O  O182  1  0.87988319  0.25812073  0.66883552  1
  O  O183  1  0.87965253  0.25258269  0.90766917  1
  O  O184  1  0.87753578  0.50513548  0.16327120  1
  O  O185  1  0.87707025  0.48340197  0.42069396  1
  O  O186  1  0.88200955  0.49464936  0.66415673  1
  O  O187  1  0.88213185  0.51525353  0.91341170  1
  O  O188  1  0.87619751  0.74150466  0.16792641  1
  O  O189  1  0.87842700  0.75021308  0.41462410  1
  O  O190  1  0.87931893  0.75584367  0.65909188  1
  O  O191  1  0.87633561  0.73763529  0.91696167  1
  O  O192  1  0.00687768  0.12470991  0.16007421  1
  O  O193  1  0.00297733  0.13001112  0.41718013  1
  O  O194  1  0.00115810  0.12394556  0.66955394  1
  O  O195  1  0.00626313  0.12473078  0.90894529  1
  O  O196  1  0.00746679  0.37497440  0.15979852  1
  O  O197  1  0.01195678  0.37907322  0.41088667  1
  O  O198  1  0.00625004  0.37632819  0.66395040  1
  O  O199  1  0.01338676  0.38334058  0.91327472  1
  O  O200  1  -0.00353205  0.62463907  0.16275498  1
  O  O201  1  0.00765113  0.61768550  0.41848270  1
  O  O202  1  0.00711277  0.62466883  0.66291210  1
  O  O203  1  0.00889586  0.62768049  0.91064112  1
  O  O204  1  0.00816673  0.87394966  0.16092624  1
  O  O205  1  0.01012229  0.87375600  0.41423571  1
  O  O206  1  0.00379804  0.87211213  0.65899694  1
  O  O207  1  0.00192374  0.86551243  0.91139571  1
  O  O208  1  0.25217210  0.12226788  0.16700107  1
  O  O209  1  0.25437083  0.12766082  0.41580255  1
  O  O210  1  0.25828195  0.12095572  0.66823996  1
  O  O211  1  0.25692820  0.12030684  0.91290959  1
  O  O212  1  0.24321810  0.37232398  0.16075100  1
  O  O213  1  0.25298674  0.37471919  0.42014123  1
  O  O214  1  0.25082671  0.37410304  0.66926624  1
  O  O215  1  0.24389541  0.37886073  0.91607386  1
  O  O216  1  0.24846721  0.62658658  0.16925488  1
  O  O217  1  0.25192008  0.62413267  0.41732613  1
  O  O218  1  0.24607698  0.62522377  0.66634860  1
  O  O219  1  0.25359170  0.62882253  0.91486031  1
  O  O220  1  0.25028093  0.87843407  0.16891337  1
  O  O221  1  0.24430143  0.87331533  0.41795597  1
  O  O222  1  0.24816902  0.87546728  0.66125178  1
  O  O223  1  0.25831525  0.87340336  0.91299551  1
  O  O224  1  0.48925453  0.12244950  0.15571107  1
  O  O225  1  0.49773118  0.12930143  0.41536312  1
  O  O226  1  0.49128603  0.12211015  0.66833838  1
  O  O227  1  0.49005330  0.11832740  0.91517160  1
  O  O228  1  0.49814064  0.37534571  0.15887445  1
  O  O229  1  0.49445000  0.37278320  0.42100307  1
  O  O230  1  0.48915874  0.36949526  0.66418846  1
  O  O231  1  0.49711548  0.37743645  0.90944145  1
  O  O232  1  0.50264788  0.62595668  0.15987819  1
  O  O233  1  0.49311415  0.61979434  0.41439657  1
  O  O234  1  0.49581173  0.62843502  0.66207355  1
  O  O235  1  0.49170749  0.63132022  0.91166294  1
  O  O236  1  0.49052590  0.87526651  0.16551451  1
  O  O237  1  0.49815785  0.87975844  0.41572300  1
  O  O238  1  0.50216826  0.87756301  0.65767651  1
  O  O239  1  0.49641983  0.87169175  0.91684194  1
  O  O240  1  0.75082923  0.12411605  0.15310312  1
  O  O241  1  0.74331655  0.13317942  0.41037057  1
  O  O242  1  0.75199302  0.12338755  0.67027792  1
  O  O243  1  0.75019376  0.12122303  0.90945009  1
  O  O244  1  0.75046491  0.37860300  0.15849321  1
  O  O245  1  0.74684776  0.36966500  0.40320617  1
  O  O246  1  0.75738332  0.37539382  0.66491503  1
  O  O247  1  0.75103582  0.38226099  0.90557547  1
  O  O248  1  0.75244921  0.62406725  0.16360378  1
  O  O249  1  0.74976110  0.61759708  0.41544247  1
  O  O250  1  0.75417765  0.62496952  0.66048305  1
  O  O251  1  0.75166614  0.62434138  0.89057599  1
  O  O252  1  0.75114561  0.87114151  0.16704501  1
  O  O253  1  0.74712999  0.87801341  0.40989832  1
  O  O254  1  0.75163390  0.87339094  0.65678569  1
  O  O255  1  0.74398888  0.86777630  0.91098904  1
  O  O256  1  0.13181147  0.12211444  0.04824261  1
  O  O257  1  0.12654184  0.13512827  0.28511321  1
  O  O258  1  0.12959221  0.12959960  0.54583235  1
  O  O259  1  0.12976004  0.11564640  0.77807824  1
  O  O260  1  0.12440061  0.37386780  0.04380628  1
  O  O261  1  0.12719394  0.37522910  0.29870199  1
  O  O262  1  0.12672957  0.37222801  0.55157555  1
  O  O263  1  0.12965628  0.38042690  0.79592405  1
  O  O264  1  0.13270570  0.62549481  0.03635299  1
  O  O265  1  0.12539543  0.62185202  0.29756110  1
  O  O266  1  0.12823115  0.62216114  0.54712030  1
  O  O267  1  0.12666380  0.62646947  0.79936297  1
  O  O268  1  0.12720603  0.87719158  0.04815010  1
  O  O269  1  0.12711105  0.87229951  0.29858767  1
  O  O270  1  0.12348785  0.87611429  0.54855708  1
  O  O271  1  0.12855527  0.86847771  0.78203950  1
  O  O272  1  0.36760312  0.11848542  0.04523684  1
  O  O273  1  0.37709183  0.12962332  0.30053081  1
  O  O274  1  0.37366063  0.12363451  0.55151267  1
  O  O275  1  0.37766871  0.11945762  0.79748276  1
  O  O276  1  0.36935484  0.37157180  0.02739345  1
  O  O277  1  0.37367308  0.37158499  0.30049097  1
  O  O278  1  0.37056809  0.37437474  0.55295604  1
  O  O279  1  0.36312228  0.37389967  0.78824736  1
  O  O280  1  0.36554065  0.62683603  0.03406807  1
  O  O281  1  0.37317937  0.62119747  0.30199932  1
  O  O282  1  0.37151555  0.62252584  0.53419916  1
  O  O283  1  0.37473039  0.63237568  0.79839994  1
  O  O284  1  0.37139667  0.87706652  0.05334263  1
  O  O285  1  0.36919347  0.87993084  0.28795203  1
  O  O286  1  0.37268183  0.88101278  0.54344137  1
  O  O287  1  0.37780061  0.87400657  0.79952100  1
  O  O288  1  0.62144962  0.11720081  0.02318967  1
  O  O289  1  0.62130640  0.13548088  0.29867790  1
  O  O290  1  0.62617405  0.13485963  0.54362322  1
  O  O291  1  0.62088880  0.11341070  0.78910589  1
  O  O292  1  0.62253527  0.38319662  0.02863849  1
  O  O293  1  0.61073830  0.37187169  0.29934292  1
  O  O294  1  0.62549716  0.36085768  0.54482833  1
  O  O295  1  0.61885192  0.38185044  0.77791979  1
  O  O296  1  0.62600066  0.62823460  0.04928466  1
  O  O297  1  0.62142338  0.61737656  0.28571556  1
  O  O298  1  0.62163227  0.61949100  0.53671913  1
  O  O299  1  0.61363284  0.62825822  0.77856686  1
  O  O300  1  0.62192420  0.86546129  0.04408051  1
  O  O301  1  0.61463172  0.87063778  0.27889981  1
  O  O302  1  0.62160460  0.88149642  0.54396767  1
  O  O303  1  0.62467737  0.87088684  0.79847706  1
  O  O304  1  0.88059351  0.12362869  0.02537912  1
  O  O305  1  0.88283433  0.12882648  0.28662192  1
  O  O306  1  0.88253525  0.12611420  0.54128338  1
  O  O307  1  0.87750184  0.12208318  0.78294991  1
  O  O308  1  0.88079259  0.38502360  0.02617183  1
  O  O309  1  0.87448163  0.37655292  0.29724354  1
  O  O310  1  0.87472725  0.37313670  0.55265868  1
  O  O311  1  0.88977625  0.38348280  0.78878985  1
  O  O312  1  0.87294324  0.62643429  0.04891975  1
  O  O313  1  0.88548902  0.61853060  0.29409659  1
  O  O314  1  0.88140162  0.61694489  0.53143308  1
  O  O315  1  0.88344872  0.62889338  0.79184261  1
  O  O316  1  0.87286387  0.86199166  0.03870784  1
  O  O317  1  0.88303171  0.86987388  0.28290181  1
  O  O318  1  0.87333431  0.87791079  0.54620199  1
  O  O319  1  0.87443114  0.86146679  0.78381892  1
