# generated using pymatgen
data_VFe(PbO3)2
_symmetry_space_group_name_H-M   'P 1'
_cell_length_a   15.37271108
_cell_length_b   15.36846844
_cell_length_c   18.46766823
_cell_angle_alpha   90.02441464
_cell_angle_beta   90.03699160
_cell_angle_gamma   90.00232565
_symmetry_Int_Tables_number   1
_chemical_formula_structural   VFe(PbO3)2
_chemical_formula_sum   'V32 Fe32 Pb64 O192'
_cell_volume   4363.07811390
_cell_formula_units_Z   32
loop_
 _symmetry_equiv_pos_site_id
 _symmetry_equiv_pos_as_xyz
  1  'x, y, z'
loop_
 _atom_site_type_symbol
 _atom_site_label
 _atom_site_symmetry_multiplicity
 _atom_site_fract_x
 _atom_site_fract_y
 _atom_site_fract_z
 _atom_site_occupancy
  V  V0  1  0.37415513  0.87086784  0.63224505  1
  V  V1  1  0.87508104  0.87374525  0.38974050  1
  V  V2  1  0.12714542  0.62543188  0.63572648  1
  V  V3  1  0.62644681  0.37463874  0.63420346  1
  V  V4  1  0.87630335  0.62548077  0.14154177  1
  V  V5  1  0.62797512  0.12625888  0.39496346  1
  V  V6  1  0.12585031  0.87566103  0.14238925  1
  V  V7  1  0.37633374  0.37542050  0.14812124  1
  V  V8  1  0.62437986  0.37450366  0.14551139  1
  V  V9  1  0.87473485  0.87533205  0.88683745  1
  V  V10  1  0.37431709  0.87761205  0.38546956  1
  V  V11  1  0.87512724  0.87031142  0.63595819  1
  V  V12  1  0.37344793  0.12481510  0.14244987  1
  V  V13  1  0.62361384  0.37590280  0.88736752  1
  V  V14  1  0.87482094  0.87489616  0.13922605  1
  V  V15  1  0.62196948  0.12385720  0.88920047  1
  V  V16  1  0.87583212  0.12450566  0.64186602  1
  V  V17  1  0.12863347  0.12503262  0.88903304  1
  V  V18  1  0.87367067  0.37408896  0.14062734  1
  V  V19  1  0.37578156  0.87872837  0.89159378  1
  V  V20  1  0.62532025  0.37474807  0.38717325  1
  V  V21  1  0.87584706  0.37352030  0.88684009  1
  V  V22  1  0.87536012  0.12423867  0.13761147  1
  V  V23  1  0.87702704  0.12244479  0.39389037  1
  V  V24  1  0.37608526  0.37955489  0.63253529  1
  V  V25  1  0.87326136  0.37311168  0.39572216  1
  V  V26  1  0.12449255  0.62224351  0.14090471  1
  V  V27  1  0.37538999  0.62620922  0.89215033  1
  V  V28  1  0.37638765  0.37498823  0.89051572  1
  V  V29  1  0.12167086  0.62386365  0.38603278  1
  V  V30  1  0.12399339  0.12435818  0.39242881  1
  V  V31  1  0.62537454  0.12753549  0.14120413  1
  Fe  Fe32  1  0.37565599  0.12398079  0.62663931  1
  Fe  Fe33  1  0.62296591  0.62546643  0.63062410  1
  Fe  Fe34  1  0.12252743  0.12548147  0.13695736  1
  Fe  Fe35  1  0.37492499  0.12351422  0.39468155  1
  Fe  Fe36  1  0.37622703  0.12764173  0.88470541  1
  Fe  Fe37  1  0.37398868  0.87625967  0.13610230  1
  Fe  Fe38  1  0.62488064  0.87777803  0.14140747  1
  Fe  Fe39  1  0.62422979  0.87363218  0.88527524  1
  Fe  Fe40  1  0.12283115  0.37437196  0.38651314  1
  Fe  Fe41  1  0.62698643  0.87728935  0.38685449  1
  Fe  Fe42  1  0.62670403  0.62307916  0.14336060  1
  Fe  Fe43  1  0.87709223  0.62489767  0.39179052  1
  Fe  Fe44  1  0.12601050  0.87275633  0.88164156  1
  Fe  Fe45  1  0.62442303  0.87700330  0.63241482  1
  Fe  Fe46  1  0.87482622  0.62436843  0.88423069  1
  Fe  Fe47  1  0.87481065  0.37517906  0.63118020  1
  Fe  Fe48  1  0.37413476  0.62593231  0.62931861  1
  Fe  Fe49  1  0.62505338  0.12643557  0.63115869  1
  Fe  Fe50  1  0.12490617  0.87610631  0.63871284  1
  Fe  Fe51  1  0.12626648  0.12504529  0.63117690  1
  Fe  Fe52  1  0.62733305  0.62532611  0.38359474  1
  Fe  Fe53  1  0.12865954  0.37532071  0.88420111  1
  Fe  Fe54  1  0.62495223  0.62408276  0.88713033  1
  Fe  Fe55  1  0.12319697  0.87470095  0.38812782  1
  Fe  Fe56  1  0.37357034  0.62544277  0.14264186  1
  Fe  Fe57  1  0.87519469  0.62471494  0.62954441  1
  Fe  Fe58  1  0.37252387  0.62557222  0.38353355  1
  Fe  Fe59  1  0.12570726  0.62496162  0.88581390  1
  Fe  Fe60  1  0.87398670  0.12553935  0.88499560  1
  Fe  Fe61  1  0.12528017  0.37550767  0.63101800  1
  Fe  Fe62  1  0.12411159  0.37342901  0.14412133  1
  Fe  Fe63  1  0.37471228  0.37299122  0.38270181  1
  Pb  Pb64  1  0.00370286  0.00511796  -0.00462857  1
  Pb  Pb65  1  0.00580092  -0.00435516  0.25251294  1
  Pb  Pb66  1  0.00844401  -0.00167713  0.50749618  1
  Pb  Pb67  1  0.00390739  -0.00046006  0.74873890  1
  Pb  Pb68  1  0.01095865  0.25052960  0.00358044  1
  Pb  Pb69  1  0.00753787  0.25323757  0.25392208  1
  Pb  Pb70  1  0.00414794  0.25530552  0.50689181  1
  Pb  Pb71  1  0.00743712  0.25855612  0.74501585  1
  Pb  Pb72  1  0.00632865  0.49696377  -0.00458526  1
  Pb  Pb73  1  -0.00444652  0.50295864  0.25469237  1
  Pb  Pb74  1  -0.00286202  0.49369355  0.50344357  1
  Pb  Pb75  1  -0.00291685  0.50505583  0.74514341  1
  Pb  Pb76  1  0.00364652  0.74848799  -0.00581988  1
  Pb  Pb77  1  0.00147256  0.75284979  0.25406046  1
  Pb  Pb78  1  0.00396926  0.75229719  0.50200131  1
  Pb  Pb79  1  0.00565427  0.74492419  0.75090241  1
  Pb  Pb80  1  0.25319060  -0.00316616  -0.00010385  1
  Pb  Pb81  1  0.25286912  0.00449879  0.25393770  1
  Pb  Pb82  1  0.24533541  0.00112159  0.50243505  1
  Pb  Pb83  1  0.25482960  0.00576287  0.74247540  1
  Pb  Pb84  1  0.23963904  0.25131821  0.00681505  1
  Pb  Pb85  1  0.24978704  0.25411659  0.25706130  1
  Pb  Pb86  1  0.24738236  0.25071824  0.49707165  1
  Pb  Pb87  1  0.25042452  0.25003830  0.74166672  1
  Pb  Pb88  1  0.25314169  0.50076790  0.00296015  1
  Pb  Pb89  1  0.25702813  0.49608063  0.25787561  1
  Pb  Pb90  1  0.25238787  0.49682791  0.49227300  1
  Pb  Pb91  1  0.24043294  0.49888939  0.74891934  1
  Pb  Pb92  1  0.25923105  0.74916816  0.00291360  1
  Pb  Pb93  1  0.25422104  0.74967075  0.25093376  1
  Pb  Pb94  1  0.25073859  0.75122284  0.49642598  1
  Pb  Pb95  1  0.24277963  0.75061634  0.75008089  1
  Pb  Pb96  1  0.50105878  -0.01175504  0.00633287  1
  Pb  Pb97  1  0.50085751  -0.00151657  0.25322968  1
  Pb  Pb98  1  0.50589739  -0.00129622  0.50141996  1
  Pb  Pb99  1  0.50054883  0.00077972  0.74182806  1
  Pb  Pb100  1  0.49843840  0.25271417  0.00047237  1
  Pb  Pb101  1  0.48854617  0.24503694  0.25954305  1
  Pb  Pb102  1  0.49547456  0.24409173  0.49959534  1
  Pb  Pb103  1  0.49330132  0.24433878  0.74363658  1
  Pb  Pb104  1  0.49959852  0.51165136  0.00872372  1
  Pb  Pb105  1  0.49886467  0.51083290  0.25578239  1
  Pb  Pb106  1  0.49505117  0.51388841  0.49575937  1
  Pb  Pb107  1  0.50364991  0.50672654  0.74464354  1
  Pb  Pb108  1  0.50782894  0.74854843  0.00640445  1
  Pb  Pb109  1  0.50348378  0.74989899  0.24536765  1
  Pb  Pb110  1  0.50564306  0.74652743  0.49160545  1
  Pb  Pb111  1  0.50789887  0.74991446  0.74589683  1
  Pb  Pb112  1  0.74475176  -0.00658189  -0.00002160  1
  Pb  Pb113  1  0.74750406  -0.00443659  0.25372092  1
  Pb  Pb114  1  0.74359518  -0.00197852  0.50647136  1
  Pb  Pb115  1  0.74847486  0.00080244  0.74804364  1
  Pb  Pb116  1  0.74992841  0.25178884  -0.00272760  1
  Pb  Pb117  1  0.75227653  0.25045715  0.25223830  1
  Pb  Pb118  1  0.75225162  0.25081683  0.50549421  1
  Pb  Pb119  1  0.75612289  0.24691150  0.74926360  1
  Pb  Pb120  1  0.74400290  0.50658472  0.00013398  1
  Pb  Pb121  1  0.75424944  0.51236268  0.25865478  1
  Pb  Pb122  1  0.75148798  0.51077920  0.50303193  1
  Pb  Pb123  1  0.75496254  0.51350562  0.74488476  1
  Pb  Pb124  1  0.74152401  0.74689912  0.00020715  1
  Pb  Pb125  1  0.74084347  0.74886491  0.25453483  1
  Pb  Pb126  1  0.74244559  0.74328181  0.49922791  1
  Pb  Pb127  1  0.73910499  0.74636147  0.74732615  1
  O  O128  1  0.12209062  -0.00111425  0.16630251  1
  O  O129  1  0.11968521  0.00448217  0.41460228  1
  O  O130  1  0.12322316  0.00138165  0.66501734  1
  O  O131  1  0.12678121  0.00379303  0.91051461  1
  O  O132  1  0.12297273  0.24743789  0.17084218  1
  O  O133  1  0.11974040  0.24246661  0.41200847  1
  O  O134  1  0.12690915  0.24979571  0.66086116  1
  O  O135  1  0.12686468  0.24688882  0.91470964  1
  O  O136  1  0.12021480  0.50526191  0.16319394  1
  O  O137  1  0.12208284  0.50550516  0.40861559  1
  O  O138  1  0.12744647  0.50579831  0.65802137  1
  O  O139  1  0.12760661  0.49850612  0.91658586  1
  O  O140  1  0.12049389  0.74661341  0.16623946  1
  O  O141  1  0.12120547  0.74558906  0.41286710  1
  O  O142  1  0.12434771  0.74610561  0.66195906  1
  O  O143  1  0.12739675  0.75072771  0.91736082  1
  O  O144  1  0.37465703  0.00740416  0.16625574  1
  O  O145  1  0.37341026  -0.00699129  0.41516109  1
  O  O146  1  0.37532383  -0.00687278  0.65603570  1
  O  O147  1  0.37523875  -0.00272157  0.91231556  1
  O  O148  1  0.37696395  0.24607983  0.16806933  1
  O  O149  1  0.37681312  0.25025708  0.41536164  1
  O  O150  1  0.37729337  0.25927115  0.65525999  1
  O  O151  1  0.37923836  0.25637053  0.91440722  1
  O  O152  1  0.37336160  0.49293812  0.16645983  1
  O  O153  1  0.37458849  0.49836306  0.40871085  1
  O  O154  1  0.37514086  0.49567640  0.66097058  1
  O  O155  1  0.37634790  0.49842300  0.91713549  1
  O  O156  1  0.37093125  0.75158629  0.16557430  1
  O  O157  1  0.37249741  0.75761841  0.40705995  1
  O  O158  1  0.37363527  0.75465253  0.65887985  1
  O  O159  1  0.37511223  0.74738652  0.91370468  1
  O  O160  1  0.62810730  0.00809069  0.16916249  1
  O  O161  1  0.63022023  0.00616238  0.41387184  1
  O  O162  1  0.62598575  0.00135425  0.66234115  1
  O  O163  1  0.62329494  0.00561750  0.91116632  1
  O  O164  1  0.62672023  0.24934306  0.17331775  1
  O  O165  1  0.63093954  0.24838075  0.41656060  1
  O  O166  1  0.62147397  0.25702453  0.66007164  1
  O  O167  1  0.62231536  0.25009482  0.91701842  1
  O  O168  1  0.62640110  0.49117205  0.16884048  1
  O  O169  1  0.63104817  0.48956446  0.40612436  1
  O  O170  1  0.62216213  0.49233096  0.66026361  1
  O  O171  1  0.62344801  0.49547232  0.91624638  1
  O  O172  1  0.62895738  0.75139133  0.16436595  1
  O  O173  1  0.62901420  0.75242448  0.40842089  1
  O  O174  1  0.62522394  0.75227454  0.65972559  1
  O  O175  1  0.62264853  0.74983960  0.91867804  1
  O  O176  1  0.87605692  -0.00336108  0.16321392  1
  O  O177  1  0.87553028  0.00465932  0.41709008  1
  O  O178  1  0.87438626  0.00286250  0.66362172  1
  O  O179  1  0.87429710  -0.00296445  0.91424985  1
  O  O180  1  0.87299301  0.25246198  0.16345243  1
  O  O181  1  0.87416617  0.24441036  0.41842485  1
  O  O182  1  0.87285986  0.24577757  0.66359667  1
  O  O183  1  0.87043621  0.25479278  0.91454326  1
  O  O184  1  0.87534145  0.49596719  0.16517837  1
  O  O185  1  0.87470040  0.49050201  0.41238525  1
  O  O186  1  0.87527331  0.49997171  0.65990469  1
  O  O187  1  0.87279050  0.48895943  0.91349094  1
  O  O188  1  0.87785257  0.75415185  0.16291559  1
  O  O189  1  0.87720310  0.75777394  0.40872264  1
  O  O190  1  0.87762378  0.75501445  0.65486729  1
  O  O191  1  0.87475981  0.75783742  0.91129143  1
  O  O192  1  -0.00748425  0.12524005  0.16464134  1
  O  O193  1  -0.00426312  0.12468857  0.41659345  1
  O  O194  1  -0.00585721  0.12609704  0.66272755  1
  O  O195  1  0.00566461  0.12556573  0.91097317  1
  O  O196  1  -0.00976537  0.37402043  0.16622604  1
  O  O197  1  -0.00688119  0.36987090  0.41345306  1
  O  O198  1  -0.00031493  0.37458169  0.66100403  1
  O  O199  1  -0.00620279  0.37144410  0.90728410  1
  O  O200  1  0.00048525  0.62452888  0.16892340  1
  O  O201  1  0.00551815  0.62459457  0.41536489  1
  O  O202  1  0.00645216  0.62527575  0.65840703  1
  O  O203  1  -0.00193092  0.62341310  0.91682935  1
  O  O204  1  -0.00364818  0.87519390  0.16666651  1
  O  O205  1  -0.00759401  0.87959218  0.41733413  1
  O  O206  1  -0.00838893  0.87847686  0.66484058  1
  O  O207  1  -0.00455513  0.87771904  0.91092663  1
  O  O208  1  0.25567746  0.12629912  0.16359707  1
  O  O209  1  0.24135858  0.12295263  0.40965718  1
  O  O210  1  0.25324326  0.12541760  0.65904090  1
  O  O211  1  0.24716111  0.12618812  0.91392443  1
  O  O212  1  0.25589001  0.37079100  0.16595274  1
  O  O213  1  0.24782261  0.37233315  0.41006575  1
  O  O214  1  0.25747633  0.37729443  0.65621302  1
  O  O215  1  0.25952271  0.37484553  0.91534027  1
  O  O216  1  0.23948848  0.62419706  0.16429729  1
  O  O217  1  0.24103804  0.62671495  0.40934739  1
  O  O218  1  0.24587462  0.62658395  0.66006347  1
  O  O219  1  0.25772480  0.62260987  0.91730654  1
  O  O220  1  0.24536935  0.87754056  0.16659474  1
  O  O221  1  0.25256135  0.87644099  0.41124324  1
  O  O222  1  0.25606791  0.87452019  0.66013272  1
  O  O223  1  0.25625937  0.87462487  0.91436565  1
  O  O224  1  0.49883865  0.12625748  0.16733509  1
  O  O225  1  0.50955474  0.12485675  0.41145507  1
  O  O226  1  0.49903203  0.12649764  0.65976036  1
  O  O227  1  0.50541034  0.12718847  0.91639413  1
  O  O228  1  0.49774648  0.37084269  0.17042723  1
  O  O229  1  0.51036809  0.36837109  0.40600566  1
  O  O230  1  0.49792363  0.37738126  0.66019556  1
  O  O231  1  0.49762478  0.37626722  0.91865090  1
  O  O232  1  0.50007255  0.62153629  0.16658257  1
  O  O233  1  0.50068714  0.62448348  0.40492526  1
  O  O234  1  0.49799148  0.62385633  0.66112456  1
  O  O235  1  0.49350960  0.62293846  0.91704757  1
  O  O236  1  0.49899233  0.87993173  0.16619160  1
  O  O237  1  0.49451342  0.87799830  0.40662648  1
  O  O238  1  0.49271635  0.87477404  0.65736793  1
  O  O239  1  0.49403217  0.87439050  0.91671293  1
  O  O240  1  0.75288919  0.12642587  0.16676758  1
  O  O241  1  0.75422201  0.12546224  0.41807478  1
  O  O242  1  0.75312103  0.12643434  0.66392342  1
  O  O243  1  0.74074783  0.12734099  0.91562116  1
  O  O244  1  0.75443406  0.37241430  0.16774832  1
  O  O245  1  0.75109185  0.36775955  0.41727992  1
  O  O246  1  0.74278343  0.37331251  0.65573590  1
  O  O247  1  0.74832754  0.37247033  0.91446324  1
  O  O248  1  0.75736602  0.62297269  0.16621242  1
  O  O249  1  0.75158328  0.62279120  0.41353305  1
  O  O250  1  0.74868476  0.62481923  0.65767821  1
  O  O251  1  0.75175781  0.62367630  0.91765553  1
  O  O252  1  0.75909310  0.87683014  0.16415402  1
  O  O253  1  0.75980883  0.88104738  0.41449696  1
  O  O254  1  0.75904319  0.87827194  0.66014235  1
  O  O255  1  0.75462825  0.87742638  0.91368047  1
  O  O256  1  0.12232133  0.13172715  0.03672064  1
  O  O257  1  0.11787841  0.12229251  0.30031184  1
  O  O258  1  0.12469559  0.12072532  0.53068128  1
  O  O259  1  0.12950983  0.12775809  0.79783960  1
  O  O260  1  0.12367782  0.36423546  0.04257361  1
  O  O261  1  0.11965324  0.36925490  0.28468322  1
  O  O262  1  0.11957862  0.37311524  0.52967355  1
  O  O263  1  0.13292806  0.37677090  0.78441990  1
  O  O264  1  0.12180482  0.62476900  0.04954049  1
  O  O265  1  0.11873158  0.62580471  0.29444166  1
  O  O266  1  0.12683150  0.62831596  0.54441859  1
  O  O267  1  0.12721905  0.62803248  0.78537776  1
  O  O268  1  0.12441162  0.87509394  0.05095570  1
  O  O269  1  0.11409852  0.87538967  0.28803447  1
  O  O270  1  0.11948925  0.87565818  0.53680218  1
  O  O271  1  0.12386905  0.86628872  0.78151213  1
  O  O272  1  0.37641993  0.12588733  0.05116113  1
  O  O273  1  0.37637831  0.12262988  0.29320799  1
  O  O274  1  0.37675349  0.12435941  0.52496511  1
  O  O275  1  0.37822036  0.12777992  0.78565216  1
  O  O276  1  0.37896940  0.37143516  0.05652221  1
  O  O277  1  0.37105560  0.36901262  0.28128390  1
  O  O278  1  0.37835561  0.38167061  0.54096042  1
  O  O279  1  0.37721363  0.37775092  0.79977859  1
  O  O280  1  0.37211227  0.61917557  0.04143895  1
  O  O281  1  0.36589917  0.61918928  0.28160660  1
  O  O282  1  0.37633276  0.62301837  0.52871378  1
  O  O283  1  0.37449490  0.62415516  0.80137302  1
  O  O284  1  0.37227075  0.88102375  0.03560297  1
  O  O285  1  0.37039873  0.88228748  0.29361678  1
  O  O286  1  0.37226972  0.87012543  0.54081934  1
  O  O287  1  0.37664739  0.87472044  0.80087871  1
  O  O288  1  0.62431439  0.12808601  0.05013706  1
  O  O289  1  0.63305477  0.12767701  0.30345091  1
  O  O290  1  0.62678207  0.12271826  0.53105256  1
  O  O291  1  0.62212167  0.12758254  0.79791702  1
  O  O292  1  0.62300109  0.37152031  0.05418588  1
  O  O293  1  0.63243637  0.36827973  0.29611665  1
  O  O294  1  0.62268698  0.37553701  0.54298782  1
  O  O295  1  0.62203907  0.37383551  0.79674413  1
  O  O296  1  0.62510354  0.62013473  0.04117611  1
  O  O297  1  0.63307105  0.62279289  0.28099403  1
  O  O298  1  0.62394979  0.62443998  0.52872644  1
  O  O299  1  0.62502098  0.62757260  0.78665896  1
  O  O300  1  0.62449307  0.88353175  0.03920104  1
  O  O301  1  0.63500616  0.88173952  0.28531702  1
  O  O302  1  0.62617202  0.88198958  0.53058152  1
  O  O303  1  0.62328956  0.86898153  0.78551932  1
  O  O304  1  0.87389186  0.12441951  0.04614231  1
  O  O305  1  0.87639856  0.12396693  0.30287273  1
  O  O306  1  0.87379394  0.12431753  0.55033853  1
  O  O307  1  0.86585808  0.12702649  0.78616967  1
  O  O308  1  0.87260334  0.37461024  0.04971616  1
  O  O309  1  0.87053536  0.36868294  0.30399509  1
  O  O310  1  0.87903200  0.37062235  0.53085272  1
  O  O311  1  0.87062341  0.37234506  0.79546197  1
  O  O312  1  0.87793189  0.62366704  0.05038732  1
  O  O313  1  0.87770042  0.61723146  0.29021601  1
  O  O314  1  0.87393193  0.62106384  0.52804437  1
  O  O315  1  0.87561236  0.61822121  0.78413395  1
  O  O316  1  0.87550219  0.87598892  0.04830075  1
  O  O317  1  0.87614143  0.87943407  0.29803624  1
  O  O318  1  0.87746470  0.87577543  0.54454775  1
  O  O319  1  0.87335893  0.87638031  0.79586780  1
