# generated using pymatgen
data_VFe(PbO3)2
_symmetry_space_group_name_H-M   'P 1'
_cell_length_a   15.37558588
_cell_length_b   15.36604733
_cell_length_c   18.56843824
_cell_angle_alpha   89.96737707
_cell_angle_beta   89.97359199
_cell_angle_gamma   90.01565966
_symmetry_Int_Tables_number   1
_chemical_formula_structural   VFe(PbO3)2
_chemical_formula_sum   'V32 Fe32 Pb64 O192'
_cell_volume   4387.01464804
_cell_formula_units_Z   32
loop_
 _symmetry_equiv_pos_site_id
 _symmetry_equiv_pos_as_xyz
  1  'x, y, z'
loop_
 _atom_site_type_symbol
 _atom_site_label
 _atom_site_symmetry_multiplicity
 _atom_site_fract_x
 _atom_site_fract_y
 _atom_site_fract_z
 _atom_site_occupancy
  V  V0  1  0.62446259  0.62501857  0.89219443  1
  V  V1  1  0.87463102  0.12566937  0.89012594  1
  V  V2  1  0.87548709  0.37560585  0.89046757  1
  V  V3  1  0.12531306  0.62411607  0.88819167  1
  V  V4  1  0.12825707  0.12386742  0.38391948  1
  V  V5  1  0.62103075  0.62562607  0.38819687  1
  V  V6  1  0.37378359  0.62640169  0.38851388  1
  V  V7  1  0.62328347  0.87473746  0.13623743  1
  V  V8  1  0.62406972  0.12545901  0.64150115  1
  V  V9  1  0.62560208  0.87431725  0.38740375  1
  V  V10  1  0.37840234  0.62139106  0.64368114  1
  V  V11  1  0.87497597  0.87393621  0.89067369  1
  V  V12  1  0.62197423  0.12266610  0.89394481  1
  V  V13  1  0.37711024  0.12692628  0.64449197  1
  V  V14  1  0.37556338  0.87736136  0.64023106  1
  V  V15  1  0.12546357  0.37404191  0.14208288  1
  V  V16  1  0.37074355  0.12310993  0.14029604  1
  V  V17  1  0.12061564  0.62718851  0.39520480  1
  V  V18  1  0.62421651  0.87369829  0.64398473  1
  V  V19  1  0.12511936  0.62380334  0.13975496  1
  V  V20  1  0.37570042  0.87358354  0.89216923  1
  V  V21  1  0.62230527  0.12564456  0.38264847  1
  V  V22  1  0.12585728  0.87460231  0.13934188  1
  V  V23  1  0.12330339  0.87379312  0.88684153  1
  V  V24  1  0.87497144  0.37625389  0.14004883  1
  V  V25  1  0.37467397  0.37521594  0.88894751  1
  V  V26  1  0.87695392  0.36952524  0.63639751  1
  V  V27  1  0.12406707  0.12530989  0.63702761  1
  V  V28  1  0.62516943  0.37644149  0.64142822  1
  V  V29  1  0.37335430  0.62542415  0.13809458  1
  V  V30  1  0.62492697  0.12519217  0.13822175  1
  V  V31  1  0.37676302  0.87305038  0.39091022  1
  Fe  Fe32  1  0.87152549  0.12726735  0.63581187  1
  Fe  Fe33  1  0.12552760  0.37492524  0.38653334  1
  Fe  Fe34  1  0.62618058  0.62704924  0.13211352  1
  Fe  Fe35  1  0.62558025  0.37479605  0.37707419  1
  Fe  Fe36  1  0.37286669  0.37698785  0.14004702  1
  Fe  Fe37  1  0.62445358  0.37528743  0.13250807  1
  Fe  Fe38  1  0.87448142  0.87403358  0.38436211  1
  Fe  Fe39  1  0.87210607  0.37600554  0.38119940  1
  Fe  Fe40  1  0.87528365  0.87432526  0.13880137  1
  Fe  Fe41  1  0.37532834  0.12559354  0.88419372  1
  Fe  Fe42  1  0.37521441  0.12225769  0.38194617  1
  Fe  Fe43  1  0.37676532  0.37476264  0.38072053  1
  Fe  Fe44  1  0.62855382  0.87664204  0.88566432  1
  Fe  Fe45  1  0.87793510  0.62486350  0.13638716  1
  Fe  Fe46  1  0.37430902  0.62456388  0.88438240  1
  Fe  Fe47  1  0.12457787  0.62407066  0.62819213  1
  Fe  Fe48  1  0.87009508  0.62424014  0.63200903  1
  Fe  Fe49  1  0.87588945  0.62480960  0.88622620  1
  Fe  Fe50  1  0.62840439  0.37263774  0.89847851  1
  Fe  Fe51  1  0.12717512  0.87496208  0.39383528  1
  Fe  Fe52  1  0.37864599  0.37195491  0.63560343  1
  Fe  Fe53  1  0.12885233  0.87572588  0.63019943  1
  Fe  Fe54  1  0.87497003  0.88008917  0.63272183  1
  Fe  Fe55  1  0.87229821  0.62666655  0.38806267  1
  Fe  Fe56  1  0.87508850  0.12430256  0.37812306  1
  Fe  Fe57  1  0.37350536  0.87374146  0.13378915  1
  Fe  Fe58  1  0.12566218  0.12556625  0.13302427  1
  Fe  Fe59  1  0.62365582  0.62439192  0.63439153  1
  Fe  Fe60  1  0.12799980  0.37365524  0.63273593  1
  Fe  Fe61  1  0.87747505  0.12470295  0.14350598  1
  Fe  Fe62  1  0.12452913  0.12434738  0.89249136  1
  Fe  Fe63  1  0.12181555  0.37654962  0.88433694  1
  Pb  Pb64  1  -0.00757029  -0.00143419  0.00513720  1
  Pb  Pb65  1  -0.00453561  -0.00097859  0.24962562  1
  Pb  Pb66  1  -0.00769530  -0.00235498  0.49506407  1
  Pb  Pb67  1  -0.00006158  -0.00100060  0.74294261  1
  Pb  Pb68  1  0.00436860  0.24154708  0.00230885  1
  Pb  Pb69  1  -0.00153922  0.25166814  0.25099020  1
  Pb  Pb70  1  -0.00068977  0.25074076  0.49062920  1
  Pb  Pb71  1  0.01572237  0.24659126  0.75577553  1
  Pb  Pb72  1  -0.00519871  0.50568906  -0.00003795  1
  Pb  Pb73  1  -0.00024550  0.49331684  0.25581666  1
  Pb  Pb74  1  0.00041621  0.49723598  0.49713267  1
  Pb  Pb75  1  0.00011290  0.50165578  0.74113747  1
  Pb  Pb76  1  -0.00858380  0.75027822  0.00270377  1
  Pb  Pb77  1  -0.00752048  0.75179119  0.25455369  1
  Pb  Pb78  1  -0.01198911  0.75803432  0.50161309  1
  Pb  Pb79  1  -0.00207990  0.74717820  0.73588430  1
  Pb  Pb80  1  0.24787728  0.00134461  -0.00147538  1
  Pb  Pb81  1  0.24221802  -0.00621152  0.25241540  1
  Pb  Pb82  1  0.24570314  -0.00052878  0.50077062  1
  Pb  Pb83  1  0.25068147  0.01029650  0.75356908  1
  Pb  Pb84  1  0.24549316  0.24616140  -0.00223730  1
  Pb  Pb85  1  0.25889728  0.25102441  0.25292229  1
  Pb  Pb86  1  0.25524376  0.25877060  0.49463206  1
  Pb  Pb87  1  0.24826657  0.24714763  0.75195605  1
  Pb  Pb88  1  0.25747675  0.49376320  0.00014696  1
  Pb  Pb89  1  0.24627969  0.49337583  0.25481357  1
  Pb  Pb90  1  0.24249831  0.49327240  0.50334972  1
  Pb  Pb91  1  0.24379999  0.49198442  0.74516714  1
  Pb  Pb92  1  0.25194743  0.75389204  -0.00066277  1
  Pb  Pb93  1  0.23943588  0.75360698  0.25396282  1
  Pb  Pb94  1  0.24445863  0.74791880  0.50624143  1
  Pb  Pb95  1  0.25103427  0.74737285  0.74514460  1
  Pb  Pb96  1  0.49556459  -0.00624561  0.00137856  1
  Pb  Pb97  1  0.49527648  0.00599393  0.24818695  1
  Pb  Pb98  1  0.50247221  -0.00130850  0.49838811  1
  Pb  Pb99  1  0.49964814  -0.00035516  0.75542074  1
  Pb  Pb100  1  0.49780576  0.26064577  0.00578867  1
  Pb  Pb101  1  0.49658195  0.25451476  0.24808744  1
  Pb  Pb102  1  0.49338050  0.25520861  0.49437833  1
  Pb  Pb103  1  0.50499134  0.25521419  0.75675420  1
  Pb  Pb104  1  0.50069114  0.49254959  0.00528645  1
  Pb  Pb105  1  0.50622013  0.48994765  0.24469012  1
  Pb  Pb106  1  0.49693373  0.49271417  0.49656994  1
  Pb  Pb107  1  0.49969126  0.50144569  0.75548939  1
  Pb  Pb108  1  0.50542324  0.74564442  -0.00012305  1
  Pb  Pb109  1  0.49845356  0.75036876  0.24527520  1
  Pb  Pb110  1  0.50481711  0.74399059  0.50518168  1
  Pb  Pb111  1  0.49765450  0.74738610  0.75484945  1
  Pb  Pb112  1  0.76221164  -0.00092810  0.00724712  1
  Pb  Pb113  1  0.75767104  -0.00276103  0.24989891  1
  Pb  Pb114  1  0.76136116  0.00197174  0.49993617  1
  Pb  Pb115  1  0.74589538  -0.00315626  0.75181391  1
  Pb  Pb116  1  0.75692468  0.24319241  0.00510683  1
  Pb  Pb117  1  0.75413570  0.25611432  0.25048919  1
  Pb  Pb118  1  0.75503745  0.24733225  0.49242787  1
  Pb  Pb119  1  0.74414428  0.25735600  0.75586933  1
  Pb  Pb120  1  0.74647540  0.50652024  0.00344204  1
  Pb  Pb121  1  0.75064293  0.50094924  0.24459772  1
  Pb  Pb122  1  0.75241555  0.50404167  0.49494770  1
  Pb  Pb123  1  0.75251153  0.50391580  0.75170364  1
  Pb  Pb124  1  0.75148388  0.74286016  0.00349575  1
  Pb  Pb125  1  0.76364719  0.74294504  0.25055714  1
  Pb  Pb126  1  0.75353191  0.74571515  0.50307410  1
  Pb  Pb127  1  0.75836736  0.74292718  0.74890138  1
  O  O128  1  0.12926740  -0.00649154  0.16004055  1
  O  O129  1  0.13008709  0.00672683  0.41417877  1
  O  O130  1  0.12855157  0.00761798  0.66140435  1
  O  O131  1  0.12524563  -0.00765768  0.91399231  1
  O  O132  1  0.12517122  0.25755156  0.16135109  1
  O  O133  1  0.12680552  0.24212068  0.40856003  1
  O  O134  1  0.12662749  0.24471687  0.66327372  1
  O  O135  1  0.12335711  0.25405325  0.91805967  1
  O  O136  1  0.12500828  0.49949596  0.16771515  1
  O  O137  1  0.13045848  0.50795926  0.41403804  1
  O  O138  1  0.12548534  0.49997236  0.66251687  1
  O  O139  1  0.12364293  0.50617052  0.91201812  1
  O  O140  1  0.12796511  0.75058769  0.16497941  1
  O  O141  1  0.13299764  0.74375283  0.41746888  1
  O  O142  1  0.12948474  0.74859397  0.65858654  1
  O  O143  1  0.12375161  0.74891619  0.91524327  1
  O  O144  1  0.37436807  0.00385026  0.16250863  1
  O  O145  1  0.37746812  -0.00737340  0.41250823  1
  O  O146  1  0.37718690  0.00117881  0.66991687  1
  O  O147  1  0.37369794  -0.00654572  0.91366552  1
  O  O148  1  0.37439903  0.24366774  0.16188398  1
  O  O149  1  0.37841788  0.24718515  0.41123794  1
  O  O150  1  0.37915983  0.24591270  0.66736354  1
  O  O151  1  0.37666969  0.25649410  0.91047311  1
  O  O152  1  0.37069320  0.50956928  0.16457288  1
  O  O153  1  0.38211100  0.50958573  0.40796768  1
  O  O154  1  0.38220330  0.50387873  0.66386129  1
  O  O155  1  0.37549193  0.49724388  0.91448815  1
  O  O156  1  0.37035694  0.74409392  0.16353954  1
  O  O157  1  0.37960210  0.75044686  0.41786684  1
  O  O158  1  0.37961321  0.75069905  0.66657348  1
  O  O159  1  0.37449363  0.75307655  0.91508723  1
  O  O160  1  0.61968430  -0.00034889  0.16327342  1
  O  O161  1  0.61941875  -0.00588776  0.41159556  1
  O  O162  1  0.62168180  0.00462828  0.66676451  1
  O  O163  1  0.62719586  0.00500010  0.91860893  1
  O  O164  1  0.62278347  0.24252583  0.15805884  1
  O  O165  1  0.62196111  0.24121004  0.40153272  1
  O  O166  1  0.62296874  0.24856562  0.66788311  1
  O  O167  1  0.62652019  0.23928478  0.92138037  1
  O  O168  1  0.62454701  0.50151561  0.15854388  1
  O  O169  1  0.62076571  0.50942808  0.40449256  1
  O  O170  1  0.62378570  0.49313770  0.66272434  1
  O  O171  1  0.62727486  0.50567042  0.91465081  1
  O  O172  1  0.61974276  0.75785224  0.15860522  1
  O  O173  1  0.61803584  0.75517081  0.41528935  1
  O  O174  1  0.62166858  0.75757477  0.66122854  1
  O  O175  1  0.62602039  0.74803062  0.91414740  1
  O  O176  1  0.87499448  -0.00242684  0.16720123  1
  O  O177  1  0.87155167  0.00099890  0.41013933  1
  O  O178  1  0.87297582  0.00410985  0.66778291  1
  O  O179  1  0.87626378  -0.00228889  0.91612017  1
  O  O180  1  0.87708084  0.25653022  0.16252622  1
  O  O181  1  0.87228796  0.24705167  0.41043647  1
  O  O182  1  0.86864981  0.25540158  0.66542968  1
  O  O183  1  0.87469520  0.25097479  0.91656839  1
  O  O184  1  0.87851190  0.49494529  0.16268994  1
  O  O185  1  0.87133763  0.50164829  0.41284268  1
  O  O186  1  0.86740566  0.48768673  0.66165605  1
  O  O187  1  0.87461866  0.49519129  0.91275671  1
  O  O188  1  0.87849012  0.75040147  0.16426273  1
  O  O189  1  0.87182697  0.75097092  0.41708630  1
  O  O190  1  0.87038400  0.75350997  0.65950088  1
  O  O191  1  0.87705859  0.75504917  0.91202350  1
  O  O192  1  0.00420611  0.12457053  0.16522360  1
  O  O193  1  0.00722695  0.12312218  0.40428300  1
  O  O194  1  0.00564451  0.12696800  0.65851947  1
  O  O195  1  -0.00566839  0.12424211  0.91610108  1
  O  O196  1  0.00203398  0.37704636  0.16526476  1
  O  O197  1  -0.00062196  0.37626011  0.41392624  1
  O  O198  1  -0.00739656  0.37306738  0.65442943  1
  O  O199  1  -0.00777545  0.37512167  0.91589654  1
  O  O200  1  0.00860491  0.62488660  0.16532855  1
  O  O201  1  0.00476921  0.62670550  0.41077346  1
  O  O202  1  -0.00302216  0.62195258  0.65523952  1
  O  O203  1  0.00554013  0.62655470  0.91428561  1
  O  O204  1  0.00982294  0.87371287  0.16275083  1
  O  O205  1  0.00118849  0.87414105  0.41307357  1
  O  O206  1  0.00300256  0.87868520  0.65963385  1
  O  O207  1  -0.00267106  0.87503662  0.91526373  1
  O  O208  1  0.25382103  0.12525041  0.16131623  1
  O  O209  1  0.24718281  0.12435043  0.41143025  1
  O  O210  1  0.24884896  0.12571995  0.66557030  1
  O  O211  1  0.25301872  0.12466248  0.91707289  1
  O  O212  1  0.24424904  0.37783648  0.16424399  1
  O  O213  1  0.25251086  0.37661439  0.41049994  1
  O  O214  1  0.25380437  0.37447715  0.66261890  1
  O  O215  1  0.25501532  0.37776559  0.90988403  1
  O  O216  1  0.24722325  0.62452604  0.16745266  1
  O  O217  1  0.26006596  0.62785489  0.41231529  1
  O  O218  1  0.26004705  0.62457230  0.66230165  1
  O  O219  1  0.24370653  0.62697740  0.91186480  1
  O  O220  1  0.24649447  0.87300347  0.16602949  1
  O  O221  1  0.26136083  0.87219493  0.41617412  1
  O  O222  1  0.25607235  0.87689837  0.66545461  1
  O  O223  1  0.25074217  0.87191197  0.91356892  1
  O  O224  1  0.49937311  0.12319985  0.16281793  1
  O  O225  1  0.50601909  0.11806521  0.41254927  1
  O  O226  1  0.50559912  0.12538163  0.66981419  1
  O  O227  1  0.50391178  0.12181953  0.91364074  1
  O  O228  1  0.49881243  0.37424602  0.16064030  1
  O  O229  1  0.50275400  0.37624792  0.41139865  1
  O  O230  1  0.50713089  0.37204414  0.66889031  1
  O  O231  1  0.49512644  0.37613041  0.91662759  1
  O  O232  1  0.49162733  0.62785961  0.15778174  1
  O  O233  1  0.49979726  0.63118751  0.41648288  1
  O  O234  1  0.49920006  0.62663647  0.67034923  1
  O  O235  1  0.50473088  0.62654362  0.91331230  1
  O  O236  1  0.50147546  0.87654430  0.16309085  1
  O  O237  1  0.49822752  0.87417908  0.41847053  1
  O  O238  1  0.50103309  0.87957175  0.67083536  1
  O  O239  1  0.49630492  0.87502062  0.91296132  1
  O  O240  1  0.74029228  0.12232963  0.16225080  1
  O  O241  1  0.73836281  0.11919171  0.40693986  1
  O  O242  1  0.73962137  0.12675426  0.66671778  1
  O  O243  1  0.75102626  0.12348578  0.91866089  1
  O  O244  1  0.75545224  0.37457544  0.15625454  1
  O  O245  1  0.74565644  0.37423771  0.41163621  1
  O  O246  1  0.74400490  0.37037788  0.66667732  1
  O  O247  1  0.75885028  0.37278931  0.91940261  1
  O  O248  1  0.75092231  0.62618427  0.16158010  1
  O  O249  1  0.73761938  0.63215155  0.40910903  1
  O  O250  1  0.74583483  0.62318875  0.66793155  1
  O  O251  1  0.74700050  0.62705783  0.91513311  1
  O  O252  1  0.73958404  0.87833215  0.15765385  1
  O  O253  1  0.73944499  0.87377950  0.40776914  1
  O  O254  1  0.74116221  0.88186350  0.66254166  1
  O  O255  1  0.75766556  0.87616137  0.91317065  1
  O  O256  1  0.12673633  0.12980213  0.03281703  1
  O  O257  1  0.13218238  0.12055438  0.29276093  1
  O  O258  1  0.12941408  0.12585714  0.54674040  1
  O  O259  1  0.12488290  0.13280043  0.79179592  1
  O  O260  1  0.12356267  0.37942159  0.05132186  1
  O  O261  1  0.12199714  0.38209569  0.28632800  1
  O  O262  1  0.12869749  0.37777994  0.53228154  1
  O  O263  1  0.11903615  0.37157651  0.78470595  1
  O  O264  1  0.12668660  0.62284907  0.04909430  1
  O  O265  1  0.12848885  0.62826340  0.30405873  1
  O  O266  1  0.13578522  0.62073680  0.52863535  1
  O  O267  1  0.12366067  0.62557815  0.79755041  1
  O  O268  1  0.12782937  0.87061086  0.04846336  1
  O  O269  1  0.13563560  0.87519111  0.29348426  1
  O  O270  1  0.13672153  0.87797899  0.52989951  1
  O  O271  1  0.12367319  0.87314500  0.79639982  1
  O  O272  1  0.37445081  0.12260577  0.04918049  1
  O  O273  1  0.37716442  0.12586035  0.28294882  1
  O  O274  1  0.37784234  0.12371452  0.55357373  1
  O  O275  1  0.37021364  0.12073530  0.78502767  1
  O  O276  1  0.37415347  0.38162694  0.03954455  1
  O  O277  1  0.37355914  0.37079093  0.27933136  1
  O  O278  1  0.38556611  0.37159554  0.53599255  1
  O  O279  1  0.37971015  0.37843205  0.79781435  1
  O  O280  1  0.36795215  0.62450780  0.04689793  1
  O  O281  1  0.37702877  0.63170092  0.29815024  1
  O  O282  1  0.38266262  0.62540931  0.55285940  1
  O  O283  1  0.38091054  0.62722175  0.78572875  1
  O  O284  1  0.37125793  0.87579690  0.03509035  1
  O  O285  1  0.37821894  0.86962764  0.29999389  1
  O  O286  1  0.37887387  0.87823307  0.54955945  1
  O  O287  1  0.37440717  0.87301106  0.80122141  1
  O  O288  1  0.62314903  0.12142485  0.04764971  1
  O  O289  1  0.61980650  0.11986874  0.29172651  1
  O  O290  1  0.62222541  0.12610942  0.55114383  1
  O  O291  1  0.62618493  0.12472175  0.80278999  1
  O  O292  1  0.61713167  0.37466607  0.02984643  1
  O  O293  1  0.62581486  0.37611461  0.27691071  1
  O  O294  1  0.62555620  0.37308548  0.55096547  1
  O  O295  1  0.62700230  0.36515059  0.79824339  1
  O  O296  1  0.63007922  0.63181857  0.03226311  1
  O  O297  1  0.61630452  0.63354275  0.29750221  1
  O  O298  1  0.62252938  0.63018808  0.53554717  1
  O  O299  1  0.62524962  0.62481866  0.80071627  1
  O  O300  1  0.61994344  0.87734653  0.04495375  1
  O  O301  1  0.61972007  0.87214084  0.29696203  1
  O  O302  1  0.61935747  0.88080750  0.55330100  1
  O  O303  1  0.62788193  0.88324082  0.78701646  1
  O  O304  1  0.87072016  0.12014805  0.04212447  1
  O  O305  1  0.87042424  0.12551254  0.27757408  1
  O  O306  1  0.86467176  0.12378018  0.53648743  1
  O  O307  1  0.87399078  0.12647708  0.79948755  1
  O  O308  1  0.88069084  0.37713702  0.04947562  1
  O  O309  1  0.87501797  0.37279930  0.28064570  1
  O  O310  1  0.86862421  0.36764958  0.54547864  1
  O  O311  1  0.87415639  0.37220443  0.79965414  1
  O  O312  1  0.88009703  0.62589422  0.03489885  1
  O  O313  1  0.87269676  0.63365673  0.28693071  1
  O  O314  1  0.86160396  0.62530859  0.53155776  1
  O  O315  1  0.86941133  0.62447304  0.78673628  1
  O  O316  1  0.88079241  0.87978314  0.03775535  1
  O  O317  1  0.87388716  0.87034116  0.28279858  1
  O  O318  1  0.87297915  0.88238127  0.53227858  1
  O  O319  1  0.87744923  0.87769228  0.79994621  1
