# generated using pymatgen
data_VFe(PbO3)2
_symmetry_space_group_name_H-M   'P 1'
_cell_length_a   15.37790991
_cell_length_b   15.37632021
_cell_length_c   18.48865555
_cell_angle_alpha   89.95922773
_cell_angle_beta   90.00453648
_cell_angle_gamma   90.00106021
_symmetry_Int_Tables_number   1
_chemical_formula_structural   VFe(PbO3)2
_chemical_formula_sum   'V32 Fe32 Pb64 O192'
_cell_volume   4371.74625816
_cell_formula_units_Z   32
loop_
 _symmetry_equiv_pos_site_id
 _symmetry_equiv_pos_as_xyz
  1  'x, y, z'
loop_
 _atom_site_type_symbol
 _atom_site_label
 _atom_site_symmetry_multiplicity
 _atom_site_fract_x
 _atom_site_fract_y
 _atom_site_fract_z
 _atom_site_occupancy
  V  V0  1  0.12575327  0.87496767  0.89399377  1
  V  V1  1  0.12346954  0.62285355  0.38217123  1
  V  V2  1  0.37576141  0.62577392  0.89209709  1
  V  V3  1  0.12607556  0.37609705  0.13976401  1
  V  V4  1  0.62694421  0.62220604  0.38620200  1
  V  V5  1  0.62582213  0.12572990  0.63940050  1
  V  V6  1  0.37699017  0.12736247  0.14255366  1
  V  V7  1  0.62479901  0.87480957  0.13757254  1
  V  V8  1  0.62710784  0.87375886  0.39114053  1
  V  V9  1  0.12516339  0.12996960  0.88816139  1
  V  V10  1  0.62884268  0.37709109  0.63936771  1
  V  V11  1  0.12563977  0.12432683  0.14065712  1
  V  V12  1  0.12494278  0.62555133  0.64275433  1
  V  V13  1  0.37603218  0.87597257  0.88862271  1
  V  V14  1  0.87646516  0.87310794  0.64463050  1
  V  V15  1  0.62407743  0.12677871  0.89248782  1
  V  V16  1  0.12193612  0.37106559  0.64112862  1
  V  V17  1  0.37310112  0.12455986  0.64032533  1
  V  V18  1  0.62379822  0.62158749  0.88958433  1
  V  V19  1  0.87468781  0.37395242  0.89134493  1
  V  V20  1  0.87594417  0.62284949  0.64369765  1
  V  V21  1  0.62659455  0.12547168  0.38811978  1
  V  V22  1  0.12424327  0.87380556  0.38490453  1
  V  V23  1  0.37317259  0.87044308  0.63841715  1
  V  V24  1  0.37509980  0.87657818  0.14098461  1
  V  V25  1  0.87268264  0.12705806  0.13603431  1
  V  V26  1  0.87453742  0.11919957  0.38740944  1
  V  V27  1  0.62127537  0.87075241  0.88982251  1
  V  V28  1  0.62298724  0.61723053  0.13836126  1
  V  V29  1  0.87708478  0.12629351  0.64391194  1
  V  V30  1  0.62428593  0.36430012  0.14164800  1
  V  V31  1  0.62403809  0.37692730  0.88828307  1
  Fe  Fe32  1  0.87488391  0.87818916  0.12727958  1
  Fe  Fe33  1  0.62637810  0.62810226  0.63430647  1
  Fe  Fe34  1  0.62450252  0.11958829  0.13508068  1
  Fe  Fe35  1  0.62582747  0.37415354  0.38069313  1
  Fe  Fe36  1  0.37652641  0.37453665  0.37958281  1
  Fe  Fe37  1  0.12362150  0.12383606  0.38350593  1
  Fe  Fe38  1  0.37615578  0.12037029  0.38398644  1
  Fe  Fe39  1  0.87361730  0.37659172  0.38147386  1
  Fe  Fe40  1  0.37488882  0.37634351  0.63847874  1
  Fe  Fe41  1  0.87467410  0.87494678  0.38367928  1
  Fe  Fe42  1  0.12254949  0.87484355  0.63970940  1
  Fe  Fe43  1  0.62698831  0.87763745  0.63858883  1
  Fe  Fe44  1  0.87600234  0.12604621  0.88642566  1
  Fe  Fe45  1  0.37346761  0.12312520  0.88440753  1
  Fe  Fe46  1  0.37809571  0.62491711  0.14029257  1
  Fe  Fe47  1  0.87524916  0.37640966  0.63592934  1
  Fe  Fe48  1  0.37447621  0.62924184  0.38330598  1
  Fe  Fe49  1  0.12629761  0.37499764  0.88494363  1
  Fe  Fe50  1  0.37473788  0.87616166  0.38492182  1
  Fe  Fe51  1  0.12499649  0.62429993  0.89773571  1
  Fe  Fe52  1  0.37406790  0.62410646  0.63233007  1
  Fe  Fe53  1  0.37509098  0.37306037  0.14324401  1
  Fe  Fe54  1  0.12730438  0.87726383  0.12991123  1
  Fe  Fe55  1  0.87100937  0.62493790  0.89406419  1
  Fe  Fe56  1  0.87212698  0.87772739  0.89644437  1
  Fe  Fe57  1  0.37637119  0.37320624  0.88367049  1
  Fe  Fe58  1  0.87529537  0.37148815  0.14024528  1
  Fe  Fe59  1  0.87325199  0.62446965  0.13234469  1
  Fe  Fe60  1  0.87511681  0.63044608  0.37966891  1
  Fe  Fe61  1  0.12338773  0.12155001  0.63474141  1
  Fe  Fe62  1  0.12725442  0.62692012  0.12713603  1
  Fe  Fe63  1  0.12426437  0.37555987  0.37869428  1
  Pb  Pb64  1  -0.00089012  -0.00420697  0.00022699  1
  Pb  Pb65  1  0.00102304  -0.00331732  0.24340941  1
  Pb  Pb66  1  0.01024498  -0.00227420  0.50315785  1
  Pb  Pb67  1  -0.00700709  -0.00269856  0.75688444  1
  Pb  Pb68  1  -0.00573862  0.25683941  0.00421142  1
  Pb  Pb69  1  0.00847428  0.24964733  0.25392794  1
  Pb  Pb70  1  0.00185946  0.25061874  0.49357453  1
  Pb  Pb71  1  0.00330122  0.25229576  0.75122207  1
  Pb  Pb72  1  -0.00026688  0.50583947  0.00084481  1
  Pb  Pb73  1  -0.00493113  0.50301947  0.24150702  1
  Pb  Pb74  1  -0.00558533  0.49429193  0.49222448  1
  Pb  Pb75  1  0.01044295  0.50211504  0.76039499  1
  Pb  Pb76  1  -0.00466535  0.74669601  0.00137497  1
  Pb  Pb77  1  -0.00230813  0.75082497  0.23389143  1
  Pb  Pb78  1  0.00120516  0.75471935  0.49563386  1
  Pb  Pb79  1  -0.00328196  0.74003163  0.76293637  1
  Pb  Pb80  1  0.24639354  -0.00297786  0.00038757  1
  Pb  Pb81  1  0.25521318  0.00520891  0.25319700  1
  Pb  Pb82  1  0.24327589  0.00310951  0.49716161  1
  Pb  Pb83  1  0.24773355  0.00221934  0.74884447  1
  Pb  Pb84  1  0.25783733  0.25871146  -0.00046178  1
  Pb  Pb85  1  0.24120802  0.24867249  0.25660467  1
  Pb  Pb86  1  0.24911619  0.24970505  0.48877561  1
  Pb  Pb87  1  0.25975248  0.25274601  0.75257209  1
  Pb  Pb88  1  0.24912626  0.50003483  -0.00022187  1
  Pb  Pb89  1  0.25683333  0.50113955  0.24547841  1
  Pb  Pb90  1  0.26133681  0.49448923  0.49398379  1
  Pb  Pb91  1  0.24664826  0.49515858  0.75273935  1
  Pb  Pb92  1  0.24484451  0.74916722  0.00647169  1
  Pb  Pb93  1  0.25198525  0.74450960  0.24525856  1
  Pb  Pb94  1  0.25269510  0.74795860  0.49571134  1
  Pb  Pb95  1  0.23953724  0.74278513  0.75570317  1
  Pb  Pb96  1  0.50572488  0.00559817  0.00156293  1
  Pb  Pb97  1  0.49238221  -0.00137394  0.25484107  1
  Pb  Pb98  1  0.50196295  -0.00455823  0.49945639  1
  Pb  Pb99  1  0.49676766  0.00631156  0.74963991  1
  Pb  Pb100  1  0.49363122  0.25346222  0.00084131  1
  Pb  Pb101  1  0.49531115  0.25199595  0.25564690  1
  Pb  Pb102  1  0.49087412  0.26024662  0.49653671  1
  Pb  Pb103  1  0.49347584  0.25117856  0.75238166  1
  Pb  Pb104  1  0.48761002  0.49623478  0.00622197  1
  Pb  Pb105  1  0.49568308  0.49420765  0.25364086  1
  Pb  Pb106  1  0.49178719  0.50080755  0.49684400  1
  Pb  Pb107  1  0.49500867  0.49995056  0.74426308  1
  Pb  Pb108  1  0.49450596  0.74209909  0.00527822  1
  Pb  Pb109  1  0.49423448  0.75254808  0.25414444  1
  Pb  Pb110  1  0.50214031  0.74184886  0.50126992  1
  Pb  Pb111  1  0.50427958  0.74758367  0.74395455  1
  Pb  Pb112  1  0.74902598  0.00307479  0.00032054  1
  Pb  Pb113  1  0.75576091  -0.00522129  0.24797411  1
  Pb  Pb114  1  0.74631906  -0.00575228  0.50373153  1
  Pb  Pb115  1  0.75967927  -0.00127914  0.75839568  1
  Pb  Pb116  1  0.74945905  0.25385471  0.00341345  1
  Pb  Pb117  1  0.75080081  0.25859599  0.25426050  1
  Pb  Pb118  1  0.75522976  0.25522383  0.49746213  1
  Pb  Pb119  1  0.75259670  0.24497746  0.75123727  1
  Pb  Pb120  1  0.75564746  0.49832381  0.00591264  1
  Pb  Pb121  1  0.76064755  0.49981508  0.25110226  1
  Pb  Pb122  1  0.75481956  0.49785547  0.49457448  1
  Pb  Pb123  1  0.75649306  0.50737810  0.75296011  1
  Pb  Pb124  1  0.75801738  0.74892803  0.00376075  1
  Pb  Pb125  1  0.76195103  0.75212521  0.24648902  1
  Pb  Pb126  1  0.74394185  0.74876880  0.50203528  1
  Pb  Pb127  1  0.75923975  0.75192938  0.75699370  1
  O  O128  1  0.12824461  0.00363607  0.16349249  1
  O  O129  1  0.12097666  -0.00658005  0.40966220  1
  O  O130  1  0.12461831  -0.00085559  0.67098067  1
  O  O131  1  0.12819174  0.00007340  0.91292440  1
  O  O132  1  0.12572368  0.24766839  0.16573597  1
  O  O133  1  0.12197867  0.24936091  0.41257867  1
  O  O134  1  0.12047557  0.25330856  0.65888184  1
  O  O135  1  0.12371667  0.24579959  0.91162225  1
  O  O136  1  0.12657554  0.49338342  0.15571246  1
  O  O137  1  0.12267935  0.50705177  0.40469842  1
  O  O138  1  0.12056353  0.50567999  0.66721666  1
  O  O139  1  0.12619560  0.49691542  0.91797164  1
  O  O140  1  0.12793220  0.75237037  0.15629532  1
  O  O141  1  0.12478435  0.75182350  0.40930984  1
  O  O142  1  0.12210906  0.74546978  0.67002712  1
  O  O143  1  0.12911724  0.75754039  0.91572240  1
  O  O144  1  0.37639885  -0.00015967  0.16425796  1
  O  O145  1  0.37892143  -0.00236220  0.41939914  1
  O  O146  1  0.37469986  0.00273462  0.66313555  1
  O  O147  1  0.37586361  -0.00314931  0.91359244  1
  O  O148  1  0.37726615  0.24278906  0.16403674  1
  O  O149  1  0.37843934  0.24682104  0.41019855  1
  O  O150  1  0.37542946  0.24623265  0.66267923  1
  O  O151  1  0.37626508  0.24667937  0.91542557  1
  O  O152  1  0.38007423  0.49895115  0.16475976  1
  O  O153  1  0.37729044  0.50288760  0.40853892  1
  O  O154  1  0.37323514  0.50037883  0.66625236  1
  O  O155  1  0.37917278  0.50598034  0.91179961  1
  O  O156  1  0.37939803  0.75753787  0.16172748  1
  O  O157  1  0.37374662  0.75292750  0.41572667  1
  O  O158  1  0.37405442  0.75422680  0.65995001  1
  O  O159  1  0.37977838  0.74931355  0.91706310  1
  O  O160  1  0.62242040  -0.00682413  0.16600017  1
  O  O161  1  0.62887869  -0.00041955  0.41614126  1
  O  O162  1  0.62470766  0.00570875  0.66837247  1
  O  O163  1  0.62239237  0.00070207  0.91329587  1
  O  O164  1  0.62460462  0.24843148  0.16091719  1
  O  O165  1  0.62929629  0.24123836  0.40988608  1
  O  O166  1  0.62765815  0.24873008  0.66756816  1
  O  O167  1  0.62423049  0.24810798  0.91320036  1
  O  O168  1  0.62303244  0.50240481  0.15583664  1
  O  O169  1  0.62666860  0.50624455  0.40484588  1
  O  O170  1  0.62923400  0.49426566  0.66112179  1
  O  O171  1  0.62394485  0.49818843  0.91661656  1
  O  O172  1  0.62231943  0.76006349  0.16311573  1
  O  O173  1  0.62770356  0.75434779  0.41180910  1
  O  O174  1  0.62708128  0.75319450  0.66833687  1
  O  O175  1  0.61983068  0.75295524  0.91046190  1
  O  O176  1  0.87474238  0.00711849  0.15910190  1
  O  O177  1  0.87205772  0.00323709  0.41570388  1
  O  O178  1  0.87523328  -0.00012747  0.66728804  1
  O  O179  1  0.87417900  0.00438439  0.91775909  1
  O  O180  1  0.87470342  0.24192140  0.16500929  1
  O  O181  1  0.87086815  0.23964958  0.41021897  1
  O  O182  1  0.87569338  0.24638000  0.66439928  1
  O  O183  1  0.87351841  0.25321511  0.91569462  1
  O  O184  1  0.87028014  0.49888067  0.16015369  1
  O  O185  1  0.87356717  0.50519106  0.41013966  1
  O  O186  1  0.87551716  0.50558267  0.66557577  1
  O  O187  1  0.86883391  0.49152329  0.91494576  1
  O  O188  1  0.87068941  0.75196488  0.15367332  1
  O  O189  1  0.87435775  0.75196468  0.41520068  1
  O  O190  1  0.87551849  0.75051987  0.66743473  1
  O  O191  1  0.87095626  0.75155310  0.91666270  1
  O  O192  1  -0.00288868  0.12453962  0.16145263  1
  O  O193  1  -0.00867122  0.12205084  0.40913872  1
  O  O194  1  -0.00551979  0.12361959  0.66644033  1
  O  O195  1  0.00814169  0.12356086  0.91433758  1
  O  O196  1  0.00602156  0.37044883  0.16063829  1
  O  O197  1  -0.00189173  0.37442893  0.41056157  1
  O  O198  1  0.00315996  0.37825024  0.66720864  1
  O  O199  1  -0.00754976  0.37408471  0.91285010  1
  O  O200  1  0.00119864  0.62288514  0.15366372  1
  O  O201  1  0.00734344  0.62974028  0.40878917  1
  O  O202  1  -0.00228958  0.62789402  0.67005844  1
  O  O203  1  -0.00278813  0.62424809  0.91651022  1
  O  O204  1  0.00006032  0.87978753  0.15459208  1
  O  O205  1  0.00475133  0.87354853  0.41116348  1
  O  O206  1  -0.00747495  0.87453749  0.67136603  1
  O  O207  1  0.00791469  0.87725648  0.91138815  1
  O  O208  1  0.25452214  0.12340853  0.16488399  1
  O  O209  1  0.24912160  0.12079528  0.41150480  1
  O  O210  1  0.25466187  0.12585902  0.66119136  1
  O  O211  1  0.24248678  0.12422725  0.91313699  1
  O  O212  1  0.24441213  0.36995659  0.16203645  1
  O  O213  1  0.25002732  0.37549350  0.40780338  1
  O  O214  1  0.24054310  0.37797078  0.66291694  1
  O  O215  1  0.25221741  0.37430334  0.91346941  1
  O  O216  1  0.25085879  0.62476217  0.16145227  1
  O  O217  1  0.24061067  0.62798992  0.40993907  1
  O  O218  1  0.24287228  0.62588923  0.66367289  1
  O  O219  1  0.26018571  0.62769720  0.91379210  1
  O  O220  1  0.25849778  0.87820759  0.16091781  1
  O  O221  1  0.24180973  0.87572817  0.40925810  1
  O  O222  1  0.25670518  0.87640513  0.66625199  1
  O  O223  1  0.25278523  0.87532366  0.91639927  1
  O  O224  1  0.49504865  0.12174676  0.16318665  1
  O  O225  1  0.51117502  0.12032020  0.41181742  1
  O  O226  1  0.49776449  0.12564825  0.66502862  1
  O  O227  1  0.50466726  0.12396053  0.91373272  1
  O  O228  1  0.50830056  0.37349706  0.16497489  1
  O  O229  1  0.50330759  0.37456899  0.41230129  1
  O  O230  1  0.50997353  0.37260396  0.66320341  1
  O  O231  1  0.50328517  0.37336314  0.91436452  1
  O  O232  1  0.50964570  0.63074237  0.16805633  1
  O  O233  1  0.50837840  0.63201057  0.40892039  1
  O  O234  1  0.50039449  0.62485156  0.66422021  1
  O  O235  1  0.50016100  0.62591701  0.91775914  1
  O  O236  1  0.49893948  0.87815873  0.16467582  1
  O  O237  1  0.50953573  0.87640087  0.41353733  1
  O  O238  1  0.49130178  0.87876580  0.66438567  1
  O  O239  1  0.50257523  0.87672764  0.91644633  1
  O  O240  1  0.75546296  0.12355533  0.15875210  1
  O  O241  1  0.74891219  0.12065261  0.41607949  1
  O  O242  1  0.75361026  0.12470208  0.66675047  1
  O  O243  1  0.74323651  0.12558405  0.91395914  1
  O  O244  1  0.74198267  0.37318463  0.16316713  1
  O  O245  1  0.74916411  0.37400632  0.41466064  1
  O  O246  1  0.74676166  0.37259167  0.66688466  1
  O  O247  1  0.74945806  0.37140604  0.91735964  1
  O  O248  1  0.73839745  0.62978023  0.16076910  1
  O  O249  1  0.74378360  0.63051759  0.41117579  1
  O  O250  1  0.75699424  0.62682021  0.66558791  1
  O  O251  1  0.74007787  0.62448535  0.91747805  1
  O  O252  1  0.74414916  0.87897591  0.15635564  1
  O  O253  1  0.74562682  0.87708376  0.41700383  1
  O  O254  1  0.75838913  0.87695662  0.66768289  1
  O  O255  1  0.73620816  0.87684209  0.91528933  1
  O  O256  1  0.12698584  0.12781218  0.04942332  1
  O  O257  1  0.12378977  0.13018620  0.28263985  1
  O  O258  1  0.11958001  0.11419756  0.53506036  1
  O  O259  1  0.12434646  0.12865542  0.79654329  1
  O  O260  1  0.12539177  0.36860334  0.04795980  1
  O  O261  1  0.12401166  0.36644678  0.27884066  1
  O  O262  1  0.11998393  0.37925902  0.55036850  1
  O  O263  1  0.12135117  0.38031073  0.78446711  1
  O  O264  1  0.13201401  0.62714112  0.02491723  1
  O  O265  1  0.12475678  0.62660833  0.29089475  1
  O  O266  1  0.12078208  0.62551646  0.55254671  1
  O  O267  1  0.12477994  0.62951672  0.79504086  1
  O  O268  1  0.13361154  0.88054456  0.02950050  1
  O  O269  1  0.12301761  0.87410812  0.29386629  1
  O  O270  1  0.11759324  0.87639410  0.54040083  1
  O  O271  1  0.13142927  0.87338352  0.80224949  1
  O  O272  1  0.37470551  0.12536541  0.05093042  1
  O  O273  1  0.37753704  0.11494474  0.28343118  1
  O  O274  1  0.37678525  0.12357105  0.54955233  1
  O  O275  1  0.37525493  0.12859784  0.78436615  1
  O  O276  1  0.38035606  0.36991171  0.04163595  1
  O  O277  1  0.38450776  0.37383732  0.27769533  1
  O  O278  1  0.38044230  0.37967397  0.53795565  1
  O  O279  1  0.37475844  0.36712124  0.78217428  1
  O  O280  1  0.38691303  0.62459603  0.03919255  1
  O  O281  1  0.37499110  0.63259161  0.28183753  1
  O  O282  1  0.37468716  0.62316821  0.53216050  1
  O  O283  1  0.37780901  0.62781470  0.80090340  1
  O  O284  1  0.37803241  0.87812100  0.04963491  1
  O  O285  1  0.38078588  0.87943135  0.28463200  1
  O  O286  1  0.37284233  0.87408889  0.54732683  1
  O  O287  1  0.37458355  0.87237333  0.79780953  1
  O  O288  1  0.62237005  0.11679464  0.03562893  1
  O  O289  1  0.62893892  0.12223789  0.29685607  1
  O  O290  1  0.62630806  0.12626328  0.54860882  1
  O  O291  1  0.62422239  0.12588389  0.80109101  1
  O  O292  1  0.62420690  0.36862215  0.04968087  1
  O  O293  1  0.62561750  0.36812584  0.28094061  1
  O  O294  1  0.63034937  0.37296549  0.54835216  1
  O  O295  1  0.62713592  0.37702400  0.79746141  1
  O  O296  1  0.61910119  0.62616758  0.04694154  1
  O  O297  1  0.62721233  0.62786417  0.29510752  1
  O  O298  1  0.62595384  0.63312928  0.53475053  1
  O  O299  1  0.62464406  0.62133225  0.79810307  1
  O  O300  1  0.62023817  0.87668701  0.04620553  1
  O  O301  1  0.62991866  0.87660701  0.29999636  1
  O  O302  1  0.63049916  0.87825791  0.53892373  1
  O  O303  1  0.62063662  0.87510954  0.79866922  1
  O  O304  1  0.87596672  0.13066697  0.04427181  1
  O  O305  1  0.87019250  0.11688863  0.29624544  1
  O  O306  1  0.87584743  0.12334585  0.55316857  1
  O  O307  1  0.87340921  0.12299660  0.78640060  1
  O  O308  1  0.87152278  0.36601008  0.03942284  1
  O  O309  1  0.86605119  0.37550774  0.27992611  1
  O  O310  1  0.87319919  0.37816593  0.53668437  1
  O  O311  1  0.87233071  0.37374256  0.79994595  1
  O  O312  1  0.86516566  0.62149654  0.02994990  1
  O  O313  1  0.87047041  0.62721582  0.27888728  1
  O  O314  1  0.87857083  0.62567534  0.55305821  1
  O  O315  1  0.86848705  0.62698814  0.79199911  1
  O  O316  1  0.87305682  0.87866378  0.02598735  1
  O  O317  1  0.86820043  0.87882840  0.28358789  1
  O  O318  1  0.87760253  0.87343580  0.55361173  1
  O  O319  1  0.86876021  0.88002207  0.79420964  1
