# generated using pymatgen
data_VFe(PbO3)2
_symmetry_space_group_name_H-M   'P 1'
_cell_length_a   15.37339078
_cell_length_b   15.38860501
_cell_length_c   18.47922209
_cell_angle_alpha   90.04715247
_cell_angle_beta   89.98791467
_cell_angle_gamma   90.00223527
_symmetry_Int_Tables_number   1
_chemical_formula_structural   VFe(PbO3)2
_chemical_formula_sum   'V32 Fe32 Pb64 O192'
_cell_volume   4371.72109322
_cell_formula_units_Z   32
loop_
 _symmetry_equiv_pos_site_id
 _symmetry_equiv_pos_as_xyz
  1  'x, y, z'
loop_
 _atom_site_type_symbol
 _atom_site_label
 _atom_site_symmetry_multiplicity
 _atom_site_fract_x
 _atom_site_fract_y
 _atom_site_fract_z
 _atom_site_occupancy
  V  V0  1  0.12713878  0.37551843  0.39240840  1
  V  V1  1  0.12274462  0.87809543  0.14105479  1
  V  V2  1  0.62617212  0.37436122  0.88838040  1
  V  V3  1  0.37240079  0.63044625  0.64243257  1
  V  V4  1  0.87515449  0.87858615  0.14172779  1
  V  V5  1  0.87530449  0.87192291  0.63636913  1
  V  V6  1  0.37631366  0.87825905  0.63864176  1
  V  V7  1  0.37526350  0.87536134  0.89141277  1
  V  V8  1  0.12560966  0.12240448  0.88422048  1
  V  V9  1  0.87312210  0.62501544  0.63840174  1
  V  V10  1  0.62518051  0.62542757  0.38440474  1
  V  V11  1  0.87659227  0.37327550  0.88338715  1
  V  V12  1  0.37411813  0.13288036  0.63899147  1
  V  V13  1  0.37318489  0.62802498  0.38506431  1
  V  V14  1  0.87322286  0.12278507  0.14509942  1
  V  V15  1  0.37328459  0.12295678  0.13956528  1
  V  V16  1  0.37261000  0.13932779  0.38842855  1
  V  V17  1  0.37487888  0.87850930  0.38593204  1
  V  V18  1  0.37350845  0.38388341  0.38421807  1
  V  V19  1  0.37761203  0.62169692  0.89735083  1
  V  V20  1  0.37700591  0.38417006  0.64312862  1
  V  V21  1  0.87478900  0.62457390  0.14426428  1
  V  V22  1  0.62776527  0.87571625  0.14475712  1
  V  V23  1  0.87627391  0.12666781  0.39826107  1
  V  V24  1  0.12290813  0.37312483  0.13685923  1
  V  V25  1  0.12640743  0.62326850  0.64380436  1
  V  V26  1  0.87673868  0.37167426  0.14277090  1
  V  V27  1  0.62681058  0.87437232  0.88848150  1
  V  V28  1  0.87705322  0.87560089  0.88330223  1
  V  V29  1  0.62643208  0.12483752  0.14256184  1
  V  V30  1  0.87512493  0.87305679  0.39109514  1
  V  V31  1  0.12650718  0.62565335  0.38812929  1
  Fe  Fe32  1  0.37511510  0.88226373  0.13610731  1
  Fe  Fe33  1  0.62540862  0.12330037  0.88273593  1
  Fe  Fe34  1  0.12353376  0.62633693  0.89065861  1
  Fe  Fe35  1  0.62413892  0.87014664  0.63156559  1
  Fe  Fe36  1  0.62023581  0.62419958  0.63645930  1
  Fe  Fe37  1  0.62778240  0.62539131  0.13146192  1
  Fe  Fe38  1  0.62241349  0.12415673  0.39771849  1
  Fe  Fe39  1  0.62409731  0.87361883  0.39058732  1
  Fe  Fe40  1  0.12849387  0.12454889  0.63052058  1
  Fe  Fe41  1  0.12817387  0.12577896  0.39686453  1
  Fe  Fe42  1  0.87593243  0.37746014  0.62743680  1
  Fe  Fe43  1  0.37969382  0.12292082  0.88107418  1
  Fe  Fe44  1  0.87621150  0.37809926  0.39501249  1
  Fe  Fe45  1  0.87731202  0.62792794  0.38596726  1
  Fe  Fe46  1  0.62307932  0.37651120  0.63149441  1
  Fe  Fe47  1  0.37445724  0.37187160  0.89194145  1
  Fe  Fe48  1  0.87531613  0.12355396  0.62867041  1
  Fe  Fe49  1  0.12002605  0.62420620  0.13101308  1
  Fe  Fe50  1  0.62167445  0.12348540  0.62666457  1
  Fe  Fe51  1  0.11961451  0.12648941  0.13787367  1
  Fe  Fe52  1  0.12706911  0.37493958  0.64397952  1
  Fe  Fe53  1  0.87215939  0.12437520  0.87851664  1
  Fe  Fe54  1  0.12604212  0.87462423  0.38651237  1
  Fe  Fe55  1  0.12518715  0.87571389  0.87788848  1
  Fe  Fe56  1  0.62473983  0.62570256  0.89532703  1
  Fe  Fe57  1  0.62167132  0.37646210  0.38522576  1
  Fe  Fe58  1  0.87263393  0.62212438  0.88234279  1
  Fe  Fe59  1  0.37298609  0.62807737  0.12963242  1
  Fe  Fe60  1  0.12554382  0.87153338  0.64617989  1
  Fe  Fe61  1  0.62781790  0.37420268  0.13821993  1
  Fe  Fe62  1  0.37454555  0.37144891  0.12855738  1
  Fe  Fe63  1  0.12392191  0.37380069  0.87969804  1
  Pb  Pb64  1  0.00537843  0.00476706  -0.00285474  1
  Pb  Pb65  1  0.00679154  0.00128458  0.25928268  1
  Pb  Pb66  1  0.00330169  0.00353194  0.50364960  1
  Pb  Pb67  1  -0.00151157  0.00461063  0.74171899  1
  Pb  Pb68  1  0.00454620  0.24199476  -0.00467626  1
  Pb  Pb69  1  -0.00586214  0.25244071  0.25829702  1
  Pb  Pb70  1  -0.00688721  0.24759848  0.50845921  1
  Pb  Pb71  1  -0.00268841  0.24798164  0.73574908  1
  Pb  Pb72  1  0.00364924  0.50311380  -0.00564069  1
  Pb  Pb73  1  -0.01233389  0.49859856  0.25747879  1
  Pb  Pb74  1  -0.00153514  0.49528923  0.50291912  1
  Pb  Pb75  1  0.00340452  0.50166365  0.75067912  1
  Pb  Pb76  1  0.00466947  0.74713809  -0.00419375  1
  Pb  Pb77  1  -0.00317834  0.74787081  0.25207675  1
  Pb  Pb78  1  0.00693107  0.75846268  0.50320176  1
  Pb  Pb79  1  0.00019013  0.73900412  0.75706454  1
  Pb  Pb80  1  0.25223838  -0.00164452  -0.00171601  1
  Pb  Pb81  1  0.23774680  0.00300116  0.25681873  1
  Pb  Pb82  1  0.24032459  -0.00242602  0.50350170  1
  Pb  Pb83  1  0.24715567  -0.00273487  0.74753434  1
  Pb  Pb84  1  0.25256507  0.24995971  -0.00550108  1
  Pb  Pb85  1  0.24391696  0.24331210  0.24903693  1
  Pb  Pb86  1  0.23747474  0.25773972  0.51098699  1
  Pb  Pb87  1  0.25261784  0.25783173  0.75531836  1
  Pb  Pb88  1  0.25056121  0.49737636  -0.00255613  1
  Pb  Pb89  1  0.25198809  0.50284792  0.23733495  1
  Pb  Pb90  1  0.24583792  0.49806251  0.50398385  1
  Pb  Pb91  1  0.25205710  0.49157314  0.76215143  1
  Pb  Pb92  1  0.24921272  0.74658608  0.00225900  1
  Pb  Pb93  1  0.24823827  0.75322878  0.24254968  1
  Pb  Pb94  1  0.24736796  0.75656486  0.50208340  1
  Pb  Pb95  1  0.24252266  0.74662020  0.75953630  1
  Pb  Pb96  1  0.49727823  -0.00101226  0.00016736  1
  Pb  Pb97  1  0.50990749  0.00420338  0.25883047  1
  Pb  Pb98  1  0.50446161  -0.00034100  0.50048526  1
  Pb  Pb99  1  0.50388669  0.00757775  0.74830895  1
  Pb  Pb100  1  0.49906414  0.25120887  -0.00230797  1
  Pb  Pb101  1  0.50720730  0.25426890  0.24875450  1
  Pb  Pb102  1  0.50931625  0.25753072  0.50143333  1
  Pb  Pb103  1  0.50143009  0.24316488  0.74997468  1
  Pb  Pb104  1  0.50624308  0.49197345  0.00690986  1
  Pb  Pb105  1  0.50144575  0.49890322  0.23680578  1
  Pb  Pb106  1  0.50809651  0.50535704  0.49968579  1
  Pb  Pb107  1  0.50617725  0.50191651  0.75595374  1
  Pb  Pb108  1  0.49111828  0.75032968  0.00705938  1
  Pb  Pb109  1  0.49732706  0.75008633  0.24323204  1
  Pb  Pb110  1  0.50487254  0.74711252  0.50018653  1
  Pb  Pb111  1  0.50834073  0.74430602  0.75499124  1
  Pb  Pb112  1  0.75130994  0.00309482  -0.00425139  1
  Pb  Pb113  1  0.73993218  0.00296703  0.26383491  1
  Pb  Pb114  1  0.74852170  0.00348831  0.50291680  1
  Pb  Pb115  1  0.74475279  0.01050338  0.74173635  1
  Pb  Pb116  1  0.74759970  0.25291474  -0.00364368  1
  Pb  Pb117  1  0.74511135  0.25541317  0.26033709  1
  Pb  Pb118  1  0.74529153  0.25710169  0.49921418  1
  Pb  Pb119  1  0.74885609  0.24492303  0.73343584  1
  Pb  Pb120  1  0.74454137  0.49897748  0.00209694  1
  Pb  Pb121  1  0.74772786  0.49278836  0.25329764  1
  Pb  Pb122  1  0.75027901  0.49602490  0.49589325  1
  Pb  Pb123  1  0.74628399  0.49769188  0.74396043  1
  Pb  Pb124  1  0.74816284  0.74502558  -0.00088690  1
  Pb  Pb125  1  0.75143196  0.75106478  0.25363380  1
  Pb  Pb126  1  0.74031073  0.74836113  0.50172518  1
  Pb  Pb127  1  0.74776259  0.74153325  0.74940434  1
  O  O128  1  0.12040228  -0.00071291  0.16829611  1
  O  O129  1  0.12848076  -0.00208986  0.41755691  1
  O  O130  1  0.13093676  -0.00118352  0.66130614  1
  O  O131  1  0.12331026  0.00240743  0.91135091  1
  O  O132  1  0.11956848  0.25432267  0.16774264  1
  O  O133  1  0.13318725  0.25803352  0.41449030  1
  O  O134  1  0.13064997  0.24732786  0.66205544  1
  O  O135  1  0.12183540  0.24135976  0.90788960  1
  O  O136  1  0.12114452  0.49131899  0.15661244  1
  O  O137  1  0.12889115  0.50074111  0.41562530  1
  O  O138  1  0.13032458  0.50749687  0.66765330  1
  O  O139  1  0.12338645  0.49830953  0.91232883  1
  O  O140  1  0.11888202  0.75903848  0.15938881  1
  O  O141  1  0.12754361  0.74477705  0.41146970  1
  O  O142  1  0.13025328  0.74041712  0.66815954  1
  O  O143  1  0.12427421  0.75540246  0.91387245  1
  O  O144  1  0.37622552  0.00809807  0.16857939  1
  O  O145  1  0.37481956  -0.00893558  0.40732561  1
  O  O146  1  0.37632728  -0.00533725  0.65608627  1
  O  O147  1  0.37683660  -0.00400387  0.91456407  1
  O  O148  1  0.37535800  0.24095731  0.16276086  1
  O  O149  1  0.37172600  0.25344895  0.40551193  1
  O  O150  1  0.37623345  0.25000540  0.65979267  1
  O  O151  1  0.37579619  0.24485271  0.91494440  1
  O  O152  1  0.37133941  0.49898614  0.15529000  1
  O  O153  1  0.37208654  0.50548215  0.41302806  1
  O  O154  1  0.37423842  0.50127236  0.66657029  1
  O  O155  1  0.37547804  0.50452027  0.91416044  1
  O  O156  1  0.37352177  0.75666570  0.16333964  1
  O  O157  1  0.37198024  0.74637299  0.41297248  1
  O  O158  1  0.37327555  0.74432001  0.66562405  1
  O  O159  1  0.37780619  0.75591850  0.91571237  1
  O  O160  1  0.62957076  0.00048702  0.17205688  1
  O  O161  1  0.62138950  -0.00299509  0.41816205  1
  O  O162  1  0.62124696  -0.00498263  0.65352153  1
  O  O163  1  0.62582434  -0.00883672  0.91413955  1
  O  O164  1  0.62944396  0.24507301  0.16795347  1
  O  O165  1  0.62053179  0.25116498  0.41330403  1
  O  O166  1  0.61979412  0.24996518  0.65558034  1
  O  O167  1  0.62757005  0.25541199  0.91050893  1
  O  O168  1  0.62951988  0.50159108  0.16266530  1
  O  O169  1  0.62056423  0.50782063  0.40849435  1
  O  O170  1  0.61973812  0.50066947  0.66709128  1
  O  O171  1  0.62704114  0.49353011  0.91517980  1
  O  O172  1  0.63060474  0.75702946  0.16215520  1
  O  O173  1  0.62396369  0.74367792  0.41152020  1
  O  O174  1  0.62276218  0.74751964  0.66840245  1
  O  O175  1  0.62299302  0.75932315  0.91775626  1
  O  O176  1  0.87356440  0.00417639  0.16964005  1
  O  O177  1  0.87728089  -0.00519891  0.41567570  1
  O  O178  1  0.87435719  -0.01095348  0.65417519  1
  O  O179  1  0.87037406  -0.00706998  0.91168566  1
  O  O180  1  0.87500326  0.24568371  0.17065643  1
  O  O181  1  0.87730956  0.24532735  0.41511723  1
  O  O182  1  0.87545551  0.25051582  0.65175991  1
  O  O183  1  0.87178379  0.25480789  0.90929238  1
  O  O184  1  0.87700060  0.50224472  0.16464188  1
  O  O185  1  0.87948094  0.50576829  0.41709076  1
  O  O186  1  0.87905497  0.50871428  0.65981471  1
  O  O187  1  0.87274264  0.49025791  0.91044096  1
  O  O188  1  0.87616121  0.75190489  0.16739580  1
  O  O189  1  0.87688938  0.75433594  0.41541025  1
  O  O190  1  0.87841881  0.74351750  0.66468203  1
  O  O191  1  0.87209313  0.76046528  0.91064562  1
  O  O192  1  -0.00880948  0.12505661  0.17031271  1
  O  O193  1  -0.00242682  0.12396272  0.41609024  1
  O  O194  1  0.00154018  0.12043912  0.65566983  1
  O  O195  1  0.00128303  0.12165439  0.90868891  1
  O  O196  1  0.00036292  0.37278982  0.17062363  1
  O  O197  1  0.01146166  0.37594869  0.41437889  1
  O  O198  1  -0.00016584  0.37928776  0.66061167  1
  O  O199  1  -0.00613111  0.37163900  0.90510893  1
  O  O200  1  -0.00447980  0.62681260  0.16696490  1
  O  O201  1  0.01138591  0.62467698  0.41424843  1
  O  O202  1  0.00505662  0.62497501  0.66202744  1
  O  O203  1  -0.00632128  0.62649372  0.91632585  1
  O  O204  1  -0.00173767  0.88005399  0.16939388  1
  O  O205  1  -0.00378487  0.87344179  0.41589743  1
  O  O206  1  -0.00713764  0.86802916  0.66387151  1
  O  O207  1  -0.00599783  0.87835937  0.90198248  1
  O  O208  1  0.25282441  0.12503980  0.16100845  1
  O  O209  1  0.26236927  0.12153250  0.41909811  1
  O  O210  1  0.25944217  0.12122117  0.66175815  1
  O  O211  1  0.24387563  0.12135661  0.90691682  1
  O  O212  1  0.24149337  0.37014804  0.15620353  1
  O  O213  1  0.25147293  0.38029487  0.41850495  1
  O  O214  1  0.25993277  0.37553349  0.66891762  1
  O  O215  1  0.24597117  0.37221052  0.91627275  1
  O  O216  1  0.24415298  0.62831648  0.16015572  1
  O  O217  1  0.24539642  0.62453961  0.41465127  1
  O  O218  1  0.25436290  0.62276891  0.66892171  1
  O  O219  1  0.25684394  0.62995427  0.91444556  1
  O  O220  1  0.24106899  0.88018276  0.15938068  1
  O  O221  1  0.25667734  0.86965744  0.41460663  1
  O  O222  1  0.26150493  0.86885614  0.66806185  1
  O  O223  1  0.25607281  0.87759903  0.91060713  1
  O  O224  1  0.50139780  0.12387344  0.16449006  1
  O  O225  1  0.48470989  0.12243268  0.41686193  1
  O  O226  1  0.49317023  0.12193217  0.66107529  1
  O  O227  1  0.50358370  0.12228176  0.91614097  1
  O  O228  1  0.49899599  0.37160391  0.16055785  1
  O  O229  1  0.49101886  0.37879784  0.40925078  1
  O  O230  1  0.49198463  0.37579395  0.66718243  1
  O  O231  1  0.50778431  0.37531783  0.91164166  1
  O  O232  1  0.50100721  0.62950459  0.15801940  1
  O  O233  1  0.50026884  0.62704788  0.40803693  1
  O  O234  1  0.48976030  0.62307211  0.66859475  1
  O  O235  1  0.49498409  0.62789170  0.91990211  1
  O  O236  1  0.50894091  0.87989450  0.16342943  1
  O  O237  1  0.49124785  0.86753012  0.41099065  1
  O  O238  1  0.49096466  0.86701044  0.66284610  1
  O  O239  1  0.50121908  0.87643010  0.91484316  1
  O  O240  1  0.75401237  0.12476229  0.17167749  1
  O  O241  1  0.75655647  0.12167009  0.41678011  1
  O  O242  1  0.74838538  0.12094679  0.65165140  1
  O  O243  1  0.74944710  0.12339141  0.91518421  1
  O  O244  1  0.75710368  0.37317119  0.16885596  1
  O  O245  1  0.74796389  0.37762902  0.41266910  1
  O  O246  1  0.75042641  0.38058410  0.65659886  1
  O  O247  1  0.75000927  0.37386545  0.91272969  1
  O  O248  1  0.75748163  0.62806060  0.16624111  1
  O  O249  1  0.74321862  0.62537616  0.40739176  1
  O  O250  1  0.75497972  0.62556385  0.65635940  1
  O  O251  1  0.75200731  0.62707299  0.91665849  1
  O  O252  1  0.75097443  0.87815658  0.17125117  1
  O  O253  1  0.75732862  0.87386154  0.41487511  1
  O  O254  1  0.75782252  0.86409137  0.65854160  1
  O  O255  1  0.74644713  0.87451392  0.91183713  1
  O  O256  1  0.11262576  0.12404062  0.03831548  1
  O  O257  1  0.13348457  0.12405481  0.29475776  1
  O  O258  1  0.13307923  0.12738351  0.52797659  1
  O  O259  1  0.12431015  0.11970877  0.79314549  1
  O  O260  1  0.11514100  0.36603813  0.04604668  1
  O  O261  1  0.12960694  0.37768999  0.30143929  1
  O  O262  1  0.13794152  0.37850667  0.54197741  1
  O  O263  1  0.13459217  0.37598287  0.77907866  1
  O  O264  1  0.11697039  0.62877904  0.03093050  1
  O  O265  1  0.12631944  0.62306917  0.29697591  1
  O  O266  1  0.12973418  0.62360781  0.55234665  1
  O  O267  1  0.12083250  0.62983847  0.78934040  1
  O  O268  1  0.11748105  0.88402407  0.04978984  1
  O  O269  1  0.12678411  0.88314929  0.28670876  1
  O  O270  1  0.12941764  0.86452653  0.54387539  1
  O  O271  1  0.13347024  0.87332786  0.77732493  1
  O  O272  1  0.37549805  0.11878651  0.04815410  1
  O  O273  1  0.37124593  0.13049856  0.29682179  1
  O  O274  1  0.37515646  0.13025969  0.54817869  1
  O  O275  1  0.38678307  0.12319126  0.78100115  1
  O  O276  1  0.37751545  0.37011843  0.02792938  1
  O  O277  1  0.36728741  0.38186604  0.29316605  1
  O  O278  1  0.37522694  0.38322361  0.55179842  1
  O  O279  1  0.36721270  0.37450475  0.79080492  1
  O  O280  1  0.37131329  0.63565409  0.02930344  1
  O  O281  1  0.37021943  0.62721916  0.29377979  1
  O  O282  1  0.37254871  0.62771105  0.55132672  1
  O  O283  1  0.37981572  0.62653548  0.80561427  1
  O  O284  1  0.37692010  0.88435242  0.03625889  1
  O  O285  1  0.37294481  0.87463492  0.29415717  1
  O  O286  1  0.37310247  0.87013718  0.54707792  1
  O  O287  1  0.37891829  0.87464050  0.80055020  1
  O  O288  1  0.63038031  0.12236076  0.05151983  1
  O  O289  1  0.62277808  0.11796052  0.29496619  1
  O  O290  1  0.61603000  0.12446973  0.52467714  1
  O  O291  1  0.62266345  0.11833037  0.78201876  1
  O  O292  1  0.63008035  0.37610901  0.03748046  1
  O  O293  1  0.62790863  0.37296439  0.28359765  1
  O  O294  1  0.61418373  0.38084354  0.53008572  1
  O  O295  1  0.62839684  0.37736947  0.79700239  1
  O  O296  1  0.63346163  0.62346333  0.03077261  1
  O  O297  1  0.62441499  0.62794464  0.29307190  1
  O  O298  1  0.61575617  0.62613771  0.53604853  1
  O  O299  1  0.61959103  0.62738714  0.79388850  1
  O  O300  1  0.63236613  0.88152614  0.05403195  1
  O  O301  1  0.62755563  0.88077992  0.28986794  1
  O  O302  1  0.62233498  0.85996646  0.53029258  1
  O  O303  1  0.62561088  0.87196630  0.79720382  1
  O  O304  1  0.87263965  0.12373614  0.05388384  1
  O  O305  1  0.87623916  0.12410292  0.30648115  1
  O  O306  1  0.88111257  0.11994927  0.52721975  1
  O  O307  1  0.87074716  0.11896053  0.77893553  1
  O  O308  1  0.87893359  0.37097222  0.05186701  1
  O  O309  1  0.88237040  0.37700818  0.29283560  1
  O  O310  1  0.88041995  0.37820298  0.52496991  1
  O  O311  1  0.87163953  0.37451824  0.79252752  1
  O  O312  1  0.87571005  0.62611235  0.05319853  1
  O  O313  1  0.88159072  0.62755169  0.28580163  1
  O  O314  1  0.87891348  0.62811767  0.54719177  1
  O  O315  1  0.87955629  0.62692084  0.78239512  1
  O  O316  1  0.87521307  0.87770952  0.05115850  1
  O  O317  1  0.87604559  0.87313114  0.29950626  1
  O  O318  1  0.87849675  0.86552218  0.54502110  1
  O  O319  1  0.86994594  0.87590481  0.79245219  1
