# generated using pymatgen
data_VFe(PbO3)2
_symmetry_space_group_name_H-M   'P 1'
_cell_length_a   15.38193397
_cell_length_b   15.38136634
_cell_length_c   18.49341629
_cell_angle_alpha   89.96815773
_cell_angle_beta   90.03096325
_cell_angle_gamma   89.99004634
_symmetry_Int_Tables_number   1
_chemical_formula_structural   VFe(PbO3)2
_chemical_formula_sum   'V32 Fe32 Pb64 O192'
_cell_volume   4375.45143044
_cell_formula_units_Z   32
loop_
 _symmetry_equiv_pos_site_id
 _symmetry_equiv_pos_as_xyz
  1  'x, y, z'
loop_
 _atom_site_type_symbol
 _atom_site_label
 _atom_site_symmetry_multiplicity
 _atom_site_fract_x
 _atom_site_fract_y
 _atom_site_fract_z
 _atom_site_occupancy
  V  V0  1  0.37646207  0.87418622  0.88495013  1
  V  V1  1  0.37640245  0.62496315  0.63687856  1
  V  V2  1  0.62475151  0.62426423  0.38429769  1
  V  V3  1  0.87715140  0.12378070  0.38569765  1
  V  V4  1  0.37195851  0.87655398  0.14625206  1
  V  V5  1  0.87243611  0.12554329  0.63630492  1
  V  V6  1  0.12255071  0.62854622  0.14369087  1
  V  V7  1  0.12349967  0.87559664  0.39556704  1
  V  V8  1  0.62659065  0.37491746  0.63804902  1
  V  V9  1  0.62721245  0.12420321  0.38420810  1
  V  V10  1  0.12423879  0.62120079  0.88535651  1
  V  V11  1  0.37471665  0.12577218  0.89017471  1
  V  V12  1  0.37872370  0.37335218  0.63558770  1
  V  V13  1  0.12550094  0.87363319  0.14219309  1
  V  V14  1  0.87490510  0.12518623  0.14306804  1
  V  V15  1  0.62434653  0.37680652  0.14352032  1
  V  V16  1  0.87760852  0.87648056  0.14166774  1
  V  V17  1  0.37334909  0.62382023  0.14583608  1
  V  V18  1  0.62454707  0.87426845  0.14696748  1
  V  V19  1  0.62407961  0.87727556  0.88940812  1
  V  V20  1  0.12591037  0.37243304  0.88978369  1
  V  V21  1  0.12618391  0.37419701  0.14668279  1
  V  V22  1  0.12704004  0.62668227  0.39229807  1
  V  V23  1  0.62644174  0.12301105  0.14321415  1
  V  V24  1  0.87523161  0.62560344  0.14328622  1
  V  V25  1  0.87610157  0.37333634  0.63654173  1
  V  V26  1  0.12358139  0.12171939  0.14556150  1
  V  V27  1  0.87698526  0.62524788  0.39111817  1
  V  V28  1  0.62349488  0.87553188  0.63419981  1
  V  V29  1  0.87470857  0.62487168  0.88810354  1
  V  V30  1  0.37789255  0.37828697  0.38483139  1
  V  V31  1  0.62290891  0.37318882  0.89127173  1
  Fe  Fe32  1  0.37290558  0.37425936  0.13777821  1
  Fe  Fe33  1  0.12584539  0.12714078  0.88253198  1
  Fe  Fe34  1  0.37646457  0.87112279  0.39267977  1
  Fe  Fe35  1  0.12780189  0.37572988  0.62599458  1
  Fe  Fe36  1  0.62512485  0.62175499  0.63764448  1
  Fe  Fe37  1  0.62234065  0.12678975  0.88515588  1
  Fe  Fe38  1  0.12646469  0.87595850  0.87787801  1
  Fe  Fe39  1  0.37452960  0.37614696  0.88964501  1
  Fe  Fe40  1  0.62691596  0.62942289  0.13732257  1
  Fe  Fe41  1  0.87393736  0.87562048  0.87905788  1
  Fe  Fe42  1  0.87749060  0.37367905  0.14680839  1
  Fe  Fe43  1  0.87183432  0.62208506  0.63092099  1
  Fe  Fe44  1  0.12368741  0.12360128  0.39384980  1
  Fe  Fe45  1  0.87095197  0.87472124  0.63136061  1
  Fe  Fe46  1  0.87488799  0.37593101  0.88703009  1
  Fe  Fe47  1  0.87188844  0.37470782  0.37969175  1
  Fe  Fe48  1  0.62613237  0.37582699  0.38141492  1
  Fe  Fe49  1  0.37621146  0.12607802  0.38554481  1
  Fe  Fe50  1  0.37512385  0.12521613  0.14813596  1
  Fe  Fe51  1  0.37452606  0.62497870  0.88408555  1
  Fe  Fe52  1  0.62745941  0.87370467  0.38299669  1
  Fe  Fe53  1  0.37469500  0.62314758  0.38359988  1
  Fe  Fe54  1  0.37872477  0.12591092  0.62473717  1
  Fe  Fe55  1  0.12558663  0.87386210  0.63264309  1
  Fe  Fe56  1  0.12365510  0.37731211  0.38966346  1
  Fe  Fe57  1  0.87472733  0.12581283  0.88300696  1
  Fe  Fe58  1  0.12366716  0.61913914  0.63130710  1
  Fe  Fe59  1  0.37945430  0.87514919  0.62751578  1
  Fe  Fe60  1  0.87294157  0.87358767  0.39799841  1
  Fe  Fe61  1  0.12503642  0.12886058  0.62405690  1
  Fe  Fe62  1  0.62592066  0.12793733  0.63696657  1
  Fe  Fe63  1  0.62566918  0.62408546  0.88865576  1
  Pb  Pb64  1  0.00126170  0.00010207  -0.01123168  1
  Pb  Pb65  1  0.00353181  0.00282577  0.25727016  1
  Pb  Pb66  1  0.00107901  -0.01285314  0.50840722  1
  Pb  Pb67  1  0.00515586  -0.00635062  0.74339857  1
  Pb  Pb68  1  -0.00497924  0.24955012  -0.00154396  1
  Pb  Pb69  1  0.01284283  0.25130744  0.26031291  1
  Pb  Pb70  1  0.00624367  0.25299343  0.49400802  1
  Pb  Pb71  1  0.00244474  0.24022221  0.74785059  1
  Pb  Pb72  1  -0.00488718  0.49361468  0.00458042  1
  Pb  Pb73  1  0.00344991  0.49325274  0.25807063  1
  Pb  Pb74  1  -0.00058842  0.50149204  0.49912591  1
  Pb  Pb75  1  0.00223144  0.49814424  0.74153425  1
  Pb  Pb76  1  0.00135070  0.75332030  -0.00885827  1
  Pb  Pb77  1  -0.00527146  0.75703086  0.25756936  1
  Pb  Pb78  1  0.00458597  0.74872110  0.50916608  1
  Pb  Pb79  1  -0.00299523  0.75484123  0.73751716  1
  Pb  Pb80  1  0.24909120  0.00180211  -0.00377403  1
  Pb  Pb81  1  0.25032559  0.00872089  0.26249718  1
  Pb  Pb82  1  0.25630139  0.00551589  0.49794966  1
  Pb  Pb83  1  0.24608488  0.00254534  0.73244250  1
  Pb  Pb84  1  0.25989221  0.24759500  0.00851324  1
  Pb  Pb85  1  0.25097869  0.24275684  0.25882488  1
  Pb  Pb86  1  0.24707041  0.24623157  0.49283370  1
  Pb  Pb87  1  0.24373871  0.24317012  0.73977992  1
  Pb  Pb88  1  0.25393557  0.49795409  -0.00036072  1
  Pb  Pb89  1  0.24686149  0.49953914  0.25482896  1
  Pb  Pb90  1  0.24245737  0.49812492  0.50014775  1
  Pb  Pb91  1  0.25996509  0.49604613  0.74845577  1
  Pb  Pb92  1  0.24910288  0.74991793  -0.00734504  1
  Pb  Pb93  1  0.25820141  0.75230256  0.25920810  1
  Pb  Pb94  1  0.25167434  0.75569371  0.50463656  1
  Pb  Pb95  1  0.24415054  0.75492575  0.74057019  1
  Pb  Pb96  1  0.49456563  0.00389353  0.00281581  1
  Pb  Pb97  1  0.49605621  -0.00734518  0.25789986  1
  Pb  Pb98  1  0.49460091  0.00169327  0.49478374  1
  Pb  Pb99  1  0.50196457  0.00631836  0.74114901  1
  Pb  Pb100  1  0.49044843  0.24979802  0.00725096  1
  Pb  Pb101  1  0.49636210  0.24779339  0.25091221  1
  Pb  Pb102  1  0.50365097  0.23965569  0.49828637  1
  Pb  Pb103  1  0.50244774  0.24713500  0.74907277  1
  Pb  Pb104  1  0.50131450  0.50497196  -0.00092811  1
  Pb  Pb105  1  0.50144947  0.50084690  0.24988532  1
  Pb  Pb106  1  0.50476702  0.50297155  0.49753933  1
  Pb  Pb107  1  0.49169192  0.49883211  0.75554524  1
  Pb  Pb108  1  0.50298664  0.74502777  0.00104438  1
  Pb  Pb109  1  0.49159403  0.75191645  0.25747778  1
  Pb  Pb110  1  0.49879577  0.75258009  0.49565173  1
  Pb  Pb111  1  0.50264508  0.73810136  0.74965086  1
  Pb  Pb112  1  0.75251142  0.00305939  -0.00517033  1
  Pb  Pb113  1  0.75122998  -0.00859583  0.25599452  1
  Pb  Pb114  1  0.74872336  -0.00445499  0.49948877  1
  Pb  Pb115  1  0.75729304  0.00201670  0.74948144  1
  Pb  Pb116  1  0.75418703  0.25065609  -0.00067254  1
  Pb  Pb117  1  0.74983722  0.25626557  0.25214264  1
  Pb  Pb118  1  0.74561733  0.24737585  0.49562597  1
  Pb  Pb119  1  0.76025094  0.24922038  0.75584692  1
  Pb  Pb120  1  0.75322636  0.49456937  0.00418074  1
  Pb  Pb121  1  0.74998140  0.49356252  0.25377781  1
  Pb  Pb122  1  0.74987910  0.50523517  0.49897330  1
  Pb  Pb123  1  0.74848650  0.49909207  0.74994212  1
  Pb  Pb124  1  0.74482797  0.74606715  0.00070670  1
  Pb  Pb125  1  0.75286372  0.75994523  0.25663226  1
  Pb  Pb126  1  0.74969542  0.74045254  0.50259210  1
  Pb  Pb127  1  0.74954372  0.74710430  0.74304573  1
  O  O128  1  0.12508692  -0.00395267  0.17098657  1
  O  O129  1  0.12298083  -0.00789235  0.41369704  1
  O  O130  1  0.12395225  0.00382305  0.65193816  1
  O  O131  1  0.12883545  0.00082704  0.91236629  1
  O  O132  1  0.12434010  0.25242127  0.16782261  1
  O  O133  1  0.12467440  0.25165052  0.40876699  1
  O  O134  1  0.12473731  0.25378515  0.65829949  1
  O  O135  1  0.12553367  0.25707505  0.91454610  1
  O  O136  1  0.12447665  0.50211646  0.16886426  1
  O  O137  1  0.12138088  0.50754657  0.41148607  1
  O  O138  1  0.12605164  0.49504753  0.66414731  1
  O  O139  1  0.12349770  0.49842512  0.91773158  1
  O  O140  1  0.12556298  0.75208941  0.17159921  1
  O  O141  1  0.12121121  0.74613626  0.41650820  1
  O  O142  1  0.12539123  0.74474183  0.65975352  1
  O  O143  1  0.12484532  0.74477984  0.91092174  1
  O  O144  1  0.37374238  -0.00681346  0.16828212  1
  O  O145  1  0.37702009  -0.00107115  0.40978968  1
  O  O146  1  0.37915926  0.00045957  0.65321832  1
  O  O147  1  0.37586881  0.00177168  0.91605793  1
  O  O148  1  0.37360599  0.25250687  0.17146258  1
  O  O149  1  0.37673784  0.26005531  0.40445605  1
  O  O150  1  0.38010530  0.25775902  0.65584538  1
  O  O151  1  0.37506948  0.24495660  0.91514240  1
  O  O152  1  0.37179029  0.50454755  0.16313655  1
  O  O153  1  0.37736775  0.49748219  0.41402893  1
  O  O154  1  0.37981991  0.49849409  0.66392436  1
  O  O155  1  0.37447090  0.50072647  0.92043222  1
  O  O156  1  0.37325876  0.75098211  0.16895004  1
  O  O157  1  0.37371858  0.74368481  0.41740584  1
  O  O158  1  0.37815431  0.74187368  0.65588980  1
  O  O159  1  0.37486049  0.75360398  0.91368300  1
  O  O160  1  0.62514712  -0.00171548  0.17013928  1
  O  O161  1  0.62544944  0.00716988  0.40784632  1
  O  O162  1  0.62347602  -0.00470289  0.65859144  1
  O  O163  1  0.62059882  -0.00515569  0.91650114  1
  O  O164  1  0.62625873  0.25222182  0.16571772  1
  O  O165  1  0.62767097  0.24508203  0.40735126  1
  O  O166  1  0.62203926  0.25986147  0.66542531  1
  O  O167  1  0.62352982  0.25568829  0.91722819  1
  O  O168  1  0.62591710  0.49857855  0.16216236  1
  O  O169  1  0.62613842  0.50605698  0.41022896  1
  O  O170  1  0.62398164  0.49038765  0.66554070  1
  O  O171  1  0.62543633  0.49390903  0.91629183  1
  O  O172  1  0.62476351  0.75398019  0.16819713  1
  O  O173  1  0.63009491  0.74076424  0.40799269  1
  O  O174  1  0.62624619  0.75510532  0.66033238  1
  O  O175  1  0.62372957  0.75843765  0.91701355  1
  O  O176  1  0.87667249  -0.00060858  0.16856276  1
  O  O177  1  0.87255308  0.00813130  0.41504889  1
  O  O178  1  0.87104215  0.00869364  0.65531777  1
  O  O179  1  0.87325665  -0.00117797  0.91409776  1
  O  O180  1  0.87622703  0.24350157  0.16617052  1
  O  O181  1  0.86971823  0.24201180  0.40736204  1
  O  O182  1  0.86988460  0.25370546  0.66296048  1
  O  O183  1  0.87475289  0.25195358  0.91832441  1
  O  O184  1  0.87889959  0.51016120  0.16522671  1
  O  O185  1  0.87442975  0.50641086  0.40879457  1
  O  O186  1  0.86834030  0.48928394  0.66154070  1
  O  O187  1  0.87542050  0.50543554  0.91786203  1
  O  O188  1  0.87833166  0.75064321  0.16973203  1
  O  O189  1  0.87273503  0.74124896  0.41730626  1
  O  O190  1  0.87073049  0.74920367  0.65460830  1
  O  O191  1  0.87458338  0.74385202  0.91038865  1
  O  O192  1  0.00118290  0.12254805  0.17097619  1
  O  O193  1  -0.00851287  0.12547049  0.40966247  1
  O  O194  1  -0.00862362  0.13182376  0.65541858  1
  O  O195  1  0.00150367  0.12738189  0.91474753  1
  O  O196  1  0.00737028  0.37688910  0.16969784  1
  O  O197  1  -0.00557157  0.37532892  0.41012838  1
  O  O198  1  -0.00781156  0.37410620  0.65269905  1
  O  O199  1  0.00626096  0.37765250  0.91684957  1
  O  O200  1  -0.00053167  0.62988443  0.17120665  1
  O  O201  1  -0.00222962  0.62591205  0.41272953  1
  O  O202  1  -0.00362498  0.61806696  0.66099681  1
  O  O203  1  -0.00362088  0.62403049  0.91467583  1
  O  O204  1  0.00145612  0.87464826  0.16952660  1
  O  O205  1  0.00350516  0.87127374  0.41719937  1
  O  O206  1  -0.00276410  0.87721284  0.65763803  1
  O  O207  1  0.00042654  0.87298151  0.90945618  1
  O  O208  1  0.24373782  0.12347492  0.17145958  1
  O  O209  1  0.25147813  0.12428199  0.40997327  1
  O  O210  1  0.25321010  0.13016498  0.65199966  1
  O  O211  1  0.25718152  0.12532465  0.91487158  1
  O  O212  1  0.24344313  0.37767025  0.16876854  1
  O  O213  1  0.25813019  0.38047891  0.40879128  1
  O  O214  1  0.26020545  0.37795753  0.65460245  1
  O  O215  1  0.24271652  0.37696552  0.91633579  1
  O  O216  1  0.25002379  0.62763615  0.16944786  1
  O  O217  1  0.24333640  0.62421753  0.41008740  1
  O  O218  1  0.25915069  0.61947250  0.65765782  1
  O  O219  1  0.24539466  0.62362458  0.91407133  1
  O  O220  1  0.25215146  0.87307407  0.16876276  1
  O  O221  1  0.24208300  0.86956877  0.41494233  1
  O  O222  1  0.25381071  0.87186361  0.65656808  1
  O  O223  1  0.25476629  0.87529589  0.91272859  1
  O  O224  1  0.50667718  0.12361165  0.17006808  1
  O  O225  1  0.50734001  0.12784488  0.40489353  1
  O  O226  1  0.50027222  0.12970077  0.66373464  1
  O  O227  1  0.49344146  0.12423844  0.91856830  1
  O  O228  1  0.50435932  0.37649118  0.16365529  1
  O  O229  1  0.49738515  0.37880346  0.40922409  1
  O  O230  1  0.50039544  0.37718765  0.66320512  1
  O  O231  1  0.50534753  0.37468945  0.91713181  1
  O  O232  1  0.49342815  0.62697556  0.16322691  1
  O  O233  1  0.50700744  0.62404376  0.40657089  1
  O  O234  1  0.49669790  0.62161334  0.66367851  1
  O  O235  1  0.50037579  0.62673824  0.91814486  1
  O  O236  1  0.49476523  0.87427685  0.16831149  1
  O  O237  1  0.50551486  0.87056816  0.41214812  1
  O  O238  1  0.50681742  0.87205857  0.66051183  1
  O  O239  1  0.50042923  0.87624673  0.91770984  1
  O  O240  1  0.74926558  0.12298188  0.16794874  1
  O  O241  1  0.74865447  0.12409436  0.40992139  1
  O  O242  1  0.75403013  0.13012368  0.66272275  1
  O  O243  1  0.74683055  0.12500300  0.91609426  1
  O  O244  1  0.74584022  0.37653507  0.16496183  1
  O  O245  1  0.74955804  0.37610338  0.41169701  1
  O  O246  1  0.74555093  0.37293382  0.66109564  1
  O  O247  1  0.74396927  0.37602210  0.91868626  1
  O  O248  1  0.75836851  0.62977329  0.16395437  1
  O  O249  1  0.74976003  0.62244351  0.40967898  1
  O  O250  1  0.74900894  0.62010942  0.66763807  1
  O  O251  1  0.75631936  0.62516963  0.91513258  1
  O  O252  1  0.75362989  0.87477915  0.16768627  1
  O  O253  1  0.74700548  0.87550661  0.41958872  1
  O  O254  1  0.74190918  0.87806755  0.66008774  1
  O  O255  1  0.74269908  0.87576489  0.91189210  1
  O  O256  1  0.12440920  0.12275728  0.05448523  1
  O  O257  1  0.12150513  0.11996324  0.29078802  1
  O  O258  1  0.12480075  0.13174882  0.52239504  1
  O  O259  1  0.12722500  0.13470329  0.78279549  1
  O  O260  1  0.12475512  0.37462076  0.05574387  1
  O  O261  1  0.12118537  0.38050462  0.28767946  1
  O  O262  1  0.12750365  0.38046894  0.52475801  1
  O  O263  1  0.12551996  0.37397088  0.79889331  1
  O  O264  1  0.12224155  0.62765782  0.05345598  1
  O  O265  1  0.12284181  0.62869834  0.30068166  1
  O  O266  1  0.12110459  0.61772946  0.53095062  1
  O  O267  1  0.12288587  0.61819004  0.79454981  1
  O  O268  1  0.12591254  0.87342025  0.05154485  1
  O  O269  1  0.12218062  0.87191812  0.30372884  1
  O  O270  1  0.11843077  0.86760712  0.53102780  1
  O  O271  1  0.12605876  0.87555866  0.77789117  1
  O  O272  1  0.37433394  0.12901123  0.04693063  1
  O  O273  1  0.37100953  0.12401106  0.28238172  1
  O  O274  1  0.38500260  0.12863057  0.52317579  1
  O  O275  1  0.37618750  0.12464046  0.79953706  1
  O  O276  1  0.36873526  0.36464636  0.03758081  1
  O  O277  1  0.37796385  0.38376655  0.29298931  1
  O  O278  1  0.38384281  0.37918805  0.54491432  1
  O  O279  1  0.37532881  0.38353221  0.78995436  1
  O  O280  1  0.36910819  0.62963465  0.05479105  1
  O  O281  1  0.37435160  0.62802265  0.28337123  1
  O  O282  1  0.38023328  0.61870412  0.54554887  1
  O  O283  1  0.37895176  0.61871439  0.78444280  1
  O  O284  1  0.37262862  0.87405007  0.05543310  1
  O  O285  1  0.37643407  0.86575775  0.28993794  1
  O  O286  1  0.37814002  0.87045419  0.52651989  1
  O  O287  1  0.37850135  0.87508450  0.79430250  1
  O  O288  1  0.62409668  0.12205803  0.05207726  1
  O  O289  1  0.63013626  0.12494029  0.29290898  1
  O  O290  1  0.62383340  0.13568100  0.53675838  1
  O  O291  1  0.61678458  0.12655266  0.78583093  1
  O  O292  1  0.62618419  0.37448279  0.05236012  1
  O  O293  1  0.62982763  0.38063330  0.28150511  1
  O  O294  1  0.62399074  0.37512738  0.54649871  1
  O  O295  1  0.62419910  0.37282799  0.80014555  1
  O  O296  1  0.62805404  0.63498436  0.03736864  1
  O  O297  1  0.62671912  0.62199323  0.29264630  1
  O  O298  1  0.62942423  0.61896109  0.53747989  1
  O  O299  1  0.62371626  0.63081646  0.78878651  1
  O  O300  1  0.62473572  0.87719289  0.05568334  1
  O  O301  1  0.63253946  0.87763143  0.28224104  1
  O  O302  1  0.62376112  0.87457621  0.54278014  1
  O  O303  1  0.62162494  0.87677232  0.79898345  1
  O  O304  1  0.87629913  0.12222943  0.05198368  1
  O  O305  1  0.87622426  0.12027792  0.29409419  1
  O  O306  1  0.86916258  0.13173011  0.54530600  1
  O  O307  1  0.87328319  0.12994678  0.78247386  1
  O  O308  1  0.87833338  0.38138310  0.04592081  1
  O  O309  1  0.87041165  0.37939452  0.27702982  1
  O  O310  1  0.86939345  0.37158133  0.54556598  1
  O  O311  1  0.86935346  0.37187437  0.78806068  1
  O  O312  1  0.87898717  0.62895547  0.05225819  1
  O  O313  1  0.87698213  0.62947430  0.29957415  1
  O  O314  1  0.86646557  0.61651803  0.53054797  1
  O  O315  1  0.87455899  0.62021428  0.79750750  1
  O  O316  1  0.87658645  0.87358066  0.05122945  1
  O  O317  1  0.87154173  0.86954892  0.29599151  1
  O  O318  1  0.87584061  0.88269470  0.52922393  1
  O  O319  1  0.87148394  0.88289595  0.77948718  1
