# generated using pymatgen
data_VFe(PbO3)2
_symmetry_space_group_name_H-M   'P 1'
_cell_length_a   15.38018196
_cell_length_b   15.38154696
_cell_length_c   18.45154441
_cell_angle_alpha   89.98842279
_cell_angle_beta   89.96887207
_cell_angle_gamma   89.99234907
_symmetry_Int_Tables_number   1
_chemical_formula_structural   VFe(PbO3)2
_chemical_formula_sum   'V32 Fe32 Pb64 O192'
_cell_volume   4365.09937554
_cell_formula_units_Z   32
loop_
 _symmetry_equiv_pos_site_id
 _symmetry_equiv_pos_as_xyz
  1  'x, y, z'
loop_
 _atom_site_type_symbol
 _atom_site_label
 _atom_site_symmetry_multiplicity
 _atom_site_fract_x
 _atom_site_fract_y
 _atom_site_fract_z
 _atom_site_occupancy
  V  V0  1  0.62361493  0.37629946  0.63626565  1
  V  V1  1  0.37438211  0.62429175  0.38763875  1
  V  V2  1  0.87373820  0.62534605  0.89056887  1
  V  V3  1  0.12086894  0.87168059  0.88810298  1
  V  V4  1  0.62076073  0.87729378  0.13857113  1
  V  V5  1  0.87212619  0.87662750  0.14526625  1
  V  V6  1  0.87458705  0.37160801  0.14252591  1
  V  V7  1  0.87234283  0.62361623  0.63071510  1
  V  V8  1  0.62463338  0.12433634  0.63712916  1
  V  V9  1  0.37291893  0.87784650  0.13681443  1
  V  V10  1  0.12261287  0.87807928  0.14056439  1
  V  V11  1  0.12590787  0.12473119  0.63486421  1
  V  V12  1  0.87587025  0.37627845  0.38886276  1
  V  V13  1  0.87538808  0.12547189  0.88459055  1
  V  V14  1  0.87828381  0.12579064  0.14554664  1
  V  V15  1  0.12242666  0.62424465  0.89184199  1
  V  V16  1  0.12305457  0.37380222  0.14160058  1
  V  V17  1  0.12270877  0.12532506  0.39349810  1
  V  V18  1  0.62527554  0.37246226  0.14031995  1
  V  V19  1  0.37208225  0.12480269  0.14101816  1
  V  V20  1  0.62276270  0.62443729  0.89033292  1
  V  V21  1  0.12305780  0.12626749  0.88346065  1
  V  V22  1  0.37395443  0.87447564  0.63971684  1
  V  V23  1  0.37550198  0.12283871  0.38884941  1
  V  V24  1  0.12096293  0.37840985  0.88891848  1
  V  V25  1  0.87114630  0.12348985  0.39339359  1
  V  V26  1  0.12321432  0.62477858  0.38702620  1
  V  V27  1  0.37674809  0.87335579  0.39200410  1
  V  V28  1  0.12569894  0.62569289  0.63464354  1
  V  V29  1  0.12413166  0.12453194  0.14366373  1
  V  V30  1  0.62514235  0.12580565  0.88701886  1
  V  V31  1  0.62305487  0.87689605  0.39214745  1
  Fe  Fe32  1  0.12695739  0.87336155  0.62735646  1
  Fe  Fe33  1  0.87474001  0.87449035  0.62694651  1
  Fe  Fe34  1  0.62240038  0.37092741  0.38252142  1
  Fe  Fe35  1  0.87475324  0.37596468  0.63160839  1
  Fe  Fe36  1  0.87387491  0.37674801  0.88769702  1
  Fe  Fe37  1  0.62777515  0.12187115  0.14225120  1
  Fe  Fe38  1  0.37389104  0.37587567  0.63751613  1
  Fe  Fe39  1  0.87544555  0.62526232  0.37983866  1
  Fe  Fe40  1  0.62573414  0.62316861  0.62818425  1
  Fe  Fe41  1  0.37601034  0.12541416  0.64572511  1
  Fe  Fe42  1  0.13035649  0.87576184  0.39972236  1
  Fe  Fe43  1  0.37431544  0.37243818  0.14283232  1
  Fe  Fe44  1  0.37629329  0.37538489  0.88504165  1
  Fe  Fe45  1  0.62434307  0.87436463  0.63664065  1
  Fe  Fe46  1  0.62333609  0.62470478  0.38913957  1
  Fe  Fe47  1  0.62928313  0.87312322  0.88270665  1
  Fe  Fe48  1  0.12451402  0.62748904  0.13570710  1
  Fe  Fe49  1  0.62566380  0.62639394  0.13704975  1
  Fe  Fe50  1  0.87470223  0.87477210  0.39308510  1
  Fe  Fe51  1  0.37500981  0.37395313  0.37811661  1
  Fe  Fe52  1  0.37608922  0.62524777  0.63557632  1
  Fe  Fe53  1  0.37271483  0.12458123  0.87789210  1
  Fe  Fe54  1  0.87760920  0.62324985  0.15079095  1
  Fe  Fe55  1  0.12853056  0.37228208  0.39752397  1
  Fe  Fe56  1  0.87390142  0.87419936  0.88581884  1
  Fe  Fe57  1  0.62261716  0.12499238  0.38361247  1
  Fe  Fe58  1  0.12553863  0.37663494  0.62745281  1
  Fe  Fe59  1  0.62951540  0.37728007  0.88738095  1
  Fe  Fe60  1  0.37157205  0.62589300  0.88673634  1
  Fe  Fe61  1  0.87166902  0.12688285  0.62975200  1
  Fe  Fe62  1  0.37285183  0.62721380  0.13388947  1
  Fe  Fe63  1  0.37714452  0.87546244  0.88435214  1
  Pb  Pb64  1  -0.00037431  0.00021968  -0.00384249  1
  Pb  Pb65  1  0.00057067  -0.01230880  0.26310315  1
  Pb  Pb66  1  -0.00051698  -0.00721608  0.50308822  1
  Pb  Pb67  1  -0.00528318  -0.00495130  0.73778390  1
  Pb  Pb68  1  0.00024716  0.25081080  -0.00295724  1
  Pb  Pb69  1  0.00699936  0.25424039  0.25933075  1
  Pb  Pb70  1  -0.00863572  0.24930459  0.50575329  1
  Pb  Pb71  1  -0.00463007  0.25444998  0.74047132  1
  Pb  Pb72  1  -0.00187742  0.51108074  0.00880453  1
  Pb  Pb73  1  0.00212227  0.50291117  0.25296214  1
  Pb  Pb74  1  0.00031118  0.49049948  0.50020708  1
  Pb  Pb75  1  -0.00290761  0.49644013  0.74438219  1
  Pb  Pb76  1  -0.00364489  0.74002072  0.00908325  1
  Pb  Pb77  1  -0.00383017  0.75384619  0.25633984  1
  Pb  Pb78  1  -0.00178032  0.75631834  0.49567702  1
  Pb  Pb79  1  -0.00379708  0.75430171  0.74165946  1
  Pb  Pb80  1  0.25111740  0.00179199  -0.00702923  1
  Pb  Pb81  1  0.24279315  -0.00554418  0.25604062  1
  Pb  Pb82  1  0.25869235  0.00870930  0.50751163  1
  Pb  Pb83  1  0.25403391  -0.00256359  0.75016327  1
  Pb  Pb84  1  0.25599402  0.25511009  -0.00264440  1
  Pb  Pb85  1  0.24729104  0.25945492  0.25928736  1
  Pb  Pb86  1  0.26381771  0.25196909  0.50570303  1
  Pb  Pb87  1  0.25439004  0.25569685  0.74595898  1
  Pb  Pb88  1  0.26135841  0.49913700  0.00438243  1
  Pb  Pb89  1  0.25477106  0.49599805  0.24737427  1
  Pb  Pb90  1  0.25642021  0.48785473  0.50195462  1
  Pb  Pb91  1  0.25766289  0.50008733  0.74768615  1
  Pb  Pb92  1  0.25203785  0.74362389  -0.00011570  1
  Pb  Pb93  1  0.24377686  0.75345083  0.24809443  1
  Pb  Pb94  1  0.25528667  0.74353017  0.50388728  1
  Pb  Pb95  1  0.25881607  0.74789990  0.75215303  1
  Pb  Pb96  1  0.50311240  0.00293731  -0.00583759  1
  Pb  Pb97  1  0.50222799  0.00466191  0.25176966  1
  Pb  Pb98  1  0.50302419  -0.00086978  0.50553895  1
  Pb  Pb99  1  0.49747052  -0.00589405  0.75178869  1
  Pb  Pb100  1  0.49588103  0.25360352  -0.00324264  1
  Pb  Pb101  1  0.50802700  0.25038313  0.25361347  1
  Pb  Pb102  1  0.49648943  0.25410951  0.49720086  1
  Pb  Pb103  1  0.49526514  0.25498235  0.75035844  1
  Pb  Pb104  1  0.49324658  0.49905594  0.00024141  1
  Pb  Pb105  1  0.50122162  0.49832466  0.24547308  1
  Pb  Pb106  1  0.49810759  0.49836649  0.49470078  1
  Pb  Pb107  1  0.49413354  0.50165808  0.74756541  1
  Pb  Pb108  1  0.49780457  0.74713248  -0.00403387  1
  Pb  Pb109  1  0.50280092  0.73969937  0.25045749  1
  Pb  Pb110  1  0.50217054  0.74047520  0.50712392  1
  Pb  Pb111  1  0.50382460  0.74628955  0.74559253  1
  Pb  Pb112  1  0.74602307  0.00378998  -0.00055919  1
  Pb  Pb113  1  0.75712330  -0.00416956  0.25680742  1
  Pb  Pb114  1  0.74702593  -0.01032394  0.50667065  1
  Pb  Pb115  1  0.75307632  -0.01001767  0.74600234  1
  Pb  Pb116  1  0.74625157  0.24738307  0.00025541  1
  Pb  Pb117  1  0.74306008  0.25068725  0.25440297  1
  Pb  Pb118  1  0.75446398  0.24948669  0.49950206  1
  Pb  Pb119  1  0.74910224  0.25758120  0.74796287  1
  Pb  Pb120  1  0.74991722  0.50666436  0.00571283  1
  Pb  Pb121  1  0.74326292  0.50579743  0.25292230  1
  Pb  Pb122  1  0.74406541  0.50372367  0.49194740  1
  Pb  Pb123  1  0.74911792  0.48970704  0.75040381  1
  Pb  Pb124  1  0.74960551  0.74482891  0.00394819  1
  Pb  Pb125  1  0.74897213  0.74057864  0.25712221  1
  Pb  Pb126  1  0.74827515  0.74896231  0.49601768  1
  Pb  Pb127  1  0.74811100  0.75756548  0.74425125  1
  O  O128  1  0.12429652  0.00087740  0.17191316  1
  O  O129  1  0.12896537  0.00966485  0.41923301  1
  O  O130  1  0.12529705  0.00279325  0.65821522  1
  O  O131  1  0.12045292  -0.00067793  0.91077564  1
  O  O132  1  0.12367703  0.24859441  0.16984479  1
  O  O133  1  0.13118037  0.23941690  0.41895355  1
  O  O134  1  0.12371500  0.24491456  0.65609730  1
  O  O135  1  0.12125670  0.25251939  0.91229000  1
  O  O136  1  0.12442217  0.49093581  0.16076552  1
  O  O137  1  0.13123696  0.50984247  0.41244461  1
  O  O138  1  0.12234990  0.50898015  0.66016193  1
  O  O139  1  0.11969595  0.49614423  0.91365831  1
  O  O140  1  0.12195668  0.75805176  0.16466591  1
  O  O141  1  0.13043491  0.74078959  0.41479671  1
  O  O142  1  0.12318647  0.74384224  0.66052303  1
  O  O143  1  0.12043510  0.75366577  0.91310075  1
  O  O144  1  0.37264799  -0.00101114  0.16912969  1
  O  O145  1  0.37682857  -0.00175126  0.41621839  1
  O  O146  1  0.37419046  -0.00586373  0.66415420  1
  O  O147  1  0.37237356  0.00196928  0.91370244  1
  O  O148  1  0.37244368  0.23929024  0.16216053  1
  O  O149  1  0.37295683  0.24118072  0.40744461  1
  O  O150  1  0.37562979  0.25135901  0.66611574  1
  O  O151  1  0.37317789  0.24806412  0.91278135  1
  O  O152  1  0.37314243  0.49979909  0.16315667  1
  O  O153  1  0.37659028  0.50723263  0.40120983  1
  O  O154  1  0.37420079  0.50081975  0.66353128  1
  O  O155  1  0.37287754  0.49997351  0.91617610  1
  O  O156  1  0.37453613  0.76051997  0.16285366  1
  O  O157  1  0.37814157  0.75471985  0.41475025  1
  O  O158  1  0.37383053  0.75510610  0.66290787  1
  O  O159  1  0.37139986  0.75138002  0.91590886  1
  O  O160  1  0.62850988  -0.00774972  0.16891328  1
  O  O161  1  0.62109495  -0.00217701  0.41566565  1
  O  O162  1  0.62450012  0.00737837  0.66053661  1
  O  O163  1  0.62836913  0.00701396  0.91226706  1
  O  O164  1  0.62574721  0.25100698  0.16419612  1
  O  O165  1  0.62368952  0.24715280  0.41497383  1
  O  O166  1  0.62501187  0.25236164  0.66128503  1
  O  O167  1  0.62833542  0.24320286  0.91439440  1
  O  O168  1  0.62652925  0.49292935  0.16082808  1
  O  O169  1  0.62286521  0.49664096  0.41057135  1
  O  O170  1  0.62696571  0.49385169  0.65763986  1
  O  O171  1  0.62981657  0.50837236  0.91716883  1
  O  O172  1  0.62778304  0.76248824  0.16439803  1
  O  O173  1  0.62148671  0.75891014  0.41253360  1
  O  O174  1  0.62551238  0.74750760  0.65956688  1
  O  O175  1  0.63019287  0.74231610  0.91369121  1
  O  O176  1  0.87735507  -0.00088597  0.17187016  1
  O  O177  1  0.87753575  0.00816097  0.41397815  1
  O  O178  1  0.87455786  0.00185291  0.65508128  1
  O  O179  1  0.87707594  0.00567655  0.91425204  1
  O  O180  1  0.87787623  0.25044847  0.17167214  1
  O  O181  1  0.87900666  0.24880225  0.41361265  1
  O  O182  1  0.87501575  0.25032393  0.66162803  1
  O  O183  1  0.87618896  0.24507665  0.91448779  1
  O  O184  1  0.87668641  0.48951337  0.16926034  1
  O  O185  1  0.87737800  0.49420416  0.40654967  1
  O  O186  1  0.87759826  0.50635253  0.65906071  1
  O  O187  1  0.87697772  0.50802519  0.91724805  1
  O  O188  1  0.87833759  0.76069518  0.16657025  1
  O  O189  1  0.87506393  0.74813695  0.41050984  1
  O  O190  1  0.87702692  0.74208420  0.65487442  1
  O  O191  1  0.87702660  0.74296194  0.91624227  1
  O  O192  1  0.00125945  0.12453997  0.17305096  1
  O  O193  1  0.00383034  0.12638844  0.41322501  1
  O  O194  1  0.00587600  0.12464143  0.65809525  1
  O  O195  1  0.00071222  0.12595168  0.91593371  1
  O  O196  1  0.00392419  0.37052546  0.16874476  1
  O  O197  1  -0.00368004  0.37293928  0.41381574  1
  O  O198  1  0.00201575  0.37769280  0.66027070  1
  O  O199  1  0.00309294  0.37395408  0.91668848  1
  O  O200  1  0.00471278  0.62405956  0.17352898  1
  O  O201  1  0.00657142  0.62394972  0.40446271  1
  O  O202  1  -0.00068428  0.62545717  0.65923516  1
  O  O203  1  -0.00277600  0.62534849  0.91851872  1
  O  O204  1  -0.00184207  0.88044154  0.16990770  1
  O  O205  1  0.00261315  0.87736944  0.41495917  1
  O  O206  1  0.00080510  0.87279517  0.65605774  1
  O  O207  1  0.00349589  0.87628307  0.91610802  1
  O  O208  1  0.25050410  0.12062164  0.16764522  1
  O  O209  1  0.25596912  0.12011297  0.41532867  1
  O  O210  1  0.24164766  0.12401294  0.66457735  1
  O  O211  1  0.24279538  0.12507359  0.90983471  1
  O  O212  1  0.24108957  0.36872367  0.16475385  1
  O  O213  1  0.25558291  0.37481020  0.41523815  1
  O  O214  1  0.24552990  0.37635242  0.66153298  1
  O  O215  1  0.23886282  0.37473791  0.91391850  1
  O  O216  1  0.24794644  0.62880989  0.16462591  1
  O  O217  1  0.25716312  0.63011862  0.41164559  1
  O  O218  1  0.24294618  0.62694029  0.65933968  1
  O  O219  1  0.24156119  0.62530574  0.91500960  1
  O  O220  1  0.24784351  0.87915018  0.16516362  1
  O  O221  1  0.26187011  0.87584259  0.41728195  1
  O  O222  1  0.25341682  0.87388298  0.66041671  1
  O  O223  1  0.23748163  0.87625937  0.91381985  1
  O  O224  1  0.49161300  0.11900296  0.16298607  1
  O  O225  1  0.49244518  0.12180142  0.41315368  1
  O  O226  1  0.50848447  0.12709067  0.66622076  1
  O  O227  1  0.50596712  0.12510028  0.90756457  1
  O  O228  1  0.50633670  0.37139355  0.15941593  1
  O  O229  1  0.49604714  0.37186254  0.41127023  1
  O  O230  1  0.50708212  0.37501304  0.66144139  1
  O  O231  1  0.50358048  0.37489625  0.91631364  1
  O  O232  1  0.49965907  0.62836741  0.16393737  1
  O  O233  1  0.49252864  0.63034535  0.41226922  1
  O  O234  1  0.50213046  0.62429877  0.66297963  1
  O  O235  1  0.50537296  0.62567910  0.90890215  1
  O  O236  1  0.50310102  0.88027977  0.15789887  1
  O  O237  1  0.49720832  0.87802878  0.41850068  1
  O  O238  1  0.49416542  0.87563904  0.66244852  1
  O  O239  1  0.50424626  0.87555795  0.91281409  1
  O  O240  1  0.75796053  0.12347014  0.16916582  1
  O  O241  1  0.75430062  0.12734533  0.40791835  1
  O  O242  1  0.74165358  0.12901687  0.66018515  1
  O  O243  1  0.75023485  0.12505320  0.91258189  1
  O  O244  1  0.74845658  0.37052391  0.16556565  1
  O  O245  1  0.75752230  0.37069460  0.40889568  1
  O  O246  1  0.74556837  0.37450929  0.65984236  1
  O  O247  1  0.75204104  0.37599149  0.92296086  1
  O  O248  1  0.74931296  0.62663675  0.16823459  1
  O  O249  1  0.75079781  0.62411220  0.40977954  1
  O  O250  1  0.75725817  0.62311711  0.65243282  1
  O  O251  1  0.75471832  0.62512872  0.91526507  1
  O  O252  1  0.75352180  0.87922459  0.16401582  1
  O  O253  1  0.74196425  0.87932887  0.41105200  1
  O  O254  1  0.75207686  0.87444394  0.66019564  1
  O  O255  1  0.75141004  0.87477542  0.91880883  1
  O  O256  1  0.12333568  0.12499190  0.05252623  1
  O  O257  1  0.12660600  0.12526335  0.30148503  1
  O  O258  1  0.13001358  0.12297999  0.54335115  1
  O  O259  1  0.12016937  0.12634727  0.79272195  1
  O  O260  1  0.12040581  0.36862514  0.05052850  1
  O  O261  1  0.12751913  0.36513918  0.29561717  1
  O  O262  1  0.12571724  0.38456392  0.52527307  1
  O  O263  1  0.12004751  0.37869118  0.79780515  1
  O  O264  1  0.11337207  0.62699106  0.03485888  1
  O  O265  1  0.12965628  0.62639597  0.29534754  1
  O  O266  1  0.12611600  0.62569226  0.54323929  1
  O  O267  1  0.11989559  0.62530614  0.80079882  1
  O  O268  1  0.12039818  0.88111923  0.04942504  1
  O  O269  1  0.13098232  0.88046801  0.29738865  1
  O  O270  1  0.12572340  0.87205682  0.52657836  1
  O  O271  1  0.12028562  0.87111587  0.79686097  1
  O  O272  1  0.36946295  0.12074284  0.04948901  1
  O  O273  1  0.37506063  0.11827536  0.29753029  1
  O  O274  1  0.37001543  0.12394107  0.54399364  1
  O  O275  1  0.37299922  0.12092231  0.77722110  1
  O  O276  1  0.36811350  0.37185749  0.04103501  1
  O  O277  1  0.36823099  0.37172334  0.27570720  1
  O  O278  1  0.37352224  0.37318164  0.53547279  1
  O  O279  1  0.37341484  0.37703609  0.78417441  1
  O  O280  1  0.37100703  0.62626075  0.03250481  1
  O  O281  1  0.37555849  0.63414370  0.29605561  1
  O  O282  1  0.37679388  0.63243615  0.53461227  1
  O  O283  1  0.36841720  0.62714124  0.78556699  1
  O  O284  1  0.37026737  0.88121371  0.04543229  1
  O  O285  1  0.37822441  0.87428455  0.30076675  1
  O  O286  1  0.37560919  0.87548373  0.54800389  1
  O  O287  1  0.36955201  0.87663018  0.78432773  1
  O  O288  1  0.62897414  0.11865162  0.04238229  1
  O  O289  1  0.61706643  0.12613183  0.28224266  1
  O  O290  1  0.62163744  0.12520746  0.54529408  1
  O  O291  1  0.62841164  0.12606935  0.79632079  1
  O  O292  1  0.62917155  0.37014937  0.04882418  1
  O  O293  1  0.62267130  0.36624896  0.28156848  1
  O  O294  1  0.62265498  0.37330731  0.54462228  1
  O  O295  1  0.63655482  0.37808134  0.78737090  1
  O  O296  1  0.63170257  0.62896937  0.03679639  1
  O  O297  1  0.62383142  0.63088660  0.28676917  1
  O  O298  1  0.62172196  0.62495347  0.52669278  1
  O  O299  1  0.62853480  0.62320490  0.79908048  1
  O  O300  1  0.62611801  0.87897780  0.04722570  1
  O  O301  1  0.61880514  0.87891626  0.30071224  1
  O  O302  1  0.62694907  0.88338579  0.53563991  1
  O  O303  1  0.63327142  0.87439101  0.78162546  1
  O  O304  1  0.87958585  0.12482960  0.05435354  1
  O  O305  1  0.87737717  0.12483963  0.30176699  1
  O  O306  1  0.87303582  0.13501993  0.52900367  1
  O  O307  1  0.87702999  0.12537608  0.79334312  1
  O  O308  1  0.87735047  0.37066770  0.05122493  1
  O  O309  1  0.87908577  0.37055892  0.29746344  1
  O  O310  1  0.87865098  0.37305933  0.53133087  1
  O  O311  1  0.87030725  0.38142232  0.78732040  1
  O  O312  1  0.88429566  0.62564992  0.04828140  1
  O  O313  1  0.87432818  0.62621100  0.27790204  1
  O  O314  1  0.87676672  0.62077771  0.53918026  1
  O  O315  1  0.87426070  0.62503266  0.79964010  1
  O  O316  1  0.87622943  0.87972558  0.05410143  1
  O  O317  1  0.87602429  0.88224775  0.29107246  1
  O  O318  1  0.87052869  0.87703856  0.52462488  1
  O  O319  1  0.87341736  0.87275065  0.78572098  1
