# generated using pymatgen
data_VFe(PbO3)2
_symmetry_space_group_name_H-M   'P 1'
_cell_length_a   15.38596547
_cell_length_b   15.37112422
_cell_length_c   18.53286656
_cell_angle_alpha   89.99189042
_cell_angle_beta   90.02134120
_cell_angle_gamma   89.99015289
_symmetry_Int_Tables_number   1
_chemical_formula_structural   VFe(PbO3)2
_chemical_formula_sum   'V32 Fe32 Pb64 O192'
_cell_volume   4383.01486582
_cell_formula_units_Z   32
loop_
 _symmetry_equiv_pos_site_id
 _symmetry_equiv_pos_as_xyz
  1  'x, y, z'
loop_
 _atom_site_type_symbol
 _atom_site_label
 _atom_site_symmetry_multiplicity
 _atom_site_fract_x
 _atom_site_fract_y
 _atom_site_fract_z
 _atom_site_occupancy
  V  V0  1  0.87312872  0.12057049  0.13880441  1
  V  V1  1  0.37385138  0.37568819  0.63873585  1
  V  V2  1  0.37347828  0.62591635  0.14541068  1
  V  V3  1  0.87692156  0.62364761  0.39367924  1
  V  V4  1  0.62765251  0.37783891  0.38830954  1
  V  V5  1  0.87640702  0.12290488  0.39133961  1
  V  V6  1  0.37756890  0.87240094  0.13702983  1
  V  V7  1  0.87547260  0.87435932  0.39218893  1
  V  V8  1  0.87584480  0.87548352  0.88575749  1
  V  V9  1  0.62431550  0.37460264  0.14095217  1
  V  V10  1  0.62408749  0.12646467  0.88974038  1
  V  V11  1  0.37443142  0.37638184  0.89383345  1
  V  V12  1  0.62498802  0.87486117  0.14094596  1
  V  V13  1  0.62139584  0.12550010  0.64080789  1
  V  V14  1  0.62697849  0.62382783  0.14393625  1
  V  V15  1  0.62526361  0.87821041  0.64167452  1
  V  V16  1  0.87247870  0.37553858  0.13902308  1
  V  V17  1  0.62524629  0.37795299  0.88877949  1
  V  V18  1  0.37493991  0.87533919  0.64099036  1
  V  V19  1  0.62655958  0.12503286  0.38908136  1
  V  V20  1  0.37317413  0.62627454  0.89012241  1
  V  V21  1  0.12511248  0.12294584  0.38758638  1
  V  V22  1  0.62015109  0.37176985  0.63724067  1
  V  V23  1  0.12865422  0.87186679  0.89076243  1
  V  V24  1  0.37441019  0.87789307  0.38584082  1
  V  V25  1  0.87701921  0.62277084  0.88834751  1
  V  V26  1  0.12529013  0.62706126  0.38677822  1
  V  V27  1  0.12763517  0.62552583  0.63789359  1
  V  V28  1  0.37708785  0.12513564  0.64073896  1
  V  V29  1  0.88477167  0.87283282  0.64062276  1
  V  V30  1  0.12369981  0.37701317  0.88939310  1
  V  V31  1  0.87229931  0.87141289  0.13644578  1
  Fe  Fe32  1  0.12142855  0.12585519  0.12971869  1
  Fe  Fe33  1  0.62580936  0.87146261  0.88319440  1
  Fe  Fe34  1  0.87477754  0.37665086  0.63419662  1
  Fe  Fe35  1  0.12422578  0.12558482  0.88959355  1
  Fe  Fe36  1  0.12721104  0.62300084  0.89238997  1
  Fe  Fe37  1  0.62809622  0.87854638  0.38634669  1
  Fe  Fe38  1  0.62090955  0.62543206  0.63270032  1
  Fe  Fe39  1  0.37674993  0.87310762  0.88560597  1
  Fe  Fe40  1  0.62321357  0.62190013  0.88248762  1
  Fe  Fe41  1  0.12038614  0.62559352  0.13347898  1
  Fe  Fe42  1  0.87363748  0.62929084  0.63365507  1
  Fe  Fe43  1  0.37800910  0.37790290  0.14207750  1
  Fe  Fe44  1  0.87509326  0.12718940  0.87691552  1
  Fe  Fe45  1  0.12241639  0.37540367  0.38684357  1
  Fe  Fe46  1  0.37442721  0.62651976  0.38613678  1
  Fe  Fe47  1  0.63026021  0.12667907  0.13437598  1
  Fe  Fe48  1  0.12447037  0.87506006  0.13343580  1
  Fe  Fe49  1  0.87418095  0.37540690  0.87933126  1
  Fe  Fe50  1  0.37806632  0.12339583  0.13277146  1
  Fe  Fe51  1  0.12157121  0.87580611  0.39157922  1
  Fe  Fe52  1  0.87248049  0.62503430  0.13507796  1
  Fe  Fe53  1  0.12779597  0.12397152  0.63678058  1
  Fe  Fe54  1  0.37420146  0.12587253  0.89261362  1
  Fe  Fe55  1  0.37529228  0.62463572  0.62966026  1
  Fe  Fe56  1  0.12968371  0.37315177  0.63044588  1
  Fe  Fe57  1  0.13011454  0.87567394  0.63181539  1
  Fe  Fe58  1  0.62762870  0.62817679  0.39145809  1
  Fe  Fe59  1  0.37431658  0.12300738  0.37926204  1
  Fe  Fe60  1  0.37539071  0.37239971  0.37654588  1
  Fe  Fe61  1  0.12333255  0.37515727  0.13554139  1
  Fe  Fe62  1  0.87421896  0.37143957  0.39440320  1
  Fe  Fe63  1  0.87216443  0.12153150  0.64618439  1
  Pb  Pb64  1  0.00525416  0.00075475  -0.00303993  1
  Pb  Pb65  1  0.00905450  -0.00446526  0.24992084  1
  Pb  Pb66  1  0.00167520  0.01158182  0.50872982  1
  Pb  Pb67  1  0.01143515  0.01231756  0.75145369  1
  Pb  Pb68  1  0.00138755  0.24725541  -0.00645822  1
  Pb  Pb69  1  0.00208880  0.25876116  0.25044615  1
  Pb  Pb70  1  0.00615944  0.24982951  0.50454390  1
  Pb  Pb71  1  -0.00053604  0.25075115  0.73995922  1
  Pb  Pb72  1  0.00802635  0.49844968  0.00296156  1
  Pb  Pb73  1  0.00199782  0.49611984  0.24908088  1
  Pb  Pb74  1  -0.00007810  0.48832773  0.50387364  1
  Pb  Pb75  1  -0.00576119  0.49381800  0.74296798  1
  Pb  Pb76  1  0.00268403  0.74619989  0.00340070  1
  Pb  Pb77  1  0.00587389  0.75204784  0.24714683  1
  Pb  Pb78  1  -0.00400694  0.74728073  0.50289128  1
  Pb  Pb79  1  0.01308176  0.74068900  0.75354514  1
  Pb  Pb80  1  0.25311166  0.00874699  0.00026832  1
  Pb  Pb81  1  0.24850036  0.00484302  0.24186264  1
  Pb  Pb82  1  0.24099491  0.00239725  0.50175306  1
  Pb  Pb83  1  0.25047265  0.00770229  0.75487296  1
  Pb  Pb84  1  0.24719639  0.24676951  0.00373940  1
  Pb  Pb85  1  0.25292781  0.24893162  0.23866488  1
  Pb  Pb86  1  0.24598250  0.25257481  0.49249777  1
  Pb  Pb87  1  0.24713471  0.24113438  0.75323762  1
  Pb  Pb88  1  0.24916838  0.48824659  0.00848964  1
  Pb  Pb89  1  0.24249553  0.48741253  0.25038640  1
  Pb  Pb90  1  0.25411196  0.49631127  0.49070216  1
  Pb  Pb91  1  0.24333112  0.50553411  0.75024694  1
  Pb  Pb92  1  0.23953301  0.74850437  0.00493745  1
  Pb  Pb93  1  0.24748664  0.75221697  0.24953124  1
  Pb  Pb94  1  0.24856202  0.75688484  0.49771486  1
  Pb  Pb95  1  0.25375124  0.74991425  0.75017639  1
  Pb  Pb96  1  0.49735116  0.00318452  -0.00162934  1
  Pb  Pb97  1  0.49971491  0.00426596  0.24638254  1
  Pb  Pb98  1  0.49833514  -0.00291115  0.49618920  1
  Pb  Pb99  1  0.49276512  -0.00780089  0.75779790  1
  Pb  Pb100  1  0.49218972  0.24950324  0.00667637  1
  Pb  Pb101  1  0.49067580  0.24520400  0.24725811  1
  Pb  Pb102  1  0.49675269  0.24965426  0.49278767  1
  Pb  Pb103  1  0.49162020  0.24490170  0.75524644  1
  Pb  Pb104  1  0.49484210  0.49517587  0.00396512  1
  Pb  Pb105  1  0.49462659  0.50829804  0.25897990  1
  Pb  Pb106  1  0.49539619  0.51031356  0.49661743  1
  Pb  Pb107  1  0.50185151  0.50740834  0.74664161  1
  Pb  Pb108  1  0.50548749  0.75134861  -0.00502529  1
  Pb  Pb109  1  0.50286461  0.74352390  0.25858057  1
  Pb  Pb110  1  0.50264186  0.74362609  0.49836162  1
  Pb  Pb111  1  0.50064426  0.75327275  0.75037767  1
  Pb  Pb112  1  0.74488345  0.00552886  -0.00384340  1
  Pb  Pb113  1  0.74692103  -0.00491147  0.25139598  1
  Pb  Pb114  1  0.75807252  0.00509834  0.50592655  1
  Pb  Pb115  1  0.74787890  -0.00030060  0.75258997  1
  Pb  Pb116  1  0.74790049  0.24677090  -0.00412082  1
  Pb  Pb117  1  0.75809603  0.25758320  0.25419801  1
  Pb  Pb118  1  0.76018881  0.24617108  0.50708044  1
  Pb  Pb119  1  0.75990894  0.25385610  0.74901572  1
  Pb  Pb120  1  0.75794337  0.50566228  -0.00086994  1
  Pb  Pb121  1  0.74955021  0.50227106  0.25418307  1
  Pb  Pb122  1  0.75902193  0.50020514  0.50562047  1
  Pb  Pb123  1  0.74918639  0.50339053  0.74253501  1
  Pb  Pb124  1  0.75428692  0.74419826  -0.00388896  1
  Pb  Pb125  1  0.73902608  0.74910623  0.25752333  1
  Pb  Pb126  1  0.74580421  0.74411081  0.50382355  1
  Pb  Pb127  1  0.73853976  0.74618802  0.74889616  1
  O  O128  1  0.12003141  0.00013907  0.16260523  1
  O  O129  1  0.12296440  0.00531440  0.41503973  1
  O  O130  1  0.12942333  -0.00315099  0.66653954  1
  O  O131  1  0.12098280  -0.01071552  0.91066006  1
  O  O132  1  0.12030124  0.24884696  0.16236377  1
  O  O133  1  0.12107314  0.24153421  0.41029136  1
  O  O134  1  0.12924116  0.25002040  0.66333092  1
  O  O135  1  0.12603891  0.25855459  0.91083360  1
  O  O136  1  0.12259366  0.50213721  0.16510129  1
  O  O137  1  0.12136105  0.51111169  0.41105068  1
  O  O138  1  0.12931294  0.50630992  0.66118565  1
  O  O139  1  0.12666312  0.49551634  0.91632041  1
  O  O140  1  0.12457940  0.75120958  0.16595689  1
  O  O141  1  0.12198286  0.74470668  0.41556255  1
  O  O142  1  0.12952127  0.74676066  0.66424145  1
  O  O143  1  0.12188771  0.75268667  0.91694450  1
  O  O144  1  0.37906728  -0.00996300  0.15867167  1
  O  O145  1  0.37406883  -0.00255476  0.41405319  1
  O  O146  1  0.37841582  -0.00140503  0.66543696  1
  O  O147  1  0.37561602  -0.00229821  0.91564427  1
  O  O148  1  0.38010890  0.24988031  0.15854929  1
  O  O149  1  0.37715008  0.24702200  0.40918730  1
  O  O150  1  0.37683702  0.25248525  0.66626871  1
  O  O151  1  0.37658311  0.25638199  0.91907339  1
  O  O152  1  0.38076283  0.51000043  0.16568235  1
  O  O153  1  0.37740758  0.49721337  0.40788709  1
  O  O154  1  0.37588436  0.49317507  0.66012825  1
  O  O155  1  0.37601931  0.50075925  0.91944770  1
  O  O156  1  0.37937759  0.75284212  0.16804943  1
  O  O157  1  0.37506499  0.76046981  0.41042344  1
  O  O158  1  0.37679442  0.75587810  0.65929297  1
  O  O159  1  0.37447613  0.74245390  0.91368477  1
  O  O160  1  0.63039180  -0.00348907  0.16423508  1
  O  O161  1  0.62829152  0.00622903  0.41606241  1
  O  O162  1  0.61839824  -0.00111467  0.66793050  1
  O  O163  1  0.62693900  0.00563219  0.90920146  1
  O  O164  1  0.62955756  0.25801545  0.16249744  1
  O  O165  1  0.62837871  0.24282646  0.41547913  1
  O  O166  1  0.61913696  0.25207092  0.66582527  1
  O  O167  1  0.62521250  0.25177571  0.91382582  1
  O  O168  1  0.62932590  0.49776634  0.16957369  1
  O  O169  1  0.62793996  0.49313808  0.40681891  1
  O  O170  1  0.61784587  0.49125428  0.65892128  1
  O  O171  1  0.62245827  0.49456785  0.91284476  1
  O  O172  1  0.62876638  0.75125357  0.16807741  1
  O  O173  1  0.62782366  0.75581514  0.41674551  1
  O  O174  1  0.61889477  0.75833778  0.65945429  1
  O  O175  1  0.62614514  0.74529392  0.91387776  1
  O  O176  1  0.87166794  0.00139307  0.16101043  1
  O  O177  1  0.87485289  -0.00115053  0.41868222  1
  O  O178  1  0.87066634  -0.01403830  0.66975892  1
  O  O179  1  0.87410029  -0.00746836  0.90570750  1
  O  O180  1  0.87091294  0.25315114  0.16232472  1
  O  O181  1  0.87403195  0.24220903  0.42058509  1
  O  O182  1  0.86990773  0.25112480  0.65935088  1
  O  O183  1  0.87287139  0.25182482  0.90833698  1
  O  O184  1  0.87010212  0.49305719  0.16287393  1
  O  O185  1  0.87407547  0.50615464  0.41364002  1
  O  O186  1  0.87316982  0.50374345  0.66101283  1
  O  O187  1  0.87442614  0.50315190  0.91092532  1
  O  O188  1  0.87137285  0.75737765  0.15908669  1
  O  O189  1  0.87611058  0.75287062  0.41528277  1
  O  O190  1  0.87081529  0.75822511  0.66732026  1
  O  O191  1  0.87368684  0.74678648  0.91242127  1
  O  O192  1  -0.01243583  0.12694605  0.16316664  1
  O  O193  1  0.00110216  0.12230445  0.41722395  1
  O  O194  1  0.00012712  0.12128515  0.66334144  1
  O  O195  1  -0.00237549  0.12352478  0.91001237  1
  O  O196  1  -0.01014238  0.37465846  0.16154479  1
  O  O197  1  -0.00060071  0.37442772  0.41882098  1
  O  O198  1  0.00315095  0.37742531  0.65705668  1
  O  O199  1  0.00540050  0.37805147  0.90713372  1
  O  O200  1  -0.00462153  0.62644735  0.16381808  1
  O  O201  1  -0.00194484  0.62887519  0.41521282  1
  O  O202  1  0.00745405  0.62849383  0.66131296  1
  O  O203  1  -0.00588746  0.62467018  0.91166017  1
  O  O204  1  -0.01042336  0.87720140  0.16103416  1
  O  O205  1  -0.00851251  0.87646121  0.41850856  1
  O  O206  1  -0.00054831  0.87159736  0.65585268  1
  O  O207  1  -0.00527924  0.86957674  0.91293598  1
  O  O208  1  0.24984819  0.12155058  0.15565215  1
  O  O209  1  0.24331059  0.12350163  0.40539098  1
  O  O210  1  0.25766599  0.12388974  0.66651294  1
  O  O211  1  0.24803811  0.12610993  0.91816832  1
  O  O212  1  0.25055660  0.37786013  0.16099947  1
  O  O213  1  0.24914526  0.37416014  0.40758801  1
  O  O214  1  0.25836271  0.37466325  0.66262480  1
  O  O215  1  0.24869895  0.37700504  0.91799691  1
  O  O216  1  0.25706956  0.63016192  0.16246584  1
  O  O217  1  0.24309087  0.62807180  0.40708423  1
  O  O218  1  0.24877883  0.62616686  0.66308203  1
  O  O219  1  0.25762857  0.62191370  0.91828974  1
  O  O220  1  0.25830381  0.87253167  0.15913799  1
  O  O221  1  0.25449295  0.87701187  0.41206642  1
  O  O222  1  0.25829521  0.87537206  0.66275714  1
  O  O223  1  0.24435746  0.86985512  0.90980774  1
  O  O224  1  0.50551737  0.12256683  0.16134075  1
  O  O225  1  0.50745727  0.12277778  0.40935629  1
  O  O226  1  0.49899468  0.12590533  0.67192579  1
  O  O227  1  0.50752362  0.12813976  0.91400555  1
  O  O228  1  0.51057240  0.37950885  0.16348576  1
  O  O229  1  0.51044818  0.36805475  0.40918669  1
  O  O230  1  0.49660182  0.37215185  0.66732719  1
  O  O231  1  0.50400577  0.37465821  0.91783321  1
  O  O232  1  0.50248807  0.62889550  0.17041225  1
  O  O233  1  0.50087348  0.62722425  0.41292937  1
  O  O234  1  0.49682920  0.62427716  0.66309525  1
  O  O235  1  0.49224908  0.62136084  0.91334672  1
  O  O236  1  0.50000080  0.87288429  0.16321416  1
  O  O237  1  0.49517659  0.88064673  0.40994792  1
  O  O238  1  0.49770058  0.87756170  0.66653605  1
  O  O239  1  0.50218661  0.87307750  0.91680414  1
  O  O240  1  0.75739484  0.12725231  0.16821705  1
  O  O241  1  0.74901136  0.12298540  0.41719304  1
  O  O242  1  0.73974301  0.12112497  0.66674727  1
  O  O243  1  0.74648429  0.12601113  0.91136105  1
  O  O244  1  0.75023915  0.37572896  0.16802734  1
  O  O245  1  0.74242212  0.37025766  0.42012871  1
  O  O246  1  0.73735161  0.37439140  0.65709002  1
  O  O247  1  0.74215052  0.37596902  0.91010265  1
  O  O248  1  0.74792604  0.62472403  0.17018790  1
  O  O249  1  0.75786304  0.62821582  0.41563015  1
  O  O250  1  0.74615583  0.62775945  0.66005896  1
  O  O251  1  0.75475392  0.62224157  0.91147582  1
  O  O252  1  0.75463791  0.87746884  0.16535381  1
  O  O253  1  0.75949071  0.87722820  0.41844856  1
  O  O254  1  0.74106076  0.87616128  0.66100598  1
  O  O255  1  0.75682698  0.87142923  0.90997823  1
  O  O256  1  0.11675276  0.12504519  0.02870746  1
  O  O257  1  0.11799927  0.11930802  0.29651358  1
  O  O258  1  0.12601964  0.12100706  0.53597842  1
  O  O259  1  0.13264781  0.11923056  0.78802363  1
  O  O260  1  0.12035318  0.38045636  0.03509075  1
  O  O261  1  0.11575418  0.38083965  0.28556325  1
  O  O262  1  0.12954619  0.37291766  0.52989034  1
  O  O263  1  0.13118193  0.38145138  0.79846138  1
  O  O264  1  0.12089601  0.62934444  0.03182953  1
  O  O265  1  0.12036084  0.62974494  0.29561158  1
  O  O266  1  0.12843722  0.62655017  0.54728229  1
  O  O267  1  0.13013445  0.62903257  0.79222277  1
  O  O268  1  0.12180278  0.86987579  0.03385044  1
  O  O269  1  0.11672675  0.87608708  0.29141055  1
  O  O270  1  0.13624074  0.87602280  0.53139893  1
  O  O271  1  0.12357592  0.86673781  0.79933253  1
  O  O272  1  0.37949957  0.12246116  0.03081162  1
  O  O273  1  0.38005048  0.12004595  0.27948868  1
  O  O274  1  0.37811123  0.12589472  0.54975231  1
  O  O275  1  0.37363830  0.13084764  0.79175142  1
  O  O276  1  0.38236831  0.38368696  0.04021669  1
  O  O277  1  0.37926951  0.37476093  0.27579168  1
  O  O278  1  0.37723060  0.37165683  0.54781738  1
  O  O279  1  0.37390999  0.37866089  0.80299067  1
  O  O280  1  0.37912821  0.62883862  0.05490162  1
  O  O281  1  0.38365640  0.63127022  0.28580435  1
  O  O282  1  0.37839198  0.62173214  0.52963699  1
  O  O283  1  0.36996252  0.62350193  0.79870187  1
  O  O284  1  0.37947068  0.86772841  0.04630004  1
  O  O285  1  0.37331040  0.87947909  0.29487773  1
  O  O286  1  0.37839994  0.87966058  0.54996682  1
  O  O287  1  0.38147121  0.87147533  0.78581071  1
  O  O288  1  0.63717725  0.12518719  0.03491599  1
  O  O289  1  0.63023389  0.12506151  0.29820840  1
  O  O290  1  0.61920695  0.12476232  0.54996679  1
  O  O291  1  0.62402106  0.12940675  0.79900022  1
  O  O292  1  0.62787411  0.37798231  0.04998590  1
  O  O293  1  0.63279690  0.37114764  0.29734298  1
  O  O294  1  0.61471154  0.36880937  0.54682522  1
  O  O295  1  0.62152524  0.37617860  0.79817822  1
  O  O296  1  0.62619975  0.62204491  0.05293089  1
  O  O297  1  0.62828475  0.63173694  0.29012920  1
  O  O298  1  0.62075734  0.62886128  0.53136352  1
  O  O299  1  0.62350007  0.62301969  0.78276884  1
  O  O300  1  0.62752096  0.87320205  0.04989274  1
  O  O301  1  0.63642297  0.87713627  0.28659153  1
  O  O302  1  0.62013581  0.88314462  0.55055917  1
  O  O303  1  0.62050184  0.87063704  0.78366707  1
  O  O304  1  0.87013307  0.12206871  0.04759140  1
  O  O305  1  0.87718503  0.12350927  0.30049452  1
  O  O306  1  0.86976390  0.11339164  0.54441218  1
  O  O307  1  0.86884152  0.12404110  0.77619491  1
  O  O308  1  0.87038973  0.37585238  0.04805786  1
  O  O309  1  0.87087595  0.36824729  0.29411063  1
  O  O310  1  0.86886613  0.38142870  0.53211154  1
  O  O311  1  0.87075919  0.37797861  0.77936747  1
  O  O312  1  0.86574063  0.62283180  0.03533211  1
  O  O313  1  0.87699572  0.62686251  0.30285512  1
  O  O314  1  0.87526208  0.63120354  0.53394646  1
  O  O315  1  0.87591931  0.62529688  0.79711692  1
  O  O316  1  0.87081316  0.87496069  0.04546999  1
  O  O317  1  0.87469352  0.87605160  0.30126068  1
  O  O318  1  0.87457687  0.87459224  0.54963875  1
  O  O319  1  0.87795900  0.86988422  0.79551677  1
