# generated using pymatgen
data_VFe(PbO3)2
_symmetry_space_group_name_H-M   'P 1'
_cell_length_a   15.38727971
_cell_length_b   15.38390697
_cell_length_c   18.48651958
_cell_angle_alpha   89.99041121
_cell_angle_beta   90.01652061
_cell_angle_gamma   90.00590189
_symmetry_Int_Tables_number   1
_chemical_formula_structural   VFe(PbO3)2
_chemical_formula_sum   'V32 Fe32 Pb64 O192'
_cell_volume   4376.06356963
_cell_formula_units_Z   32
loop_
 _symmetry_equiv_pos_site_id
 _symmetry_equiv_pos_as_xyz
  1  'x, y, z'
loop_
 _atom_site_type_symbol
 _atom_site_label
 _atom_site_symmetry_multiplicity
 _atom_site_fract_x
 _atom_site_fract_y
 _atom_site_fract_z
 _atom_site_occupancy
  V  V0  1  0.12228634  0.62114122  0.64101121  1
  V  V1  1  0.12271920  0.87287470  0.63852991  1
  V  V2  1  0.87194823  0.12694429  0.39028016  1
  V  V3  1  0.87956516  0.12408410  0.63510398  1
  V  V4  1  0.62515639  0.37755925  0.13949288  1
  V  V5  1  0.88005746  0.63047360  0.63898610  1
  V  V6  1  0.87414790  0.62028649  0.88970659  1
  V  V7  1  0.37281382  0.87630833  0.88696217  1
  V  V8  1  0.87746032  0.87487100  0.88952263  1
  V  V9  1  0.37096134  0.12244416  0.63271374  1
  V  V10  1  0.62359170  0.87367231  0.39919128  1
  V  V11  1  0.13121271  0.87671900  0.14192453  1
  V  V12  1  0.37194932  0.12519060  0.14212808  1
  V  V13  1  0.62450453  0.62531053  0.13633382  1
  V  V14  1  0.62446905  0.37616009  0.40037054  1
  V  V15  1  0.87238220  0.37924741  0.38818310  1
  V  V16  1  0.12890649  0.12338436  0.89041066  1
  V  V17  1  0.87872958  0.37887454  0.64035625  1
  V  V18  1  0.87230418  0.87282710  0.39212033  1
  V  V19  1  0.12321513  0.62764352  0.38463071  1
  V  V20  1  0.62646789  0.37760050  0.88451691  1
  V  V21  1  0.37816683  0.12448646  0.88734304  1
  V  V22  1  0.62500064  0.12602139  0.88451218  1
  V  V23  1  0.87364969  0.12665106  0.14412865  1
  V  V24  1  0.87629897  0.12263099  0.88631401  1
  V  V25  1  0.87290014  0.37315620  0.14064964  1
  V  V26  1  0.62436438  0.12178813  0.40500886  1
  V  V27  1  0.62627563  0.62597119  0.39438883  1
  V  V28  1  0.37731907  0.12527652  0.39274667  1
  V  V29  1  0.62318281  0.12827486  0.14137830  1
  V  V30  1  0.37500329  0.87453007  0.39412129  1
  V  V31  1  0.87408861  0.87866627  0.14049988  1
  Fe  Fe32  1  0.62612562  0.12763283  0.62816125  1
  Fe  Fe33  1  0.62854865  0.62296872  0.64399000  1
  Fe  Fe34  1  0.37215176  0.62701108  0.63953974  1
  Fe  Fe35  1  0.12383625  0.62532290  0.13074321  1
  Fe  Fe36  1  0.37610106  0.62570931  0.13404158  1
  Fe  Fe37  1  0.12518757  0.12107477  0.39125010  1
  Fe  Fe38  1  0.87838906  0.87446159  0.63230886  1
  Fe  Fe39  1  0.12433913  0.12493755  0.62785650  1
  Fe  Fe40  1  0.12522545  0.37280537  0.13675831  1
  Fe  Fe41  1  0.37618066  0.62312062  0.87689198  1
  Fe  Fe42  1  0.12555145  0.87198950  0.38255808  1
  Fe  Fe43  1  0.87262678  0.62454286  0.13928728  1
  Fe  Fe44  1  0.12355662  0.37388999  0.88792632  1
  Fe  Fe45  1  0.87277079  0.62537617  0.38181400  1
  Fe  Fe46  1  0.37648187  0.37597588  0.39559822  1
  Fe  Fe47  1  0.12307391  0.12494994  0.14326862  1
  Fe  Fe48  1  0.12347510  0.37670135  0.38832273  1
  Fe  Fe49  1  0.87546140  0.36981755  0.88426942  1
  Fe  Fe50  1  0.62552491  0.62728958  0.87735413  1
  Fe  Fe51  1  0.37402366  0.37129523  0.88462540  1
  Fe  Fe52  1  0.37220844  0.37396850  0.62654065  1
  Fe  Fe53  1  0.37871766  0.37337817  0.13496577  1
  Fe  Fe54  1  0.37509365  0.62676084  0.38896411  1
  Fe  Fe55  1  0.62554694  0.87789538  0.88837106  1
  Fe  Fe56  1  0.62633362  0.37379216  0.63135790  1
  Fe  Fe57  1  0.12465969  0.87758558  0.88857382  1
  Fe  Fe58  1  0.62795959  0.87477020  0.63127338  1
  Fe  Fe59  1  0.37224712  0.87426127  0.63418651  1
  Fe  Fe60  1  0.12343760  0.37412511  0.62916405  1
  Fe  Fe61  1  0.62626280  0.87653157  0.13213264  1
  Fe  Fe62  1  0.37911168  0.87831435  0.13432618  1
  Fe  Fe63  1  0.12528804  0.62837320  0.89037739  1
  Pb  Pb64  1  0.00633946  0.00900182  0.00451040  1
  Pb  Pb65  1  0.00721206  0.00000481  0.25923392  1
  Pb  Pb66  1  -0.00037410  -0.00174807  0.49793865  1
  Pb  Pb67  1  0.00512996  -0.00430121  0.74827328  1
  Pb  Pb68  1  0.00797605  0.24965491  0.00272526  1
  Pb  Pb69  1  0.01247051  0.25172523  0.25738982  1
  Pb  Pb70  1  0.00988397  0.24968041  0.49914727  1
  Pb  Pb71  1  0.00522617  0.25577528  0.74954864  1
  Pb  Pb72  1  0.01206766  0.49332070  0.00012313  1
  Pb  Pb73  1  0.00551648  0.50098790  0.24503237  1
  Pb  Pb74  1  0.00378013  0.49848276  0.49728408  1
  Pb  Pb75  1  0.00748720  0.49120827  0.75684351  1
  Pb  Pb76  1  0.00345363  0.74358245  0.00349642  1
  Pb  Pb77  1  -0.00140545  0.74796398  0.24698731  1
  Pb  Pb78  1  -0.00469214  0.75182999  0.49682742  1
  Pb  Pb79  1  0.01248263  0.74830028  0.75840432  1
  Pb  Pb80  1  0.25348557  0.00182661  0.00372035  1
  Pb  Pb81  1  0.24011853  0.00130057  0.25770705  1
  Pb  Pb82  1  0.24601528  -0.00175499  0.49960283  1
  Pb  Pb83  1  0.24548241  -0.00253835  0.74669469  1
  Pb  Pb84  1  0.24716381  0.26130089  0.00396966  1
  Pb  Pb85  1  0.24568376  0.26422995  0.25484055  1
  Pb  Pb86  1  0.24426221  0.25654730  0.49664288  1
  Pb  Pb87  1  0.24466489  0.26094055  0.74322135  1
  Pb  Pb88  1  0.25211843  0.50281555  -0.00766476  1
  Pb  Pb89  1  0.25050829  0.49737319  0.24204118  1
  Pb  Pb90  1  0.25507741  0.49689119  0.49668928  1
  Pb  Pb91  1  0.26148710  0.49141815  0.74977469  1
  Pb  Pb92  1  0.25149386  0.74083419  -0.00156382  1
  Pb  Pb93  1  0.25939935  0.74024370  0.24776830  1
  Pb  Pb94  1  0.25802541  0.74635138  0.50367286  1
  Pb  Pb95  1  0.24855201  0.74088625  0.75392733  1
  Pb  Pb96  1  0.49986769  -0.00825207  0.00259885  1
  Pb  Pb97  1  0.50207787  -0.00104801  0.24932145  1
  Pb  Pb98  1  0.49929785  -0.00972813  0.50806094  1
  Pb  Pb99  1  0.50619170  -0.00525625  0.74062689  1
  Pb  Pb100  1  0.49558856  0.25520497  -0.00067144  1
  Pb  Pb101  1  0.49467267  0.25573227  0.25674725  1
  Pb  Pb102  1  0.50356431  0.25224420  0.50683030  1
  Pb  Pb103  1  0.49613339  0.25461016  0.73875450  1
  Pb  Pb104  1  0.48661986  0.50554909  -0.00541544  1
  Pb  Pb105  1  0.48412599  0.49780138  0.25489305  1
  Pb  Pb106  1  0.49123672  0.50433043  0.50826959  1
  Pb  Pb107  1  0.49409750  0.49922880  0.73937968  1
  Pb  Pb108  1  0.49638893  0.74757131  -0.00805804  1
  Pb  Pb109  1  0.49609085  0.74858505  0.24732644  1
  Pb  Pb110  1  0.49168387  0.74446879  0.51207359  1
  Pb  Pb111  1  0.49999775  0.74637081  0.74121045  1
  Pb  Pb112  1  0.74552663  -0.00178587  -0.00057604  1
  Pb  Pb113  1  0.74767861  0.00017153  0.25206354  1
  Pb  Pb114  1  0.75243016  -0.01039685  0.50710858  1
  Pb  Pb115  1  0.74538976  -0.00469863  0.74362530  1
  Pb  Pb116  1  0.74960696  0.24718789  -0.00513093  1
  Pb  Pb117  1  0.74739060  0.25186076  0.25403169  1
  Pb  Pb118  1  0.74786348  0.25055431  0.50599473  1
  Pb  Pb119  1  0.75628804  0.25144786  0.74415138  1
  Pb  Pb120  1  0.75499167  0.50879660  0.00134403  1
  Pb  Pb121  1  0.74909239  0.50566030  0.25261576  1
  Pb  Pb122  1  0.73961420  0.50475281  0.51023965  1
  Pb  Pb123  1  0.74818334  0.50111418  0.74923844  1
  Pb  Pb124  1  0.74855918  0.74995876  -0.00241701  1
  Pb  Pb125  1  0.75188054  0.74756617  0.25010342  1
  Pb  Pb126  1  0.74038037  0.74553124  0.50924189  1
  Pb  Pb127  1  0.73745222  0.75819046  0.75246517  1
  O  O128  1  0.12067752  -0.00436756  0.16945007  1
  O  O129  1  0.12495312  -0.00550154  0.41570444  1
  O  O130  1  0.12257896  -0.00511538  0.65870204  1
  O  O131  1  0.12545611  0.00463337  0.91931805  1
  O  O132  1  0.12291591  0.24876382  0.17064465  1
  O  O133  1  0.12219738  0.24777278  0.41024200  1
  O  O134  1  0.12215515  0.24826618  0.65635081  1
  O  O135  1  0.12406652  0.23924438  0.91395456  1
  O  O136  1  0.12124426  0.49895716  0.16030553  1
  O  O137  1  0.11985206  0.50896606  0.40986116  1
  O  O138  1  0.11946946  0.50516686  0.65938846  1
  O  O139  1  0.12162155  0.50132585  0.91185585  1
  O  O140  1  0.11953891  0.76063278  0.16048205  1
  O  O141  1  0.12197118  0.74570811  0.41210664  1
  O  O142  1  0.11764541  0.75035250  0.66404315  1
  O  O143  1  0.12226538  0.75588292  0.91943026  1
  O  O144  1  0.37949652  0.00734275  0.16828969  1
  O  O145  1  0.37900136  -0.00312368  0.41712438  1
  O  O146  1  0.37137555  0.00349132  0.66223740  1
  O  O147  1  0.37315713  0.00700168  0.91570033  1
  O  O148  1  0.38001661  0.24195348  0.16855240  1
  O  O149  1  0.37902553  0.24100086  0.41414221  1
  O  O150  1  0.37227463  0.24100705  0.65529705  1
  O  O151  1  0.37509615  0.24030711  0.91373684  1
  O  O152  1  0.37857155  0.49985754  0.16316275  1
  O  O153  1  0.37889551  0.50383648  0.41645424  1
  O  O154  1  0.36992289  0.49941727  0.65723308  1
  O  O155  1  0.37686348  0.49727785  0.90765812  1
  O  O156  1  0.37820514  0.75263109  0.16481411  1
  O  O157  1  0.37817084  0.75420864  0.41662954  1
  O  O158  1  0.37058653  0.75250758  0.66565630  1
  O  O159  1  0.37745290  0.75966131  0.90208847  1
  O  O160  1  0.62731864  0.00656659  0.16683185  1
  O  O161  1  0.62498908  -0.00239507  0.42106062  1
  O  O162  1  0.62895592  0.00416470  0.65717696  1
  O  O163  1  0.62531610  0.00758034  0.91442563  1
  O  O164  1  0.62652241  0.25063955  0.16976514  1
  O  O165  1  0.62872418  0.25553378  0.41917828  1
  O  O166  1  0.62749941  0.24901386  0.66175954  1
  O  O167  1  0.62506226  0.24651041  0.91474853  1
  O  O168  1  0.62764764  0.50106662  0.16473910  1
  O  O169  1  0.63035603  0.49939371  0.41855464  1
  O  O170  1  0.63143832  0.49538998  0.66462093  1
  O  O171  1  0.62946957  0.49230725  0.90279671  1
  O  O172  1  0.62817770  0.74388060  0.15684151  1
  O  O173  1  0.62884825  0.74495928  0.41721908  1
  O  O174  1  0.63130957  0.75070649  0.66203779  1
  O  O175  1  0.62835795  0.75196177  0.90980053  1
  O  O176  1  0.86857611  -0.00060319  0.16894722  1
  O  O177  1  0.87168537  -0.00002946  0.41364995  1
  O  O178  1  0.87833014  0.00668348  0.65828967  1
  O  O179  1  0.87568993  0.00229807  0.91613102  1
  O  O180  1  0.86760832  0.25289005  0.16927569  1
  O  O181  1  0.87207037  0.24635831  0.41205148  1
  O  O182  1  0.88027318  0.25023125  0.66007486  1
  O  O183  1  0.87523259  0.24123220  0.91550059  1
  O  O184  1  0.87000314  0.49130782  0.16293769  1
  O  O185  1  0.87457423  0.49518213  0.40711151  1
  O  O186  1  0.88073017  0.49590959  0.66386694  1
  O  O187  1  0.87131328  0.50329587  0.90932389  1
  O  O188  1  0.87044440  0.75900167  0.16321898  1
  O  O189  1  0.87212953  0.75468399  0.41103943  1
  O  O190  1  0.88226085  0.74438243  0.65665863  1
  O  O191  1  0.87209346  0.75577066  0.91108152  1
  O  O192  1  -0.00910326  0.12433307  0.16920724  1
  O  O193  1  -0.01082768  0.12153245  0.41104053  1
  O  O194  1  -0.00384040  0.12468428  0.66141062  1
  O  O195  1  0.00389861  0.12164147  0.91252461  1
  O  O196  1  -0.01134949  0.37080592  0.16227424  1
  O  O197  1  -0.01090555  0.37247398  0.41216564  1
  O  O198  1  -0.00245920  0.37459020  0.66477246  1
  O  O199  1  -0.00274614  0.37144935  0.91791461  1
  O  O200  1  -0.00164813  0.62837416  0.16235945  1
  O  O201  1  0.00145551  0.62771801  0.40956716  1
  O  O202  1  -0.00182864  0.62253891  0.67046831  1
  O  O203  1  -0.01125244  0.62942494  0.91502183  1
  O  O204  1  -0.00892250  0.87946936  0.16432409  1
  O  O205  1  -0.00731684  0.87537083  0.41008341  1
  O  O206  1  0.00422806  0.87573437  0.66549816  1
  O  O207  1  -0.00828805  0.87916920  0.91755177  1
  O  O208  1  0.25699273  0.12319763  0.16487348  1
  O  O209  1  0.25961084  0.11933877  0.41171789  1
  O  O210  1  0.25277104  0.12131530  0.65849081  1
  O  O211  1  0.24910218  0.12284687  0.91226585  1
  O  O212  1  0.25282010  0.37100959  0.16233714  1
  O  O213  1  0.24878441  0.37541223  0.41117952  1
  O  O214  1  0.24767510  0.37304518  0.65541002  1
  O  O215  1  0.24913977  0.36953431  0.91475289  1
  O  O216  1  0.24832942  0.62847855  0.16117581  1
  O  O217  1  0.24154946  0.62696801  0.40954844  1
  O  O218  1  0.23722376  0.62939778  0.66001636  1
  O  O219  1  0.25346281  0.62905884  0.91125638  1
  O  O220  1  0.24673709  0.88022261  0.15874368  1
  O  O221  1  0.25660677  0.87359825  0.41100910  1
  O  O222  1  0.23915077  0.87351038  0.66193474  1
  O  O223  1  0.25659969  0.88170824  0.91389704  1
  O  O224  1  0.50149515  0.12574060  0.16868040  1
  O  O225  1  0.49671304  0.12163306  0.42303528  1
  O  O226  1  0.49266716  0.12294268  0.65475223  1
  O  O227  1  0.49624956  0.12448029  0.91021022  1
  O  O228  1  0.50632422  0.37288267  0.16796782  1
  O  O229  1  0.50881955  0.37565085  0.41795561  1
  O  O230  1  0.49827125  0.37188438  0.65386923  1
  O  O231  1  0.50948579  0.36827448  0.91009248  1
  O  O232  1  0.51010191  0.62464570  0.16175106  1
  O  O233  1  0.50984734  0.62456153  0.41769089  1
  O  O234  1  0.50039178  0.62485056  0.65875217  1
  O  O235  1  0.50174584  0.62601883  0.90664383  1
  O  O236  1  0.50426913  0.87827344  0.16655212  1
  O  O237  1  0.49862356  0.87346870  0.42058035  1
  O  O238  1  0.50052024  0.87702416  0.65768291  1
  O  O239  1  0.49261421  0.88428666  0.90931279  1
  O  O240  1  0.74838897  0.12701355  0.17256893  1
  O  O241  1  0.75478849  0.12356863  0.41982829  1
  O  O242  1  0.76086776  0.12926607  0.65760915  1
  O  O243  1  0.74947397  0.12497978  0.91161019  1
  O  O244  1  0.74862477  0.37365716  0.17051844  1
  O  O245  1  0.75610751  0.37297048  0.41764409  1
  O  O246  1  0.76009853  0.37189971  0.66105967  1
  O  O247  1  0.74453211  0.36723892  0.91196547  1
  O  O248  1  0.74287863  0.62331609  0.16753421  1
  O  O249  1  0.74676008  0.62346283  0.41659928  1
  O  O250  1  0.76661293  0.62025127  0.66340943  1
  O  O251  1  0.75417214  0.62664724  0.91434498  1
  O  O252  1  0.75241941  0.87817982  0.16677827  1
  O  O253  1  0.75284635  0.87645731  0.41681794  1
  O  O254  1  0.75553094  0.87678866  0.66203269  1
  O  O255  1  0.75918770  0.88154835  0.91520539  1
  O  O256  1  0.12054101  0.12228212  0.04328148  1
  O  O257  1  0.12311593  0.11415459  0.28871457  1
  O  O258  1  0.12276803  0.12307370  0.52715940  1
  O  O259  1  0.12866584  0.12034523  0.79916251  1
  O  O260  1  0.11901591  0.36593703  0.03528541  1
  O  O261  1  0.12008731  0.37355448  0.28648632  1
  O  O262  1  0.11596438  0.37693105  0.52747205  1
  O  O263  1  0.11979923  0.36892660  0.78625019  1
  O  O264  1  0.12333278  0.63114490  0.02968307  1
  O  O265  1  0.12206582  0.62877206  0.29303112  1
  O  O266  1  0.11552792  0.62644024  0.55002900  1
  O  O267  1  0.11992943  0.63606512  0.78877454  1
  O  O268  1  0.12237526  0.88335370  0.05079600  1
  O  O269  1  0.12506714  0.88010741  0.28305727  1
  O  O270  1  0.12051680  0.86903988  0.54711459  1
  O  O271  1  0.11928006  0.87891434  0.78875559  1
  O  O272  1  0.37451960  0.12578668  0.05070692  1
  O  O273  1  0.38286907  0.12194492  0.30179217  1
  O  O274  1  0.36955822  0.11908255  0.54152511  1
  O  O275  1  0.37557849  0.12278217  0.79689892  1
  O  O276  1  0.38299410  0.36751045  0.03434461  1
  O  O277  1  0.38544463  0.37315897  0.29359883  1
  O  O278  1  0.37427340  0.37518489  0.52439618  1
  O  O279  1  0.36951205  0.37003449  0.78388148  1
  O  O280  1  0.38372476  0.62653244  0.03336731  1
  O  O281  1  0.37900374  0.63155247  0.28809110  1
  O  O282  1  0.37255143  0.63387211  0.53572089  1
  O  O283  1  0.36728218  0.62268453  0.77575994  1
  O  O284  1  0.37983472  0.88316374  0.03479041  1
  O  O285  1  0.37990779  0.87576376  0.30288561  1
  O  O286  1  0.37194623  0.87024901  0.53396695  1
  O  O287  1  0.36965710  0.88597572  0.79593131  1
  O  O288  1  0.62462771  0.12860685  0.05037149  1
  O  O289  1  0.62289418  0.12647523  0.31341911  1
  O  O290  1  0.62750648  0.13465091  0.52693276  1
  O  O291  1  0.62437692  0.12663708  0.79345341  1
  O  O292  1  0.62682051  0.37549276  0.04864610  1
  O  O293  1  0.62854000  0.37708679  0.30913032  1
  O  O294  1  0.63437472  0.37576197  0.53027912  1
  O  O295  1  0.62719420  0.36965554  0.79339139  1
  O  O296  1  0.62918269  0.61985457  0.04491566  1
  O  O297  1  0.62629533  0.62385631  0.30323677  1
  O  O298  1  0.63846450  0.62247588  0.54139743  1
  O  O299  1  0.63601105  0.62689173  0.77687763  1
  O  O300  1  0.62549721  0.88455138  0.03185130  1
  O  O301  1  0.62437634  0.87261418  0.30776861  1
  O  O302  1  0.63319590  0.87217695  0.52950846  1
  O  O303  1  0.63434669  0.88120569  0.78761155  1
  O  O304  1  0.87157101  0.12660560  0.05301409  1
  O  O305  1  0.86751741  0.12541122  0.29905333  1
  O  O306  1  0.88086075  0.12563917  0.54375439  1
  O  O307  1  0.87661191  0.12269993  0.79527443  1
  O  O308  1  0.86797508  0.36995372  0.04967721  1
  O  O309  1  0.86994830  0.37370143  0.29705111  1
  O  O310  1  0.88042188  0.37953318  0.54900397  1
  O  O311  1  0.88101036  0.36863484  0.78485215  1
  O  O312  1  0.86138072  0.62409867  0.03939600  1
  O  O313  1  0.86624475  0.62870130  0.28174876  1
  O  O314  1  0.88351700  0.62385933  0.54726419  1
  O  O315  1  0.87440150  0.62453905  0.79894794  1
  O  O316  1  0.87241464  0.88145342  0.04966259  1
  O  O317  1  0.86871731  0.87566296  0.30066738  1
  O  O318  1  0.87872243  0.87717767  0.53243083  1
  O  O319  1  0.87880723  0.87809504  0.79829419  1
