# generated using pymatgen
data_VFe(PbO3)2
_symmetry_space_group_name_H-M   'P 1'
_cell_length_a   15.39191734
_cell_length_b   15.39806142
_cell_length_c   18.51068411
_cell_angle_alpha   90.01377938
_cell_angle_beta   90.02455450
_cell_angle_gamma   90.01617758
_symmetry_Int_Tables_number   1
_chemical_formula_structural   VFe(PbO3)2
_chemical_formula_sum   'V32 Fe32 Pb64 O192'
_cell_volume   4387.13672978
_cell_formula_units_Z   32
loop_
 _symmetry_equiv_pos_site_id
 _symmetry_equiv_pos_as_xyz
  1  'x, y, z'
loop_
 _atom_site_type_symbol
 _atom_site_label
 _atom_site_symmetry_multiplicity
 _atom_site_fract_x
 _atom_site_fract_y
 _atom_site_fract_z
 _atom_site_occupancy
  V  V0  1  0.37487411  0.62643781  0.39076992  1
  V  V1  1  0.62869328  0.87457237  0.64120120  1
  V  V2  1  0.12788531  0.12664144  0.13777666  1
  V  V3  1  0.37334164  0.62590271  0.88766208  1
  V  V4  1  0.62501685  0.87704007  0.38917629  1
  V  V5  1  0.62033762  0.87731017  0.13496216  1
  V  V6  1  0.37676077  0.87287877  0.88644134  1
  V  V7  1  0.87637138  0.37564178  0.64244533  1
  V  V8  1  0.37557227  0.12515549  0.39657167  1
  V  V9  1  0.12970323  0.87594886  0.13710457  1
  V  V10  1  0.11464592  0.62337867  0.64109515  1
  V  V11  1  0.62152231  0.37419313  0.13515107  1
  V  V12  1  0.37292430  0.62190424  0.14005932  1
  V  V13  1  0.12580791  0.62729155  0.38863358  1
  V  V14  1  0.12342323  0.62730151  0.89073366  1
  V  V15  1  0.87479176  0.12448068  0.38940628  1
  V  V16  1  0.87134992  0.62304301  0.64349025  1
  V  V17  1  0.12391284  0.87668149  0.39623832  1
  V  V18  1  0.87505645  0.12240286  0.88425342  1
  V  V19  1  0.62566906  0.62713711  0.64175499  1
  V  V20  1  0.12624065  0.37831832  0.64595169  1
  V  V21  1  0.38617284  0.37183406  0.65654154  1
  V  V22  1  0.37408565  0.87566157  0.39715399  1
  V  V23  1  0.36558967  0.62435612  0.64021654  1
  V  V24  1  0.37452379  0.37224116  0.14158064  1
  V  V25  1  0.87582509  0.87569667  0.38660205  1
  V  V26  1  0.12810794  0.37427988  0.13781260  1
  V  V27  1  0.62862164  0.87337043  0.88980335  1
  V  V28  1  0.37405124  0.12745115  0.13975981  1
  V  V29  1  0.63148383  0.13291850  0.64092397  1
  V  V30  1  0.87565389  0.62681731  0.38414718  1
  V  V31  1  0.87345018  0.87330996  0.64668345  1
  Fe  Fe32  1  0.62478336  0.12117675  0.88962015  1
  Fe  Fe33  1  0.87573874  0.37227362  0.13039594  1
  Fe  Fe34  1  0.87584560  0.87902626  0.13219376  1
  Fe  Fe35  1  0.62362603  0.12210430  0.38643890  1
  Fe  Fe36  1  0.12346547  0.86873090  0.64311390  1
  Fe  Fe37  1  0.62067116  0.12665231  0.12993641  1
  Fe  Fe38  1  0.63019540  0.38088408  0.64686464  1
  Fe  Fe39  1  0.62419309  0.37532428  0.38637730  1
  Fe  Fe40  1  0.87713236  0.62537992  0.12905120  1
  Fe  Fe41  1  0.37559307  0.12282883  0.87065114  1
  Fe  Fe42  1  0.12645259  0.87410775  0.87710102  1
  Fe  Fe43  1  0.87567876  0.12487020  0.13239055  1
  Fe  Fe44  1  0.87585494  0.37461016  0.89099927  1
  Fe  Fe45  1  0.12552643  0.12258592  0.87450212  1
  Fe  Fe46  1  0.62436508  0.62854827  0.38244802  1
  Fe  Fe47  1  0.12520375  0.37399712  0.87922307  1
  Fe  Fe48  1  0.87633212  0.87471564  0.88691379  1
  Fe  Fe49  1  0.87260914  0.12547487  0.63762808  1
  Fe  Fe50  1  0.87431992  0.62699651  0.89250326  1
  Fe  Fe51  1  0.62491449  0.37573660  0.87789494  1
  Fe  Fe52  1  0.37424141  0.37577891  0.86897819  1
  Fe  Fe53  1  0.37811734  0.12153129  0.64458921  1
  Fe  Fe54  1  0.37993560  0.86904270  0.63471885  1
  Fe  Fe55  1  0.87667749  0.37495169  0.38002508  1
  Fe  Fe56  1  0.62174996  0.62776259  0.89917891  1
  Fe  Fe57  1  0.12109023  0.12409595  0.64052419  1
  Fe  Fe58  1  0.62033554  0.62332995  0.13022001  1
  Fe  Fe59  1  0.12874116  0.62253590  0.13170914  1
  Fe  Fe60  1  0.12563092  0.12287008  0.39294486  1
  Fe  Fe61  1  0.37238700  0.37607301  0.38708475  1
  Fe  Fe62  1  0.12556632  0.37399784  0.38857978  1
  Fe  Fe63  1  0.37347071  0.87799681  0.13644903  1
  Pb  Pb64  1  -0.00100682  -0.00178987  -0.00748232  1
  Pb  Pb65  1  0.00394288  0.00691818  0.24709022  1
  Pb  Pb66  1  0.00230783  0.00746162  0.50924741  1
  Pb  Pb67  1  0.00679194  -0.00023436  0.74766950  1
  Pb  Pb68  1  -0.00243547  0.24992237  -0.00689186  1
  Pb  Pb69  1  -0.00084981  0.25523129  0.24874466  1
  Pb  Pb70  1  0.00252413  0.24385691  0.50017146  1
  Pb  Pb71  1  0.00315922  0.25041014  0.75149866  1
  Pb  Pb72  1  -0.00683353  0.49638357  -0.00106619  1
  Pb  Pb73  1  -0.00477479  0.49524641  0.24301007  1
  Pb  Pb74  1  -0.00224082  0.49842622  0.49404890  1
  Pb  Pb75  1  -0.00554253  0.49319939  0.76109969  1
  Pb  Pb76  1  -0.00354002  0.75284743  -0.00158381  1
  Pb  Pb77  1  -0.00162708  0.74775424  0.24045622  1
  Pb  Pb78  1  0.00233050  0.75601479  0.50337897  1
  Pb  Pb79  1  -0.01436668  0.75019198  0.76105307  1
  Pb  Pb80  1  0.25122835  -0.00075708  -0.01326000  1
  Pb  Pb81  1  0.24565208  0.00808723  0.25487720  1
  Pb  Pb82  1  0.24904388  0.00634709  0.51359324  1
  Pb  Pb83  1  0.24682955  -0.00346196  0.73977478  1
  Pb  Pb84  1  0.25284707  0.24897154  -0.02142395  1
  Pb  Pb85  1  0.24385510  0.25312744  0.25774049  1
  Pb  Pb86  1  0.24756718  0.24384445  0.50554807  1
  Pb  Pb87  1  0.24566035  0.23752034  0.74920214  1
  Pb  Pb88  1  0.24582349  0.49986473  -0.00503611  1
  Pb  Pb89  1  0.24973583  0.48888540  0.25519591  1
  Pb  Pb90  1  0.25122503  0.49855655  0.50149098  1
  Pb  Pb91  1  0.24924534  0.49474210  0.75519158  1
  Pb  Pb92  1  0.24928345  0.75223476  0.00148471  1
  Pb  Pb93  1  0.25228013  0.74862248  0.24859488  1
  Pb  Pb94  1  0.24516607  0.75985405  0.50728989  1
  Pb  Pb95  1  0.24633567  0.75712488  0.75051587  1
  Pb  Pb96  1  0.49995880  0.00612215  -0.00252823  1
  Pb  Pb97  1  0.50283646  0.00571083  0.25024042  1
  Pb  Pb98  1  0.49005317  0.00198257  0.50952690  1
  Pb  Pb99  1  0.50081445  0.00214697  0.75039894  1
  Pb  Pb100  1  0.49910484  0.24880900  -0.01658842  1
  Pb  Pb101  1  0.50846134  0.25178495  0.25509503  1
  Pb  Pb102  1  0.50091195  0.25109621  0.50124231  1
  Pb  Pb103  1  0.51142976  0.23335834  0.76114657  1
  Pb  Pb104  1  0.50319057  0.49660805  -0.00674622  1
  Pb  Pb105  1  0.50460039  0.49266047  0.25369795  1
  Pb  Pb106  1  0.50752809  0.49099219  0.50305246  1
  Pb  Pb107  1  0.51495420  0.50751397  0.75878098  1
  Pb  Pb108  1  0.49603272  0.75251649  0.00532993  1
  Pb  Pb109  1  0.50395364  0.74509553  0.24886128  1
  Pb  Pb110  1  0.49594744  0.75314749  0.50105147  1
  Pb  Pb111  1  0.50930795  0.74260214  0.75530791  1
  Pb  Pb112  1  0.76249050  0.00449169  0.00489810  1
  Pb  Pb113  1  0.74761393  0.00740277  0.24251338  1
  Pb  Pb114  1  0.75621137  0.00558279  0.50111923  1
  Pb  Pb115  1  0.74967962  -0.00108443  0.75563929  1
  Pb  Pb116  1  0.75015558  0.24901493  -0.00643167  1
  Pb  Pb117  1  0.75084856  0.25198350  0.24272948  1
  Pb  Pb118  1  0.74706572  0.25517859  0.49569297  1
  Pb  Pb119  1  0.75526491  0.26575227  0.75919250  1
  Pb  Pb120  1  0.75266166  0.49923206  -0.00632859  1
  Pb  Pb121  1  0.74980429  0.49784616  0.23994077  1
  Pb  Pb122  1  0.74133461  0.49358788  0.49801363  1
  Pb  Pb123  1  0.75557752  0.50164316  0.76194682  1
  Pb  Pb124  1  0.75937515  0.74397025  0.00258721  1
  Pb  Pb125  1  0.74616678  0.74409627  0.23892040  1
  Pb  Pb126  1  0.75112752  0.75187435  0.49555505  1
  Pb  Pb127  1  0.75569856  0.74327145  0.76200239  1
  O  O128  1  0.13061491  -0.00022814  0.16494660  1
  O  O129  1  0.12545399  -0.00492222  0.42127846  1
  O  O130  1  0.12290234  -0.00441745  0.65986994  1
  O  O131  1  0.12805830  -0.00140453  0.90594727  1
  O  O132  1  0.13036801  0.25200773  0.16481965  1
  O  O133  1  0.12571332  0.24809301  0.42068576  1
  O  O134  1  0.12043816  0.26060111  0.65963281  1
  O  O135  1  0.12521044  0.24702623  0.90553019  1
  O  O136  1  0.12920294  0.49157253  0.15964191  1
  O  O137  1  0.12348610  0.50716592  0.41537739  1
  O  O138  1  0.12103678  0.50673435  0.67072546  1
  O  O139  1  0.12940098  0.50781999  0.91092785  1
  O  O140  1  0.13078759  0.75748267  0.15893125  1
  O  O141  1  0.12374948  0.75018105  0.42119478  1
  O  O142  1  0.12420754  0.73673158  0.66617902  1
  O  O143  1  0.13142967  0.74626218  0.91273335  1
  O  O144  1  0.37286534  0.00921122  0.16497616  1
  O  O145  1  0.37506002  0.00051550  0.42218293  1
  O  O146  1  0.38248175  -0.00751902  0.66207472  1
  O  O147  1  0.37519379  -0.00872004  0.90151593  1
  O  O148  1  0.37274692  0.24678214  0.16743288  1
  O  O149  1  0.37415053  0.24361332  0.41671679  1
  O  O150  1  0.37829275  0.25721987  0.65947452  1
  O  O151  1  0.37500921  0.25020997  0.89432388  1
  O  O152  1  0.37272832  0.50109398  0.16478531  1
  O  O153  1  0.37119398  0.51007826  0.41424056  1
  O  O154  1  0.38029867  0.51615338  0.67419253  1
  O  O155  1  0.37216345  0.50851022  0.90448702  1
  O  O156  1  0.37236016  0.74388829  0.16443700  1
  O  O157  1  0.37241019  0.74716040  0.41849903  1
  O  O158  1  0.37996455  0.73878343  0.66662814  1
  O  O159  1  0.37228134  0.74970610  0.91679664  1
  O  O160  1  0.61806505  -0.00358562  0.16089600  1
  O  O161  1  0.62494623  -0.00523288  0.41705709  1
  O  O162  1  0.62936137  -0.00938232  0.66174954  1
  O  O163  1  0.61762325  -0.01092455  0.91337194  1
  O  O164  1  0.61855425  0.25597521  0.16073945  1
  O  O165  1  0.62451489  0.24736749  0.41785297  1
  O  O166  1  0.62981082  0.24753024  0.65821134  1
  O  O167  1  0.62250093  0.24971624  0.90662378  1
  O  O168  1  0.61928733  0.49323330  0.15907409  1
  O  O169  1  0.62484352  0.50474505  0.41492578  1
  O  O170  1  0.62980986  0.51073221  0.66929882  1
  O  O171  1  0.62134132  0.49918738  0.91363235  1
  O  O172  1  0.61886329  0.75575546  0.15812587  1
  O  O173  1  0.62611982  0.75436655  0.41665040  1
  O  O174  1  0.63197745  0.74590708  0.66763691  1
  O  O175  1  0.61799749  0.76004071  0.91999754  1
  O  O176  1  0.87623736  0.00026172  0.16732136  1
  O  O177  1  0.87490830  -0.00141956  0.41603026  1
  O  O178  1  0.86917468  -0.00944771  0.66544036  1
  O  O179  1  0.87363027  0.00337901  0.91033191  1
  O  O180  1  0.87611311  0.24917776  0.16355097  1
  O  O181  1  0.87535043  0.24174230  0.40823384  1
  O  O182  1  0.87516436  0.25794097  0.66207406  1
  O  O183  1  0.87502374  0.24097180  0.90844910  1
  O  O184  1  0.87657140  0.49808466  0.15934135  1
  O  O185  1  0.87832463  0.51100386  0.40412919  1
  O  O186  1  0.87606634  0.50013451  0.66959748  1
  O  O187  1  0.87756892  0.50183708  0.91264708  1
  O  O188  1  0.87666441  0.75423381  0.16023805  1
  O  O189  1  0.87659286  0.75052078  0.41417653  1
  O  O190  1  0.87145127  0.74857271  0.66983100  1
  O  O191  1  0.87564756  0.75232031  0.91774711  1
  O  O192  1  0.00780051  0.12491003  0.16331891  1
  O  O193  1  -0.00662369  0.11980105  0.41560143  1
  O  O194  1  -0.00548507  0.12425861  0.66604773  1
  O  O195  1  -0.00580081  0.12169769  0.90365312  1
  O  O196  1  0.00963923  0.37129238  0.15773216  1
  O  O197  1  -0.00179418  0.37611817  0.41639109  1
  O  O198  1  -0.00277300  0.38154213  0.66792409  1
  O  O199  1  0.00340417  0.37503450  0.91361809  1
  O  O200  1  0.00454887  0.62574829  0.16214168  1
  O  O201  1  -0.00249196  0.63073981  0.41274148  1
  O  O202  1  -0.00108686  0.62459196  0.66601661  1
  O  O203  1  0.00831576  0.62888024  0.90951653  1
  O  O204  1  0.01224505  0.87902373  0.15971482  1
  O  O205  1  -0.00236796  0.87402945  0.41915532  1
  O  O206  1  -0.00976531  0.86868169  0.66355927  1
  O  O207  1  0.00337042  0.87389937  0.90903440  1
  O  O208  1  0.25257316  0.12640173  0.16925204  1
  O  O209  1  0.25643194  0.12085139  0.42216994  1
  O  O210  1  0.24961025  0.12780835  0.65956269  1
  O  O211  1  0.25333136  0.12181271  0.90130222  1
  O  O212  1  0.24940049  0.37313190  0.16751280  1
  O  O213  1  0.25093912  0.37653387  0.42390496  1
  O  O214  1  0.24154192  0.38452504  0.66342925  1
  O  O215  1  0.25158504  0.37845301  0.90496069  1
  O  O216  1  0.25463685  0.62357893  0.16794150  1
  O  O217  1  0.24959036  0.62933642  0.41762643  1
  O  O218  1  0.24918788  0.62278461  0.65628051  1
  O  O219  1  0.25420566  0.62771933  0.91367294  1
  O  O220  1  0.24675471  0.87808024  0.16917772  1
  O  O221  1  0.24971636  0.87366161  0.42205285  1
  O  O222  1  0.25375864  0.86646450  0.66056718  1
  O  O223  1  0.25651970  0.87178645  0.90923423  1
  O  O224  1  0.49185683  0.12714275  0.16339371  1
  O  O225  1  0.49448450  0.12238173  0.41855181  1
  O  O226  1  0.51463270  0.12186009  0.66382779  1
  O  O227  1  0.49525918  0.12038195  0.90999510  1
  O  O228  1  0.49847692  0.37500542  0.16553895  1
  O  O229  1  0.49621284  0.37602935  0.41970578  1
  O  O230  1  0.50080843  0.38246144  0.66494372  1
  O  O231  1  0.49636730  0.37857891  0.89898907  1
  O  O232  1  0.49111589  0.62370809  0.16423754  1
  O  O233  1  0.49191468  0.62964887  0.41044517  1
  O  O234  1  0.50970324  0.62773635  0.66286667  1
  O  O235  1  0.48770190  0.62962152  0.91663752  1
  O  O236  1  0.50115383  0.87592554  0.16508370  1
  O  O237  1  0.49973018  0.87256425  0.41740703  1
  O  O238  1  0.51258912  0.86506730  0.66226872  1
  O  O239  1  0.49362077  0.87122802  0.91271340  1
  O  O240  1  0.74596427  0.12493577  0.15961680  1
  O  O241  1  0.75537925  0.12066453  0.41243772  1
  O  O242  1  0.74551792  0.11979726  0.66887844  1
  O  O243  1  0.75451561  0.12127490  0.90958553  1
  O  O244  1  0.74097905  0.37389135  0.15350080  1
  O  O245  1  0.75342848  0.37647924  0.41404400  1
  O  O246  1  0.75957702  0.37986901  0.66619262  1
  O  O247  1  0.74891613  0.37339497  0.91279685  1
  O  O248  1  0.74737087  0.62564374  0.15627225  1
  O  O249  1  0.75868897  0.63085447  0.40667246  1
  O  O250  1  0.75030276  0.62507471  0.66926717  1
  O  O251  1  0.74759085  0.62924426  0.91551574  1
  O  O252  1  0.73901781  0.87726870  0.15777872  1
  O  O253  1  0.75254910  0.87380974  0.41511907  1
  O  O254  1  0.74736262  0.86883878  0.67167293  1
  O  O255  1  0.74280297  0.87494384  0.90937264  1
  O  O256  1  0.13017556  0.12573255  0.04717004  1
  O  O257  1  0.13082503  0.12041927  0.29272776  1
  O  O258  1  0.11870945  0.12321821  0.53755386  1
  O  O259  1  0.12430856  0.12811897  0.77281409  1
  O  O260  1  0.13362945  0.37142740  0.04724632  1
  O  O261  1  0.13156738  0.37154362  0.28837871  1
  O  O262  1  0.11928168  0.38756367  0.55509807  1
  O  O263  1  0.11933316  0.38054842  0.77880476  1
  O  O264  1  0.13448393  0.62288029  0.03298544  1
  O  O265  1  0.12803164  0.62961185  0.29775441  1
  O  O266  1  0.11452595  0.62091302  0.54998885  1
  O  O267  1  0.12733182  0.62747307  0.79947348  1
  O  O268  1  0.13460801  0.87909293  0.04622356  1
  O  O269  1  0.12457111  0.87422022  0.30531847  1
  O  O270  1  0.12075922  0.86093699  0.54189516  1
  O  O271  1  0.13007556  0.86979177  0.77567762  1
  O  O272  1  0.37095549  0.12855800  0.04908353  1
  O  O273  1  0.37333125  0.12147465  0.30560036  1
  O  O274  1  0.38082782  0.12014317  0.54271619  1
  O  O275  1  0.38683005  0.12515834  0.76860605  1
  O  O276  1  0.37345759  0.37198248  0.05097180  1
  O  O277  1  0.36959683  0.37963385  0.28705801  1
  O  O278  1  0.37371027  0.39287301  0.56611347  1
  O  O279  1  0.36739011  0.38373246  0.76556528  1
  O  O280  1  0.37136191  0.62210987  0.04907877  1
  O  O281  1  0.37010094  0.62914187  0.29972241  1
  O  O282  1  0.37631522  0.62139157  0.54922685  1
  O  O283  1  0.37545311  0.63362358  0.79678172  1
  O  O284  1  0.37000277  0.87442016  0.03798376  1
  O  O285  1  0.37328729  0.87697459  0.30611444  1
  O  O286  1  0.38252068  0.86854474  0.53413856  1
  O  O287  1  0.37833614  0.86348947  0.79537870  1
  O  O288  1  0.61477616  0.12309268  0.02993802  1
  O  O289  1  0.61577076  0.12360362  0.28671941  1
  O  O290  1  0.63306269  0.12400641  0.54961905  1
  O  O291  1  0.61886259  0.11969588  0.78755158  1
  O  O292  1  0.61379485  0.37348190  0.04453710  1
  O  O293  1  0.61823690  0.37458813  0.28612925  1
  O  O294  1  0.63005142  0.38788028  0.54517791  1
  O  O295  1  0.63581927  0.37854273  0.77495947  1
  O  O296  1  0.61089442  0.62458610  0.03018120  1
  O  O297  1  0.62031639  0.63081169  0.28283805  1
  O  O298  1  0.62882515  0.62691160  0.55038438  1
  O  O299  1  0.61522579  0.62981466  0.79677885  1
  O  O300  1  0.61647378  0.87903413  0.04431613  1
  O  O301  1  0.62395331  0.87592186  0.29813247  1
  O  O302  1  0.63343084  0.87020384  0.55029984  1
  O  O303  1  0.62375476  0.86987896  0.79795254  1
  O  O304  1  0.87546744  0.11817933  0.03257851  1
  O  O305  1  0.87655347  0.11924049  0.29831982  1
  O  O306  1  0.87245020  0.11793150  0.53801155  1
  O  O307  1  0.87066192  0.12058971  0.79287714  1
  O  O308  1  0.88143954  0.37042610  0.02956769  1
  O  O309  1  0.87859112  0.37408531  0.27986139  1
  O  O310  1  0.87831479  0.37979013  0.55143415  1
  O  O311  1  0.87207211  0.37607932  0.78858506  1
  O  O312  1  0.87930161  0.62929103  0.02851751  1
  O  O313  1  0.87910753  0.63223908  0.29303227  1
  O  O314  1  0.87135056  0.62329610  0.55263583  1
  O  O315  1  0.87465596  0.63286918  0.78970148  1
  O  O316  1  0.87629341  0.88542296  0.03191690  1
  O  O317  1  0.87676277  0.87598632  0.29604062  1
  O  O318  1  0.86716543  0.86974269  0.55552402  1
  O  O319  1  0.87129814  0.86640248  0.78587865  1
