# generated using pymatgen
data_VFe(PbO3)2
_symmetry_space_group_name_H-M   'P 1'
_cell_length_a   15.38634522
_cell_length_b   15.37571131
_cell_length_c   18.55465112
_cell_angle_alpha   89.97113145
_cell_angle_beta   90.03906972
_cell_angle_gamma   89.99601610
_symmetry_Int_Tables_number   1
_chemical_formula_structural   VFe(PbO3)2
_chemical_formula_sum   'V32 Fe32 Pb64 O192'
_cell_volume   4389.58359603
_cell_formula_units_Z   32
loop_
 _symmetry_equiv_pos_site_id
 _symmetry_equiv_pos_as_xyz
  1  'x, y, z'
loop_
 _atom_site_type_symbol
 _atom_site_label
 _atom_site_symmetry_multiplicity
 _atom_site_fract_x
 _atom_site_fract_y
 _atom_site_fract_z
 _atom_site_occupancy
  V  V0  1  0.37783403  0.12018047  0.38351200  1
  V  V1  1  0.37554454  0.37292474  0.13997449  1
  V  V2  1  0.62491087  0.87221942  0.38762936  1
  V  V3  1  0.87614975  0.37288991  0.14633073  1
  V  V4  1  0.87522300  0.87345059  0.38762652  1
  V  V5  1  0.12120091  0.87719522  0.89621882  1
  V  V6  1  0.12387655  0.12718591  0.89221425  1
  V  V7  1  0.38331936  0.62902046  0.38491227  1
  V  V8  1  0.37388168  0.87506875  0.89613987  1
  V  V9  1  0.38122533  0.37398434  0.88808137  1
  V  V10  1  0.12981176  0.37517929  0.63501306  1
  V  V11  1  0.62021734  0.37643916  0.63723764  1
  V  V12  1  0.62760723  0.62591155  0.38620602  1
  V  V13  1  0.87461173  0.12401363  0.63530853  1
  V  V14  1  0.87343191  0.87553677  0.64230409  1
  V  V15  1  0.37491836  0.62653035  0.64364991  1
  V  V16  1  0.63246849  0.37226926  0.89145305  1
  V  V17  1  0.87401131  0.12803117  0.89211926  1
  V  V18  1  0.12770439  0.87673788  0.64034544  1
  V  V19  1  0.12388256  0.37496787  0.14748633  1
  V  V20  1  0.37454603  0.87515705  0.64230938  1
  V  V21  1  0.12497609  0.62288337  0.13842413  1
  V  V22  1  0.62436942  0.12606315  0.13703751  1
  V  V23  1  0.13084713  0.62688245  0.38956153  1
  V  V24  1  0.87398504  0.62254015  0.89141031  1
  V  V25  1  0.87941489  0.37428587  0.88813777  1
  V  V26  1  0.37405821  0.12487086  0.64012935  1
  V  V27  1  0.12438574  0.37436360  0.88924244  1
  V  V28  1  0.87546110  0.62957446  0.39129365  1
  V  V29  1  0.87589593  0.87690728  0.13445908  1
  V  V30  1  0.12648177  0.12678993  0.14409347  1
  V  V31  1  0.12359528  0.62486552  0.89100476  1
  Fe  Fe32  1  0.37762653  0.87238887  0.38104734  1
  Fe  Fe33  1  0.62380294  0.12352077  0.38251797  1
  Fe  Fe34  1  0.12646513  0.87110598  0.37962681  1
  Fe  Fe35  1  0.12592275  0.37719920  0.38282186  1
  Fe  Fe36  1  0.87537653  0.62534763  0.63411230  1
  Fe  Fe37  1  0.87156478  0.12067760  0.37812114  1
  Fe  Fe38  1  0.87966862  0.87519793  0.88455863  1
  Fe  Fe39  1  0.62453509  0.62189380  0.89454390  1
  Fe  Fe40  1  0.37400253  0.12940347  0.13085026  1
  Fe  Fe41  1  0.37226954  0.62123172  0.12581500  1
  Fe  Fe42  1  0.62781091  0.62227553  0.12623788  1
  Fe  Fe43  1  0.12602203  0.62838125  0.63546822  1
  Fe  Fe44  1  0.87971117  0.62385129  0.13339369  1
  Fe  Fe45  1  0.62432736  0.12900119  0.88431956  1
  Fe  Fe46  1  0.62750775  0.37393147  0.14006752  1
  Fe  Fe47  1  0.87362964  0.37716168  0.38516495  1
  Fe  Fe48  1  0.37471498  0.87697294  0.13010281  1
  Fe  Fe49  1  0.62354441  0.37798790  0.37836413  1
  Fe  Fe50  1  0.37714019  0.37720987  0.63535065  1
  Fe  Fe51  1  0.87676271  0.12489874  0.14612363  1
  Fe  Fe52  1  0.61975211  0.87542018  0.64325871  1
  Fe  Fe53  1  0.12522184  0.12193576  0.38423081  1
  Fe  Fe54  1  0.62789906  0.87677399  0.12290487  1
  Fe  Fe55  1  0.62429472  0.12322527  0.63819342  1
  Fe  Fe56  1  0.87258439  0.37437619  0.62851070  1
  Fe  Fe57  1  0.37468932  0.37440043  0.38732790  1
  Fe  Fe58  1  0.12520274  0.12214704  0.63228860  1
  Fe  Fe59  1  0.37174526  0.12569369  0.89548908  1
  Fe  Fe60  1  0.37108470  0.62402221  0.90059011  1
  Fe  Fe61  1  0.62454317  0.62608334  0.63863713  1
  Fe  Fe62  1  0.12350491  0.87533307  0.13700002  1
  Fe  Fe63  1  0.62900955  0.87671417  0.89423761  1
  Pb  Pb64  1  -0.00519590  0.00671538  0.00690816  1
  Pb  Pb65  1  0.00702036  0.00452200  0.25390920  1
  Pb  Pb66  1  0.00614632  0.00514985  0.49424331  1
  Pb  Pb67  1  -0.00440949  -0.00343115  0.75078671  1
  Pb  Pb68  1  -0.00657105  0.24491428  0.00837378  1
  Pb  Pb69  1  0.00221987  0.24379163  0.25966069  1
  Pb  Pb70  1  -0.00316963  0.25089544  0.48655576  1
  Pb  Pb71  1  0.00254415  0.25164683  0.73993934  1
  Pb  Pb72  1  -0.00492933  0.50165054  0.00341063  1
  Pb  Pb73  1  -0.00204640  0.49284312  0.25653828  1
  Pb  Pb74  1  -0.00624653  0.49982475  0.50011134  1
  Pb  Pb75  1  -0.00076298  0.50094925  0.74048794  1
  Pb  Pb76  1  -0.00345374  0.74520554  0.00311858  1
  Pb  Pb77  1  0.00522590  0.75530417  0.24742049  1
  Pb  Pb78  1  0.00005071  0.74185633  0.50413725  1
  Pb  Pb79  1  -0.00252184  0.75449013  0.74916437  1
  Pb  Pb80  1  0.24820494  -0.00753978  0.00907236  1
  Pb  Pb81  1  0.25165855  -0.00404249  0.24587130  1
  Pb  Pb82  1  0.24740772  -0.00254402  0.49144563  1
  Pb  Pb83  1  0.25645724  0.00534216  0.75501109  1
  Pb  Pb84  1  0.25001707  0.24921269  0.00378827  1
  Pb  Pb85  1  0.25167354  0.25699884  0.25661002  1
  Pb  Pb86  1  0.24620934  0.24733310  0.49276511  1
  Pb  Pb87  1  0.25603799  0.24550919  0.74984091  1
  Pb  Pb88  1  0.24837183  0.49959416  0.00238283  1
  Pb  Pb89  1  0.25297536  0.49297892  0.25348548  1
  Pb  Pb90  1  0.25338893  0.49461663  0.50077161  1
  Pb  Pb91  1  0.25614286  0.50493040  0.75345124  1
  Pb  Pb92  1  0.24862047  0.76101171  0.00954548  1
  Pb  Pb93  1  0.25721466  0.76042711  0.24407857  1
  Pb  Pb94  1  0.24755317  0.74943272  0.49669473  1
  Pb  Pb95  1  0.25625582  0.74899387  0.75513448  1
  Pb  Pb96  1  0.50044570  -0.00064372  -0.00312538  1
  Pb  Pb97  1  0.49542532  -0.00548555  0.23927939  1
  Pb  Pb98  1  0.50897084  -0.00244900  0.50196579  1
  Pb  Pb99  1  0.50491749  0.00235453  0.75660372  1
  Pb  Pb100  1  0.49814597  0.24567132  0.00160809  1
  Pb  Pb101  1  0.50894587  0.25122478  0.25168565  1
  Pb  Pb102  1  0.50379869  0.24940810  0.49303408  1
  Pb  Pb103  1  0.50111556  0.24223270  0.75154556  1
  Pb  Pb104  1  0.50295784  0.50606422  0.00534087  1
  Pb  Pb105  1  0.50564812  0.49830301  0.24158371  1
  Pb  Pb106  1  0.49847202  0.49494322  0.49818337  1
  Pb  Pb107  1  0.49885922  0.51483161  0.75977125  1
  Pb  Pb108  1  0.50439836  0.74790414  -0.00058767  1
  Pb  Pb109  1  0.49872678  0.74992642  0.22912531  1
  Pb  Pb110  1  0.51220960  0.75105980  0.50606145  1
  Pb  Pb111  1  0.51122738  0.74794532  0.76226104  1
  Pb  Pb112  1  0.74815405  -0.00111375  -0.00355834  1
  Pb  Pb113  1  0.74782421  0.00729651  0.24774900  1
  Pb  Pb114  1  0.74149517  0.00322765  0.49972755  1
  Pb  Pb115  1  0.74060700  -0.00671813  0.75608188  1
  Pb  Pb116  1  0.74757232  0.25331435  0.00795956  1
  Pb  Pb117  1  0.74776877  0.24592262  0.25556087  1
  Pb  Pb118  1  0.74997836  0.25185275  0.48674529  1
  Pb  Pb119  1  0.74427171  0.24753603  0.74478445  1
  Pb  Pb120  1  0.74286995  0.49604645  0.00828134  1
  Pb  Pb121  1  0.75226977  0.49658723  0.24785973  1
  Pb  Pb122  1  0.75349591  0.49962637  0.49834686  1
  Pb  Pb123  1  0.74972107  0.50450452  0.74385436  1
  Pb  Pb124  1  0.74567193  0.75018235  -0.00296312  1
  Pb  Pb125  1  0.74670506  0.74668372  0.23555206  1
  Pb  Pb126  1  0.74505639  0.74585927  0.50633502  1
  Pb  Pb127  1  0.74096305  0.75162500  0.75462832  1
  O  O128  1  0.12394108  0.00700708  0.16045647  1
  O  O129  1  0.12516970  -0.00585857  0.41153340  1
  O  O130  1  0.12716224  -0.00330252  0.66761319  1
  O  O131  1  0.12027992  0.00735475  0.91602005  1
  O  O132  1  0.12440427  0.24983579  0.17009871  1
  O  O133  1  0.12720514  0.24947486  0.40893391  1
  O  O134  1  0.12721062  0.25329071  0.66023380  1
  O  O135  1  0.12064357  0.24751472  0.91739936  1
  O  O136  1  0.12368364  0.50080481  0.16696067  1
  O  O137  1  0.12269444  0.51162896  0.41247809  1
  O  O138  1  0.12687898  0.49383490  0.66037526  1
  O  O139  1  0.12033429  0.49996432  0.91525985  1
  O  O140  1  0.12434468  0.74169903  0.15879833  1
  O  O141  1  0.12162855  0.74564232  0.41563004  1
  O  O142  1  0.12708779  0.75702269  0.66978206  1
  O  O143  1  0.12101239  0.74378161  0.91398563  1
  O  O144  1  0.37432966  0.00519026  0.15830610  1
  O  O145  1  0.37794665  0.00199364  0.40864495  1
  O  O146  1  0.37242155  0.00296707  0.66837067  1
  O  O147  1  0.36819457  -0.00453596  0.91552326  1
  O  O148  1  0.37248246  0.25514194  0.16550953  1
  O  O149  1  0.37595255  0.24155448  0.40936858  1
  O  O150  1  0.37335953  0.24502863  0.66191481  1
  O  O151  1  0.36829215  0.26050531  0.91772718  1
  O  O152  1  0.37150317  0.49232066  0.16025192  1
  O  O153  1  0.37264421  0.51486099  0.41409232  1
  O  O154  1  0.37396836  0.50633911  0.66743088  1
  O  O155  1  0.36973499  0.48529350  0.91805557  1
  O  O156  1  0.37189874  0.74692951  0.15207077  1
  O  O157  1  0.37538582  0.74238014  0.41429062  1
  O  O158  1  0.37188667  0.74736284  0.66933555  1
  O  O159  1  0.36782501  0.75613191  0.91601511  1
  O  O160  1  0.62669082  0.00623591  0.15469080  1
  O  O161  1  0.62366489  -0.00955624  0.41049018  1
  O  O162  1  0.62304275  0.00012359  0.67220029  1
  O  O163  1  0.62638374  0.00565875  0.91245743  1
  O  O164  1  0.62681631  0.24567488  0.16470930  1
  O  O165  1  0.62190884  0.25061333  0.40924123  1
  O  O166  1  0.62371164  0.25333243  0.66219363  1
  O  O167  1  0.62799115  0.25581244  0.91883258  1
  O  O168  1  0.62672702  0.49906947  0.16141820  1
  O  O169  1  0.62541597  0.50861144  0.40874471  1
  O  O170  1  0.62176033  0.49458348  0.66363792  1
  O  O171  1  0.62673936  0.48808887  0.91513149  1
  O  O172  1  0.62852881  0.75012876  0.14952765  1
  O  O173  1  0.62528439  0.75008019  0.41756070  1
  O  O174  1  0.62268988  0.75106028  0.67281601  1
  O  O175  1  0.62629387  0.74851436  0.91484304  1
  O  O176  1  0.87701397  -0.00758354  0.16261120  1
  O  O177  1  0.86912071  -0.01211218  0.41046236  1
  O  O178  1  0.87806339  0.00194399  0.66569419  1
  O  O179  1  0.88031789  0.01031799  0.91285844  1
  O  O180  1  0.87859496  0.25557625  0.16897405  1
  O  O181  1  0.87280038  0.24786301  0.40482693  1
  O  O182  1  0.87573670  0.24476170  0.65672209  1
  O  O183  1  0.87833314  0.25012235  0.91968297  1
  O  O184  1  0.88021084  0.49447363  0.16485242  1
  O  O185  1  0.87404615  0.51211423  0.41204917  1
  O  O186  1  0.87562981  0.49652788  0.66336100  1
  O  O187  1  0.87998114  0.49833598  0.91555063  1
  O  O188  1  0.87760711  0.75684332  0.15937485  1
  O  O189  1  0.87090664  0.75210001  0.41826455  1
  O  O190  1  0.87835523  0.75849366  0.66228269  1
  O  O191  1  0.88140433  0.74096390  0.91031431  1
  O  O192  1  0.00641840  0.12781559  0.16969191  1
  O  O193  1  -0.00429087  0.11885423  0.40911524  1
  O  O194  1  -0.00488966  0.12434452  0.66206877  1
  O  O195  1  0.00052063  0.12917451  0.92021105  1
  O  O196  1  0.00013477  0.37422459  0.17168404  1
  O  O197  1  0.00128198  0.38009440  0.41119833  1
  O  O198  1  0.00771141  0.37283033  0.65743134  1
  O  O199  1  -0.00013206  0.37320048  0.91741127  1
  O  O200  1  0.00646445  0.62281146  0.16751347  1
  O  O201  1  -0.00426662  0.63109338  0.41216435  1
  O  O202  1  0.00137045  0.62640022  0.66579811  1
  O  O203  1  0.00259695  0.62087769  0.91776900  1
  O  O204  1  -0.00397029  0.87476971  0.16124111  1
  O  O205  1  -0.00898295  0.87013074  0.40780543  1
  O  O206  1  0.00047404  0.87822132  0.66553052  1
  O  O207  1  0.00183338  0.87577582  0.92037644  1
  O  O208  1  0.24435817  0.12914585  0.16204908  1
  O  O209  1  0.25867454  0.12095823  0.40865535  1
  O  O210  1  0.25396449  0.12451333  0.66547288  1
  O  O211  1  0.23888581  0.12838752  0.91653310  1
  O  O212  1  0.25064563  0.37379232  0.16711213  1
  O  O213  1  0.24993001  0.38009018  0.41717167  1
  O  O214  1  0.24694895  0.37471136  0.66305325  1
  O  O215  1  0.24293825  0.37368335  0.91472366  1
  O  O216  1  0.24230050  0.61944050  0.15805206  1
  O  O217  1  0.24813908  0.63041229  0.40757641  1
  O  O218  1  0.25392525  0.62575031  0.66856441  1
  O  O219  1  0.23792178  0.61999817  0.91680313  1
  O  O220  1  0.24860016  0.87643708  0.16183270  1
  O  O221  1  0.25202163  0.86944823  0.41077976  1
  O  O222  1  0.25297761  0.87546515  0.67176001  1
  O  O223  1  0.24398196  0.87616695  0.91962576  1
  O  O224  1  0.50566395  0.12861016  0.15740592  1
  O  O225  1  0.49508228  0.12147626  0.41165660  1
  O  O226  1  0.49209698  0.12413938  0.66592846  1
  O  O227  1  0.49891828  0.13130384  0.91513195  1
  O  O228  1  0.49383481  0.37318479  0.15778063  1
  O  O229  1  0.49956565  0.38080333  0.41378245  1
  O  O230  1  0.50438551  0.37296630  0.66579809  1
  O  O231  1  0.49829411  0.37113531  0.90592137  1
  O  O232  1  0.49885028  0.62090857  0.15093271  1
  O  O233  1  0.49905165  0.62822370  0.40725522  1
  O  O234  1  0.49275819  0.62678347  0.66920422  1
  O  O235  1  0.49776427  0.61924574  0.91815022  1
  O  O236  1  0.50275459  0.87701157  0.15195854  1
  O  O237  1  0.50705390  0.86953418  0.41105394  1
  O  O238  1  0.49041742  0.87597908  0.67266488  1
  O  O239  1  0.49195853  0.87570876  0.91111784  1
  O  O240  1  0.74551197  0.12618939  0.16237083  1
  O  O241  1  0.74862880  0.11878798  0.41288450  1
  O  O242  1  0.75823902  0.12286029  0.66129022  1
  O  O243  1  0.75776574  0.13071698  0.91184829  1
  O  O244  1  0.75832014  0.37422619  0.16458467  1
  O  O245  1  0.74689823  0.38046378  0.41145283  1
  O  O246  1  0.74150892  0.37408391  0.65948352  1
  O  O247  1  0.75257276  0.37283015  0.91528721  1
  O  O248  1  0.75480658  0.62275519  0.15896832  1
  O  O249  1  0.75238930  0.63079825  0.41388081  1
  O  O250  1  0.75082824  0.62653469  0.66649869  1
  O  O251  1  0.75900970  0.61967109  0.90956935  1
  O  O252  1  0.75616340  0.87641345  0.15519135  1
  O  O253  1  0.74525046  0.86979755  0.41465019  1
  O  O254  1  0.75680230  0.87802705  0.66373433  1
  O  O255  1  0.75849359  0.87641821  0.91502967  1
  O  O256  1  0.12064079  0.13147435  0.05261001  1
  O  O257  1  0.12050960  0.12041127  0.28437857  1
  O  O258  1  0.12620214  0.11729955  0.53349322  1
  O  O259  1  0.12190454  0.12818862  0.80134318  1
  O  O260  1  0.12232913  0.37396015  0.05690456  1
  O  O261  1  0.13319814  0.38093614  0.28248694  1
  O  O262  1  0.13243750  0.37595520  0.54417298  1
  O  O263  1  0.12369853  0.37305098  0.79819358  1
  O  O264  1  0.11926443  0.61914341  0.04726883  1
  O  O265  1  0.12602166  0.62888262  0.29905818  1
  O  O266  1  0.12562573  0.63410776  0.53651384  1
  O  O267  1  0.12318322  0.62339656  0.80012706  1
  O  O268  1  0.13185518  0.87570812  0.03613160  1
  O  O269  1  0.12365612  0.86973595  0.27922954  1
  O  O270  1  0.12862778  0.87420971  0.54947384  1
  O  O271  1  0.12359040  0.87664927  0.80517887  1
  O  O272  1  0.37161617  0.13747664  0.03035275  1
  O  O273  1  0.37928992  0.12115396  0.29259805  1
  O  O274  1  0.37462780  0.12137955  0.55008006  1
  O  O275  1  0.36579050  0.12937585  0.79506444  1
  O  O276  1  0.36924872  0.37072741  0.04900683  1
  O  O277  1  0.36791521  0.37731939  0.28735363  1
  O  O278  1  0.37749308  0.38738772  0.53633471  1
  O  O279  1  0.37326960  0.37466890  0.79682704  1
  O  O280  1  0.36818215  0.61245695  0.02473509  1
  O  O281  1  0.37969856  0.62794652  0.29403369  1
  O  O282  1  0.37563844  0.62782251  0.55324098  1
  O  O283  1  0.36916291  0.61557068  0.79919343  1
  O  O284  1  0.36415314  0.87779095  0.02922288  1
  O  O285  1  0.37662741  0.87133466  0.28137307  1
  O  O286  1  0.37528770  0.87418202  0.55161268  1
  O  O287  1  0.36562505  0.87563040  0.80490528  1
  O  O288  1  0.62734743  0.13310273  0.04546457  1
  O  O289  1  0.62757340  0.12510116  0.28283068  1
  O  O290  1  0.61953183  0.11237961  0.53854101  1
  O  O291  1  0.62433536  0.13462704  0.78369291  1
  O  O292  1  0.63701209  0.37276170  0.03915929  1
  O  O293  1  0.62050334  0.37443152  0.27724619  1
  O  O294  1  0.61678173  0.37810989  0.54636422  1
  O  O295  1  0.63353894  0.36886129  0.80092524  1
  O  O296  1  0.62987360  0.61421502  0.02398691  1
  O  O297  1  0.62869258  0.63213223  0.29546837  1
  O  O298  1  0.62313693  0.63477259  0.53887273  1
  O  O299  1  0.61840517  0.62282246  0.79258565  1
  O  O300  1  0.62769012  0.87907201  0.02227537  1
  O  O301  1  0.62675433  0.86989990  0.29716773  1
  O  O302  1  0.61519345  0.87328567  0.54281984  1
  O  O303  1  0.62932418  0.87489033  0.79124043  1
  O  O304  1  0.88499290  0.12639742  0.04521424  1
  O  O305  1  0.87029119  0.11787008  0.27646932  1
  O  O306  1  0.87519023  0.11820394  0.54559168  1
  O  O307  1  0.87949209  0.13204907  0.80180104  1
  O  O308  1  0.87939825  0.37167215  0.05469418  1
  O  O309  1  0.87502756  0.38647746  0.28517589  1
  O  O310  1  0.87364130  0.38269414  0.52914500  1
  O  O311  1  0.87701625  0.37179878  0.79760631  1
  O  O312  1  0.88558846  0.62287861  0.03384094  1
  O  O313  1  0.87469708  0.63258794  0.30068406  1
  O  O314  1  0.87693884  0.62736721  0.53436109  1
  O  O315  1  0.88040137  0.61883339  0.80071117  1
  O  O316  1  0.87939986  0.87805963  0.04313753  1
  O  O317  1  0.87053383  0.87015409  0.29715530  1
  O  O318  1  0.87594861  0.87901797  0.55197641  1
  O  O319  1  0.88340494  0.87860549  0.78506853  1
