# generated using pymatgen
data_VFe(PbO3)2
_symmetry_space_group_name_H-M   'P 1'
_cell_length_a   15.37946555
_cell_length_b   15.38343921
_cell_length_c   18.50453314
_cell_angle_alpha   89.98346104
_cell_angle_beta   89.99667962
_cell_angle_gamma   89.99376269
_symmetry_Int_Tables_number   1
_chemical_formula_structural   VFe(PbO3)2
_chemical_formula_sum   'V32 Fe32 Pb64 O192'
_cell_volume   4377.97013452
_cell_formula_units_Z   32
loop_
 _symmetry_equiv_pos_site_id
 _symmetry_equiv_pos_as_xyz
  1  'x, y, z'
loop_
 _atom_site_type_symbol
 _atom_site_label
 _atom_site_symmetry_multiplicity
 _atom_site_fract_x
 _atom_site_fract_y
 _atom_site_fract_z
 _atom_site_occupancy
  V  V0  1  0.37366857  0.12372124  0.13644018  1
  V  V1  1  0.37678287  0.37410394  0.63940298  1
  V  V2  1  0.62363363  0.12459185  0.89390413  1
  V  V3  1  0.12763394  0.38014909  0.38663056  1
  V  V4  1  0.12664069  0.87398300  0.38685476  1
  V  V5  1  0.12490169  0.62504463  0.13967122  1
  V  V6  1  0.62656121  0.61988721  0.63888335  1
  V  V7  1  0.12364499  0.37044101  0.64338182  1
  V  V8  1  0.12344615  0.12398361  0.64128331  1
  V  V9  1  0.12269348  0.87417186  0.64350240  1
  V  V10  1  0.87388701  0.62606040  0.89105591  1
  V  V11  1  0.87465854  0.12293563  0.64044583  1
  V  V12  1  0.37753541  0.87438187  0.88959620  1
  V  V13  1  0.87402280  0.88000539  0.89093449  1
  V  V14  1  0.12437913  0.12308079  0.38916290  1
  V  V15  1  0.37235540  0.12365928  0.64123868  1
  V  V16  1  0.37650879  0.37272017  0.89041574  1
  V  V17  1  0.12748380  0.37697384  0.13649521  1
  V  V18  1  0.37477749  0.87681144  0.39357708  1
  V  V19  1  0.37267802  0.37568251  0.14214010  1
  V  V20  1  0.62250101  0.87159993  0.13647506  1
  V  V21  1  0.12406517  0.12578429  0.89642281  1
  V  V22  1  0.62351252  0.62668850  0.38748245  1
  V  V23  1  0.87614762  0.87377715  0.13538049  1
  V  V24  1  0.12351360  0.61951758  0.64150069  1
  V  V25  1  0.37555334  0.62406691  0.13783495  1
  V  V26  1  0.37364731  0.12463730  0.38869637  1
  V  V27  1  0.62331415  0.87171202  0.38900250  1
  V  V28  1  0.37595243  0.12604665  0.89110763  1
  V  V29  1  0.62573581  0.37514425  0.89344433  1
  V  V30  1  0.62572583  0.87602920  0.64169419  1
  V  V31  1  0.12704883  0.62375936  0.88783105  1
  Fe  Fe32  1  0.62781997  0.87732715  0.88612196  1
  Fe  Fe33  1  0.62349579  0.12360731  0.14438072  1
  Fe  Fe34  1  0.87579510  0.37553944  0.89299371  1
  Fe  Fe35  1  0.12720166  0.87239573  0.12616395  1
  Fe  Fe36  1  0.87687603  0.37401829  0.37890342  1
  Fe  Fe37  1  0.37527332  0.87308332  0.13041054  1
  Fe  Fe38  1  0.87718731  0.37823690  0.13474238  1
  Fe  Fe39  1  0.37485951  0.62685236  0.38814630  1
  Fe  Fe40  1  0.37545793  0.62229759  0.87785665  1
  Fe  Fe41  1  0.87549221  0.37665737  0.63492326  1
  Fe  Fe42  1  0.62577011  0.37199040  0.63167991  1
  Fe  Fe43  1  0.12769170  0.12638176  0.13001028  1
  Fe  Fe44  1  0.87676496  0.12329919  0.37730918  1
  Fe  Fe45  1  0.12731246  0.62858685  0.38205030  1
  Fe  Fe46  1  0.87543822  0.87539925  0.38306973  1
  Fe  Fe47  1  0.62373005  0.62487600  0.88992881  1
  Fe  Fe48  1  0.12638029  0.37554825  0.88537725  1
  Fe  Fe49  1  0.62282184  0.37502527  0.37860339  1
  Fe  Fe50  1  0.12288325  0.87462830  0.89798612  1
  Fe  Fe51  1  0.62418544  0.62614362  0.13085018  1
  Fe  Fe52  1  0.87656198  0.62779359  0.63834625  1
  Fe  Fe53  1  0.87281909  0.12665856  0.89639379  1
  Fe  Fe54  1  0.62356539  0.12072416  0.37748054  1
  Fe  Fe55  1  0.37254051  0.37390387  0.38333410  1
  Fe  Fe56  1  0.37361493  0.87724277  0.63785192  1
  Fe  Fe57  1  0.87683607  0.12560398  0.13209868  1
  Fe  Fe58  1  0.62302190  0.37751762  0.13877673  1
  Fe  Fe59  1  0.87720097  0.62718848  0.38118433  1
  Fe  Fe60  1  0.37224262  0.62768289  0.64922165  1
  Fe  Fe61  1  0.87552628  0.87420510  0.63705127  1
  Fe  Fe62  1  0.62424869  0.12475617  0.63260516  1
  Fe  Fe63  1  0.87405401  0.62590614  0.13648973  1
  Pb  Pb64  1  0.00113954  0.00866719  0.00626071  1
  Pb  Pb65  1  -0.00296704  0.00214409  0.24151351  1
  Pb  Pb66  1  -0.00795746  -0.00518775  0.49802004  1
  Pb  Pb67  1  -0.00503029  0.00685808  0.75809890  1
  Pb  Pb68  1  -0.00811298  0.25512896  0.00132709  1
  Pb  Pb69  1  -0.01098339  0.24632852  0.24479687  1
  Pb  Pb70  1  -0.00862433  0.25330391  0.49660826  1
  Pb  Pb71  1  -0.01249239  0.24906845  0.75933110  1
  Pb  Pb72  1  -0.00659293  0.49905272  0.00262791  1
  Pb  Pb73  1  -0.00771766  0.50257920  0.25037139  1
  Pb  Pb74  1  -0.01265158  0.50547892  0.49749929  1
  Pb  Pb75  1  -0.00700612  0.48698420  0.75505369  1
  Pb  Pb76  1  -0.00313648  0.74551981  0.00149053  1
  Pb  Pb77  1  -0.00740098  0.75248747  0.25172349  1
  Pb  Pb78  1  -0.00946845  0.74548465  0.49932252  1
  Pb  Pb79  1  0.00075483  0.75558226  0.75324816  1
  Pb  Pb80  1  0.24915962  -0.00365672  0.00353589  1
  Pb  Pb81  1  0.24434738  -0.00749337  0.24013726  1
  Pb  Pb82  1  0.25210944  -0.00532764  0.50386127  1
  Pb  Pb83  1  0.24128941  -0.00475390  0.75758228  1
  Pb  Pb84  1  0.24732806  0.24550708  0.00182201  1
  Pb  Pb85  1  0.25394174  0.25559275  0.24976914  1
  Pb  Pb86  1  0.24761561  0.24879243  0.49976433  1
  Pb  Pb87  1  0.24280738  0.25171403  0.75366248  1
  Pb  Pb88  1  0.25251130  0.50153062  -0.00273689  1
  Pb  Pb89  1  0.25202961  0.50936096  0.25546172  1
  Pb  Pb90  1  0.26014654  0.51223095  0.50191590  1
  Pb  Pb91  1  0.24735345  0.49509603  0.75189193  1
  Pb  Pb92  1  0.25402041  0.75958813  -0.00004089  1
  Pb  Pb93  1  0.24924952  0.74378245  0.24958174  1
  Pb  Pb94  1  0.25836209  0.74742695  0.50707021  1
  Pb  Pb95  1  0.24779988  0.75624565  0.75460238  1
  Pb  Pb96  1  0.49891639  0.00029523  0.00316639  1
  Pb  Pb97  1  0.50279984  0.00094300  0.24867646  1
  Pb  Pb98  1  0.50472728  0.00463346  0.50225760  1
  Pb  Pb99  1  0.50257750  -0.00473281  0.75069531  1
  Pb  Pb100  1  0.51214712  0.25251785  0.01068344  1
  Pb  Pb101  1  0.50699207  0.25564038  0.25143723  1
  Pb  Pb102  1  0.51421511  0.25314582  0.49535203  1
  Pb  Pb103  1  0.50360772  0.24837954  0.74616941  1
  Pb  Pb104  1  0.50895278  0.49930574  0.00263244  1
  Pb  Pb105  1  0.50163481  0.49461995  0.25085987  1
  Pb  Pb106  1  0.50144859  0.49435031  0.49503497  1
  Pb  Pb107  1  0.50606272  0.51203815  0.75591437  1
  Pb  Pb108  1  0.50494898  0.74238267  -0.00528231  1
  Pb  Pb109  1  0.49309141  0.74298333  0.24899145  1
  Pb  Pb110  1  0.49214433  0.74985186  0.50610803  1
  Pb  Pb111  1  0.50250628  0.74616926  0.75245986  1
  Pb  Pb112  1  0.74518618  0.01557940  0.01107947  1
  Pb  Pb113  1  0.75319287  0.00712157  0.24763226  1
  Pb  Pb114  1  0.74955181  0.00579918  0.49223369  1
  Pb  Pb115  1  0.74755641  -0.00158474  0.75217492  1
  Pb  Pb116  1  0.75058112  0.25572224  0.00803333  1
  Pb  Pb117  1  0.75114415  0.25479701  0.24039436  1
  Pb  Pb118  1  0.74663938  0.25054779  0.48496527  1
  Pb  Pb119  1  0.75504480  0.25200566  0.74803021  1
  Pb  Pb120  1  0.75978286  0.50072085  0.00884537  1
  Pb  Pb121  1  0.75056351  0.49722831  0.24156076  1
  Pb  Pb122  1  0.75689816  0.48799230  0.49351352  1
  Pb  Pb123  1  0.75468639  0.49365908  0.74811124  1
  Pb  Pb124  1  0.74778545  0.74430886  -0.00028006  1
  Pb  Pb125  1  0.75689606  0.74890210  0.24779050  1
  Pb  Pb126  1  0.75899033  0.75013936  0.49943830  1
  Pb  Pb127  1  0.74287900  0.75068336  0.75179141  1
  O  O128  1  0.12831024  -0.00186442  0.15575385  1
  O  O129  1  0.12796991  0.00229590  0.41573931  1
  O  O130  1  0.12382070  -0.00044527  0.66907470  1
  O  O131  1  0.12701788  0.00616932  0.91662279  1
  O  O132  1  0.13235307  0.25989466  0.15630549  1
  O  O133  1  0.12836876  0.24102450  0.41511878  1
  O  O134  1  0.12428819  0.24672387  0.67001133  1
  O  O135  1  0.12928441  0.24611081  0.91487731  1
  O  O136  1  0.13201488  0.50158496  0.16533743  1
  O  O137  1  0.12968059  0.49373169  0.40314209  1
  O  O138  1  0.12755473  0.50159274  0.66192260  1
  O  O139  1  0.12642503  0.50677795  0.91442957  1
  O  O140  1  0.13090151  0.74293499  0.15658774  1
  O  O141  1  0.12993274  0.76043658  0.40771146  1
  O  O142  1  0.12473449  0.75468149  0.66495793  1
  O  O143  1  0.12515607  0.73978751  0.91494062  1
  O  O144  1  0.37346409  0.00501450  0.15753519  1
  O  O145  1  0.37218336  0.00222380  0.41937107  1
  O  O146  1  0.37095645  0.00418236  0.66840875  1
  O  O147  1  0.37609223  0.00307099  0.91595992  1
  O  O148  1  0.37184696  0.24858068  0.16178164  1
  O  O149  1  0.37038839  0.24041895  0.41155023  1
  O  O150  1  0.37096111  0.25081453  0.66788061  1
  O  O151  1  0.37596006  0.25195804  0.91802640  1
  O  O152  1  0.37345356  0.50462390  0.16382304  1
  O  O153  1  0.37270140  0.49964168  0.41490110  1
  O  O154  1  0.37043565  0.48992954  0.66133928  1
  O  O155  1  0.37735924  0.49091208  0.91137937  1
  O  O156  1  0.37322850  0.74311111  0.15912898  1
  O  O157  1  0.37293368  0.75549000  0.41967057  1
  O  O158  1  0.37368279  0.75476269  0.67034393  1
  O  O159  1  0.37448657  0.75575301  0.90244510  1
  O  O160  1  0.62329502  -0.01153531  0.16518962  1
  O  O161  1  0.61959223  -0.00845273  0.41219612  1
  O  O162  1  0.62621446  -0.00182414  0.66545577  1
  O  O163  1  0.62338578  0.00597108  0.91541907  1
  O  O164  1  0.62060694  0.25006835  0.16302729  1
  O  O165  1  0.62084495  0.24651371  0.40338906  1
  O  O166  1  0.62386698  0.24770099  0.66515657  1
  O  O167  1  0.62197857  0.24885769  0.91957692  1
  O  O168  1  0.61985595  0.50395662  0.16276400  1
  O  O169  1  0.62109896  0.50966325  0.40538152  1
  O  O170  1  0.62437105  0.50273007  0.65918729  1
  O  O171  1  0.61984691  0.49198908  0.91116082  1
  O  O172  1  0.62266543  0.75610587  0.16205394  1
  O  O173  1  0.62145812  0.75417309  0.41901582  1
  O  O174  1  0.62458779  0.75372660  0.66286232  1
  O  O175  1  0.62478578  0.75276762  0.91327008  1
  O  O176  1  0.87537878  -0.00899944  0.15757220  1
  O  O177  1  0.87808762  -0.00056729  0.41236746  1
  O  O178  1  0.87771868  0.00432787  0.66708491  1
  O  O179  1  0.87622563  -0.00549972  0.91321586  1
  O  O180  1  0.87972221  0.25216932  0.15417637  1
  O  O181  1  0.87973051  0.24797379  0.40895433  1
  O  O182  1  0.87896720  0.24275442  0.66393807  1
  O  O183  1  0.87285754  0.25134155  0.92009363  1
  O  O184  1  0.88013691  0.50226119  0.16296801  1
  O  O185  1  0.87778111  0.50067893  0.40812884  1
  O  O186  1  0.87580306  0.50321074  0.66800519  1
  O  O187  1  0.87480749  0.50675251  0.91434199  1
  O  O188  1  0.87612404  0.75525566  0.16183561  1
  O  O189  1  0.87517257  0.75188342  0.41480614  1
  O  O190  1  0.87621160  0.75134353  0.67088339  1
  O  O191  1  0.87659378  0.74709072  0.91416453  1
  O  O192  1  0.00344248  0.12326024  0.15671642  1
  O  O193  1  0.00865078  0.12250601  0.41154038  1
  O  O194  1  -0.00076700  0.12332598  0.67010642  1
  O  O195  1  0.00653925  0.12546249  0.91629545  1
  O  O196  1  0.01279611  0.38112568  0.15567032  1
  O  O197  1  0.01235170  0.37027711  0.41278809  1
  O  O198  1  0.00289246  0.37495715  0.66584722  1
  O  O199  1  0.00349296  0.37637425  0.91580637  1
  O  O200  1  0.00920361  0.62475648  0.15685200  1
  O  O201  1  0.00426810  0.62753046  0.41156631  1
  O  O202  1  0.00993922  0.62792856  0.66760801  1
  O  O203  1  0.00059024  0.62466591  0.91437297  1
  O  O204  1  -0.00328179  0.87192946  0.15291447  1
  O  O205  1  0.01027466  0.87868995  0.41011205  1
  O  O206  1  0.00578501  0.87751946  0.66811827  1
  O  O207  1  -0.00840458  0.87134320  0.91810865  1
  O  O208  1  0.25613036  0.12696464  0.16241611  1
  O  O209  1  0.25023259  0.12088781  0.41755000  1
  O  O210  1  0.24676447  0.12518344  0.66949818  1
  O  O211  1  0.25217330  0.12621882  0.91593262  1
  O  O212  1  0.24923809  0.37943004  0.16834486  1
  O  O213  1  0.24323087  0.36717072  0.41641311  1
  O  O214  1  0.25082947  0.37135317  0.66891684  1
  O  O215  1  0.25679848  0.37379014  0.91350253  1
  O  O216  1  0.25329474  0.62337388  0.16460104  1
  O  O217  1  0.24874284  0.62772686  0.42027780  1
  O  O218  1  0.23891200  0.62750040  0.67089120  1
  O  O219  1  0.24788441  0.62261999  0.90627053  1
  O  O220  1  0.25147659  0.87219103  0.16106322  1
  O  O221  1  0.24660115  0.88134573  0.41620631  1
  O  O222  1  0.24181578  0.87793531  0.66976073  1
  O  O223  1  0.25767673  0.87760971  0.91379355  1
  O  O224  1  0.48905691  0.12433255  0.16429837  1
  O  O225  1  0.49085177  0.11906337  0.40831860  1
  O  O226  1  0.49375791  0.12442501  0.66486930  1
  O  O227  1  0.50206725  0.12653261  0.91865085  1
  O  O228  1  0.49136309  0.37642328  0.16374946  1
  O  O229  1  0.49749679  0.37499054  0.41161765  1
  O  O230  1  0.49265062  0.37090440  0.66018909  1
  O  O231  1  0.49841154  0.36996722  0.91732386  1
  O  O232  1  0.49305486  0.62683552  0.16001646  1
  O  O233  1  0.50498709  0.63116959  0.41818537  1
  O  O234  1  0.50718019  0.62646093  0.66410439  1
  O  O235  1  0.49536590  0.62341134  0.91321863  1
  O  O236  1  0.50283960  0.87326675  0.16008286  1
  O  O237  1  0.50027230  0.87419202  0.41826450  1
  O  O238  1  0.50541914  0.87870526  0.66379815  1
  O  O239  1  0.49496683  0.88003057  0.91094582  1
  O  O240  1  0.75193295  0.12045813  0.16075002  1
  O  O241  1  0.74917144  0.11966733  0.40396537  1
  O  O242  1  0.75715446  0.12395767  0.65993751  1
  O  O243  1  0.74092779  0.12657029  0.91711651  1
  O  O244  1  0.75063712  0.37748733  0.15793331  1
  O  O245  1  0.74918574  0.37596716  0.40468126  1
  O  O246  1  0.75014889  0.37348532  0.66505807  1
  O  O247  1  0.74131849  0.37334100  0.91423053  1
  O  O248  1  0.74805374  0.62868341  0.16017797  1
  O  O249  1  0.74067348  0.63131535  0.40793716  1
  O  O250  1  0.74267175  0.62828617  0.66441201  1
  O  O251  1  0.75563416  0.62523391  0.91100569  1
  O  O252  1  0.74866794  0.87272835  0.15949736  1
  O  O253  1  0.74140187  0.87438867  0.40891979  1
  O  O254  1  0.74574197  0.87707103  0.66597201  1
  O  O255  1  0.75824441  0.87195334  0.91481115  1
  O  O256  1  0.13095909  0.12607095  0.03017218  1
  O  O257  1  0.12759332  0.12376071  0.29827911  1
  O  O258  1  0.12155491  0.12436369  0.55053270  1
  O  O259  1  0.12532602  0.12441613  0.80447091  1
  O  O260  1  0.13541086  0.38272169  0.04528385  1
  O  O261  1  0.12854584  0.36973928  0.29577256  1
  O  O262  1  0.12796297  0.36843847  0.55267755  1
  O  O263  1  0.12972571  0.37730605  0.78520270  1
  O  O264  1  0.13248207  0.61963525  0.04852181  1
  O  O265  1  0.13553553  0.62797480  0.28191810  1
  O  O266  1  0.12527013  0.62348495  0.55032090  1
  O  O267  1  0.12144189  0.62349144  0.79697294  1
  O  O268  1  0.13367158  0.87018770  0.02434990  1
  O  O269  1  0.12870246  0.87910501  0.29542269  1
  O  O270  1  0.12455984  0.87621984  0.55272165  1
  O  O271  1  0.12718177  0.87453955  0.79741152  1
  O  O272  1  0.37482843  0.12605012  0.04493860  1
  O  O273  1  0.36849761  0.12098206  0.29818800  1
  O  O274  1  0.37096329  0.12426786  0.55020946  1
  O  O275  1  0.37685420  0.12653933  0.80034569  1
  O  O276  1  0.36977418  0.37820991  0.05081595  1
  O  O277  1  0.37030506  0.37157484  0.28364357  1
  O  O278  1  0.37232073  0.36891003  0.54844397  1
  O  O279  1  0.37863538  0.37062815  0.79963155  1
  O  O280  1  0.37140682  0.62063356  0.04661188  1
  O  O281  1  0.37329589  0.63240695  0.28823084  1
  O  O282  1  0.36460582  0.62899299  0.54753335  1
  O  O283  1  0.38197223  0.61772253  0.77654705  1
  O  O284  1  0.37182423  0.87397801  0.03097885  1
  O  O285  1  0.37476858  0.87595179  0.30249698  1
  O  O286  1  0.36840189  0.87505707  0.53790645  1
  O  O287  1  0.37469102  0.88377691  0.79802260  1
  O  O288  1  0.62170994  0.11769275  0.04267586  1
  O  O289  1  0.61857134  0.11244559  0.27624191  1
  O  O290  1  0.62029587  0.11976202  0.53292028  1
  O  O291  1  0.62251933  0.12801271  0.80280495  1
  O  O292  1  0.61783219  0.37344537  0.03656907  1
  O  O293  1  0.61686510  0.37717020  0.27753123  1
  O  O294  1  0.62237672  0.37208069  0.53161103  1
  O  O295  1  0.62199302  0.36930788  0.80228191  1
  O  O296  1  0.61914269  0.62770181  0.02924385  1
  O  O297  1  0.61637913  0.63540340  0.29663469  1
  O  O298  1  0.62679647  0.62419713  0.54829735  1
  O  O299  1  0.61821404  0.62268129  0.78875434  1
  O  O300  1  0.62325646  0.87420934  0.04505901  1
  O  O301  1  0.61800729  0.86883777  0.29847738  1
  O  O302  1  0.62652984  0.87687142  0.55078101  1
  O  O303  1  0.62968599  0.88164261  0.78632784  1
  O  O304  1  0.87431598  0.11750066  0.02882901  1
  O  O305  1  0.88518231  0.12125193  0.27676107  1
  O  O306  1  0.88111079  0.12146149  0.54937850  1
  O  O307  1  0.88074921  0.12742318  0.79526420  1
  O  O308  1  0.87427379  0.38522953  0.03113772  1
  O  O309  1  0.88601110  0.37527685  0.27837914  1
  O  O310  1  0.87764479  0.38025614  0.53451491  1
  O  O311  1  0.87650838  0.37526264  0.79080998  1
  O  O312  1  0.87497299  0.62344056  0.03490463  1
  O  O313  1  0.88174441  0.63454252  0.28020584  1
  O  O314  1  0.88163507  0.62799671  0.53758416  1
  O  O315  1  0.87733696  0.62662536  0.80004052  1
  O  O316  1  0.87130021  0.87180567  0.04456922  1
  O  O317  1  0.88040187  0.86849838  0.28307670  1
  O  O318  1  0.87849729  0.87290449  0.53725807  1
  O  O319  1  0.87520994  0.87785769  0.79899976  1
