# generated using pymatgen
data_VFe(PbO3)2
_symmetry_space_group_name_H-M   'P 1'
_cell_length_a   15.37750137
_cell_length_b   15.37896732
_cell_length_c   18.55802859
_cell_angle_alpha   89.99817183
_cell_angle_beta   89.99082759
_cell_angle_gamma   90.00994072
_symmetry_Int_Tables_number   1
_chemical_formula_structural   VFe(PbO3)2
_chemical_formula_sum   'V32 Fe32 Pb64 O192'
_cell_volume   4388.78974414
_cell_formula_units_Z   32
loop_
 _symmetry_equiv_pos_site_id
 _symmetry_equiv_pos_as_xyz
  1  'x, y, z'
loop_
 _atom_site_type_symbol
 _atom_site_label
 _atom_site_symmetry_multiplicity
 _atom_site_fract_x
 _atom_site_fract_y
 _atom_site_fract_z
 _atom_site_occupancy
  V  V0  1  0.87460128  0.87208483  0.64534577  1
  V  V1  1  0.37758926  0.37422724  0.13838872  1
  V  V2  1  0.37310742  0.37676991  0.63983782  1
  V  V3  1  0.37605374  0.62503268  0.14297656  1
  V  V4  1  0.62195060  0.37285983  0.39604153  1
  V  V5  1  0.12324184  0.37797823  0.64304011  1
  V  V6  1  0.37552984  0.12323073  0.39629192  1
  V  V7  1  0.12419199  0.87918481  0.38787083  1
  V  V8  1  0.37374319  0.87193838  0.63862003  1
  V  V9  1  0.37687266  0.12873246  0.88753207  1
  V  V10  1  0.12387040  0.87166874  0.64637717  1
  V  V11  1  0.62379657  0.12562803  0.88556123  1
  V  V12  1  0.87254289  0.37688682  0.38817542  1
  V  V13  1  0.62756486  0.87779823  0.39314419  1
  V  V14  1  0.88047743  0.62362800  0.64397187  1
  V  V15  1  0.87604101  0.87844504  0.38758897  1
  V  V16  1  0.87583742  0.37754957  0.64102097  1
  V  V17  1  0.12518558  0.62454725  0.89482073  1
  V  V18  1  0.87809489  0.37316600  0.89205358  1
  V  V19  1  0.62435281  0.37729767  0.13968780  1
  V  V20  1  0.37466632  0.87633783  0.38738029  1
  V  V21  1  0.37550031  0.87873943  0.13750597  1
  V  V22  1  0.62351381  0.87502077  0.88836420  1
  V  V23  1  0.37743987  0.87808614  0.89039668  1
  V  V24  1  0.62193994  0.37562081  0.88560875  1
  V  V25  1  0.87395896  0.12547226  0.13404188  1
  V  V26  1  0.87314611  0.87500598  0.13309719  1
  V  V27  1  0.37111368  0.37281824  0.39012919  1
  V  V28  1  0.87479042  0.12648159  0.39467473  1
  V  V29  1  0.37588747  0.62743665  0.89140932  1
  V  V30  1  0.36980117  0.62554257  0.63795322  1
  V  V31  1  0.12553870  0.62457409  0.64198539  1
  Fe  Fe32  1  0.37160497  0.12370459  0.63440190  1
  Fe  Fe33  1  0.13006741  0.37611511  0.89112361  1
  Fe  Fe34  1  0.12516511  0.62606377  0.13186038  1
  Fe  Fe35  1  0.87449954  0.87541692  0.88195128  1
  Fe  Fe36  1  0.12846647  0.87383216  0.89001365  1
  Fe  Fe37  1  0.87086171  0.37096547  0.12756019  1
  Fe  Fe38  1  0.12557244  0.12504725  0.88354550  1
  Fe  Fe39  1  0.12464289  0.12479861  0.38760062  1
  Fe  Fe40  1  0.62589564  0.12536499  0.39616892  1
  Fe  Fe41  1  0.37663154  0.62532337  0.38368077  1
  Fe  Fe42  1  0.62655560  0.62566567  0.38515929  1
  Fe  Fe43  1  0.62341926  0.62644787  0.13620000  1
  Fe  Fe44  1  0.12712115  0.12457305  0.12950526  1
  Fe  Fe45  1  0.87241541  0.62583701  0.89292553  1
  Fe  Fe46  1  0.62592680  0.87179353  0.63278805  1
  Fe  Fe47  1  0.12141913  0.37009175  0.38332101  1
  Fe  Fe48  1  0.62739877  0.37843332  0.63309607  1
  Fe  Fe49  1  0.87355983  0.62332853  0.12645121  1
  Fe  Fe50  1  0.62259998  0.12507592  0.13585397  1
  Fe  Fe51  1  0.62222668  0.62435665  0.88531686  1
  Fe  Fe52  1  0.62452366  0.87509306  0.13396250  1
  Fe  Fe53  1  0.87161103  0.12373441  0.87827095  1
  Fe  Fe54  1  0.62399635  0.12452643  0.63086345  1
  Fe  Fe55  1  0.12431800  0.37377230  0.12819819  1
  Fe  Fe56  1  0.12720812  0.12451256  0.64452525  1
  Fe  Fe57  1  0.12466174  0.87488558  0.12940460  1
  Fe  Fe58  1  0.12363838  0.62439791  0.38053141  1
  Fe  Fe59  1  0.37939147  0.37815743  0.88417866  1
  Fe  Fe60  1  0.37654563  0.12739544  0.13059503  1
  Fe  Fe61  1  0.87803444  0.12551648  0.64408481  1
  Fe  Fe62  1  0.62618574  0.62517291  0.63958057  1
  Fe  Fe63  1  0.87348060  0.62850570  0.38240391  1
  Pb  Pb64  1  0.00216920  0.00080034  -0.01264829  1
  Pb  Pb65  1  0.00404048  0.00445099  0.24224627  1
  Pb  Pb66  1  -0.00011986  0.01020490  0.50976786  1
  Pb  Pb67  1  -0.00007955  0.00143555  0.75605970  1
  Pb  Pb68  1  0.00734627  0.24607944  -0.00584643  1
  Pb  Pb69  1  0.00767735  0.25602885  0.24191118  1
  Pb  Pb70  1  0.00067469  0.24283521  0.50350425  1
  Pb  Pb71  1  0.00442816  0.24217573  0.75408631  1
  Pb  Pb72  1  -0.00158530  0.50596771  0.00444464  1
  Pb  Pb73  1  -0.00079620  0.50016929  0.23606883  1
  Pb  Pb74  1  0.00126758  0.50188992  0.49138367  1
  Pb  Pb75  1  0.00533643  0.49616257  0.75806931  1
  Pb  Pb76  1  -0.00040267  0.75236695  -0.00290425  1
  Pb  Pb77  1  0.00092996  0.73868048  0.24252348  1
  Pb  Pb78  1  -0.00151465  0.75092715  0.49455983  1
  Pb  Pb79  1  -0.00672891  0.75216589  0.76176410  1
  Pb  Pb80  1  0.24104272  0.00402630  0.00064458  1
  Pb  Pb81  1  0.24441635  0.00785667  0.24442761  1
  Pb  Pb82  1  0.24703279  0.00867729  0.50640907  1
  Pb  Pb83  1  0.24232616  0.00006978  0.75505353  1
  Pb  Pb84  1  0.24306975  0.25208012  -0.00145805  1
  Pb  Pb85  1  0.23842463  0.24708927  0.24782572  1
  Pb  Pb86  1  0.24432810  0.24207936  0.50543440  1
  Pb  Pb87  1  0.24342398  0.24895121  0.75374047  1
  Pb  Pb88  1  0.24628837  0.49678192  0.00248110  1
  Pb  Pb89  1  0.23913663  0.49859637  0.24727086  1
  Pb  Pb90  1  0.24646859  0.50179955  0.49221228  1
  Pb  Pb91  1  0.25221253  0.48876869  0.75773135  1
  Pb  Pb92  1  0.24556220  0.74974152  0.00516015  1
  Pb  Pb93  1  0.24665175  0.74379792  0.24775554  1
  Pb  Pb94  1  0.25065139  0.75007846  0.49315353  1
  Pb  Pb95  1  0.24467557  0.75359189  0.75601938  1
  Pb  Pb96  1  0.50283389  0.00442841  0.00417617  1
  Pb  Pb97  1  0.50449164  0.00465997  0.24884824  1
  Pb  Pb98  1  0.50624886  -0.00262754  0.50472882  1
  Pb  Pb99  1  0.50258963  0.00253733  0.74163882  1
  Pb  Pb100  1  0.50071779  0.23969277  0.00127386  1
  Pb  Pb101  1  0.50302227  0.24415077  0.25161186  1
  Pb  Pb102  1  0.49910074  0.24474310  0.50664270  1
  Pb  Pb103  1  0.49831777  0.25354109  0.74169314  1
  Pb  Pb104  1  0.50549132  0.50613878  0.00119975  1
  Pb  Pb105  1  0.49882199  0.50686847  0.25471815  1
  Pb  Pb106  1  0.50786315  0.50421983  0.50161979  1
  Pb  Pb107  1  0.50108377  0.50177000  0.74730965  1
  Pb  Pb108  1  0.50927530  0.75136584  0.00440900  1
  Pb  Pb109  1  0.50269804  0.74418999  0.25161796  1
  Pb  Pb110  1  0.50669632  0.74815824  0.49935198  1
  Pb  Pb111  1  0.50775481  0.74478099  0.74797043  1
  Pb  Pb112  1  0.74470472  -0.00225302  -0.00437433  1
  Pb  Pb113  1  0.74439501  0.00379307  0.24799090  1
  Pb  Pb114  1  0.75322380  0.00664285  0.50774370  1
  Pb  Pb115  1  0.75359401  0.00155894  0.74618971  1
  Pb  Pb116  1  0.75009350  0.25288951  -0.00303481  1
  Pb  Pb117  1  0.74323471  0.24352773  0.24994847  1
  Pb  Pb118  1  0.74642492  0.25040682  0.50740787  1
  Pb  Pb119  1  0.74936541  0.24529690  0.74388812  1
  Pb  Pb120  1  0.75376892  0.50104028  0.00023638  1
  Pb  Pb121  1  0.75695555  0.50999545  0.24453014  1
  Pb  Pb122  1  0.74337474  0.50582430  0.50308304  1
  Pb  Pb123  1  0.74908338  0.51044610  0.75389540  1
  Pb  Pb124  1  0.74929366  0.74171695  -0.00296882  1
  Pb  Pb125  1  0.74819551  0.74172413  0.24568652  1
  Pb  Pb126  1  0.74401794  0.74861663  0.50032606  1
  Pb  Pb127  1  0.75566744  0.74415807  0.75554828  1
  O  O128  1  0.12635614  -0.00134398  0.16169324  1
  O  O129  1  0.12607839  -0.00460953  0.41626852  1
  O  O130  1  0.12662720  -0.01021892  0.66714695  1
  O  O131  1  0.13170835  0.00040003  0.91010529  1
  O  O132  1  0.12769386  0.24930086  0.15926272  1
  O  O133  1  0.12269561  0.24839206  0.41915515  1
  O  O134  1  0.12675463  0.25753055  0.66538455  1
  O  O135  1  0.12979581  0.24943632  0.91087315  1
  O  O136  1  0.12746587  0.49871641  0.15764802  1
  O  O137  1  0.12323087  0.49623752  0.41162541  1
  O  O138  1  0.12419976  0.50169357  0.67099598  1
  O  O139  1  0.12819692  0.50622139  0.91632666  1
  O  O140  1  0.12625745  0.75272833  0.16169271  1
  O  O141  1  0.12547288  0.75953708  0.41161745  1
  O  O142  1  0.12627471  0.74910280  0.67006449  1
  O  O143  1  0.13057601  0.74355364  0.91550845  1
  O  O144  1  0.37667365  -0.00552205  0.15920082  1
  O  O145  1  0.37487094  0.00314104  0.41633608  1
  O  O146  1  0.37023996  -0.01089186  0.66093312  1
  O  O147  1  0.38052956  -0.00458559  0.90989757  1
  O  O148  1  0.38083344  0.25877575  0.15969088  1
  O  O149  1  0.37735155  0.25232398  0.41828369  1
  O  O150  1  0.37212282  0.25900823  0.66021691  1
  O  O151  1  0.38216698  0.24408398  0.90514820  1
  O  O152  1  0.37867799  0.50003008  0.16663005  1
  O  O153  1  0.37717412  0.49014517  0.41366079  1
  O  O154  1  0.37183142  0.50074279  0.66375527  1
  O  O155  1  0.37811073  0.50953057  0.91504867  1
  O  O156  1  0.37622308  0.74559683  0.16195841  1
  O  O157  1  0.37441742  0.75579194  0.41379335  1
  O  O158  1  0.36978671  0.75163618  0.66584694  1
  O  O159  1  0.37719457  0.74794317  0.91721876  1
  O  O160  1  0.62289294  -0.00130580  0.16790661  1
  O  O161  1  0.62439156  -0.00430603  0.41757418  1
  O  O162  1  0.62385840  -0.00349536  0.66117115  1
  O  O163  1  0.61877958  -0.00275328  0.91080933  1
  O  O164  1  0.62056791  0.25557921  0.16673170  1
  O  O165  1  0.62779843  0.25497636  0.42083982  1
  O  O166  1  0.62439311  0.25281740  0.65990802  1
  O  O167  1  0.62087945  0.25051455  0.90948295  1
  O  O168  1  0.62276846  0.49376677  0.16290755  1
  O  O169  1  0.62878052  0.49296311  0.41456811  1
  O  O170  1  0.62545973  0.50042516  0.66701700  1
  O  O171  1  0.62226746  0.49287340  0.90890664  1
  O  O172  1  0.62288957  0.75243807  0.16482608  1
  O  O173  1  0.62448121  0.75705467  0.41334207  1
  O  O174  1  0.62526489  0.75006335  0.66690188  1
  O  O175  1  0.62005702  0.75684453  0.91002920  1
  O  O176  1  0.87264498  0.00614398  0.16246924  1
  O  O177  1  0.87526824  0.00049263  0.42036837  1
  O  O178  1  0.88045927  -0.00988389  0.66442078  1
  O  O179  1  0.87001198  -0.00008858  0.91011781  1
  O  O180  1  0.87013154  0.24171793  0.16009968  1
  O  O181  1  0.87451894  0.24556434  0.41641738  1
  O  O182  1  0.87869101  0.25989377  0.66371131  1
  O  O183  1  0.86773667  0.25364005  0.91121614  1
  O  O184  1  0.87085207  0.49673130  0.15555742  1
  O  O185  1  0.87397119  0.49340266  0.40828890  1
  O  O186  1  0.87986905  0.49792295  0.66906812  1
  O  O187  1  0.87043715  0.49155261  0.91391079  1
  O  O188  1  0.87407778  0.75878982  0.15042352  1
  O  O189  1  0.87581524  0.75850107  0.41555379  1
  O  O190  1  0.88068458  0.74998065  0.66911742  1
  O  O191  1  0.87198974  0.75280661  0.91604064  1
  O  O192  1  -0.00691566  0.12460495  0.15606878  1
  O  O193  1  -0.00525362  0.12195885  0.41838040  1
  O  O194  1  0.00273180  0.12395909  0.66966159  1
  O  O195  1  -0.00251395  0.12690092  0.90507596  1
  O  O196  1  -0.00278448  0.37091612  0.15431791  1
  O  O197  1  -0.01023741  0.37011427  0.41383420  1
  O  O198  1  -0.00122812  0.37886599  0.67009031  1
  O  O199  1  -0.00535629  0.37388013  0.90865694  1
  O  O200  1  -0.00257547  0.62612605  0.15636254  1
  O  O201  1  -0.00106960  0.62738947  0.41372839  1
  O  O202  1  0.00285331  0.62496644  0.67253051  1
  O  O203  1  0.00625438  0.62374337  0.91168488  1
  O  O204  1  -0.00900471  0.88177938  0.15736667  1
  O  O205  1  0.00399719  0.87771578  0.41377386  1
  O  O206  1  0.00470921  0.87007337  0.66865054  1
  O  O207  1  0.00121705  0.87355617  0.90948730  1
  O  O208  1  0.25383065  0.12489867  0.16110270  1
  O  O209  1  0.25495801  0.12629273  0.41762345  1
  O  O210  1  0.25190894  0.12453111  0.66966096  1
  O  O211  1  0.26212503  0.12142782  0.90645781  1
  O  O212  1  0.26118299  0.37757446  0.15788501  1
  O  O213  1  0.25552952  0.37179928  0.41221452  1
  O  O214  1  0.25118228  0.38015545  0.66542470  1
  O  O215  1  0.25741788  0.37769534  0.91551084  1
  O  O216  1  0.25685003  0.62365790  0.16210574  1
  O  O217  1  0.24972912  0.62463877  0.41285766  1
  O  O218  1  0.24848628  0.62506715  0.66863288  1
  O  O219  1  0.25488352  0.62584487  0.91654152  1
  O  O220  1  0.25899187  0.87178358  0.16228716  1
  O  O221  1  0.24740264  0.87765440  0.41379931  1
  O  O222  1  0.24886618  0.86995046  0.66714220  1
  O  O223  1  0.26246901  0.87154977  0.91491363  1
  O  O224  1  0.49778846  0.12571282  0.16959125  1
  O  O225  1  0.49426616  0.12666575  0.41829094  1
  O  O226  1  0.49657020  0.12462463  0.66093571  1
  O  O227  1  0.49954366  0.12161129  0.91453991  1
  O  O228  1  0.50086109  0.37769927  0.16934469  1
  O  O229  1  0.50224630  0.37270566  0.41518906  1
  O  O230  1  0.49305210  0.37955923  0.65874448  1
  O  O231  1  0.50601867  0.37419040  0.91388490  1
  O  O232  1  0.49578428  0.62332750  0.16748100  1
  O  O233  1  0.50098919  0.62293655  0.41500457  1
  O  O234  1  0.49074051  0.62622436  0.66204273  1
  O  O235  1  0.49526935  0.62763388  0.91572566  1
  O  O236  1  0.49132615  0.87234715  0.16598032  1
  O  O237  1  0.50073378  0.87756781  0.41455949  1
  O  O238  1  0.49071846  0.87064517  0.65933951  1
  O  O239  1  0.49767073  0.87332862  0.91623684  1
  O  O240  1  0.75188064  0.12475718  0.16289970  1
  O  O241  1  0.75682467  0.12265466  0.41968077  1
  O  O242  1  0.75005319  0.12399141  0.66164287  1
  O  O243  1  0.74213008  0.12400941  0.90834655  1
  O  O244  1  0.74056391  0.37128527  0.16237338  1
  O  O245  1  0.75510604  0.37011884  0.41673018  1
  O  O246  1  0.75924603  0.37883689  0.66287835  1
  O  O247  1  0.74040943  0.37239044  0.91216684  1
  O  O248  1  0.74978573  0.62693904  0.15861312  1
  O  O249  1  0.75098475  0.62727317  0.41593675  1
  O  O250  1  0.75881190  0.62491593  0.66566174  1
  O  O251  1  0.74484178  0.62404360  0.91439819  1
  O  O252  1  0.75739072  0.88064276  0.16295850  1
  O  O253  1  0.74790942  0.87753417  0.41424820  1
  O  O254  1  0.75748503  0.87125537  0.66008377  1
  O  O255  1  0.73938021  0.87695529  0.90770986  1
  O  O256  1  0.13024036  0.12554155  0.02898153  1
  O  O257  1  0.12906367  0.12465261  0.28791363  1
  O  O258  1  0.12838201  0.12040441  0.54221393  1
  O  O259  1  0.13031549  0.12649757  0.78152242  1
  O  O260  1  0.13159263  0.37086485  0.02715708  1
  O  O261  1  0.12562463  0.36643238  0.28360293  1
  O  O262  1  0.12186671  0.38063466  0.55222067  1
  O  O263  1  0.12965404  0.38312415  0.78996250  1
  O  O264  1  0.12710997  0.62599222  0.03162645  1
  O  O265  1  0.12427397  0.62869637  0.28076627  1
  O  O266  1  0.12379806  0.62460865  0.55136480  1
  O  O267  1  0.12960948  0.62489712  0.80382087  1
  O  O268  1  0.13188288  0.87461885  0.02916225  1
  O  O269  1  0.12374952  0.88083142  0.29745802  1
  O  O270  1  0.12417036  0.87108813  0.55583751  1
  O  O271  1  0.13531789  0.87011081  0.78919277  1
  O  O272  1  0.38485360  0.12643421  0.03111067  1
  O  O273  1  0.37408554  0.12615751  0.30570782  1
  O  O274  1  0.36696013  0.12711063  0.53449221  1
  O  O275  1  0.38190551  0.12264259  0.79652476  1
  O  O276  1  0.38392281  0.37894261  0.04777709  1
  O  O277  1  0.37359978  0.37094097  0.29981115  1
  O  O278  1  0.37037009  0.37897797  0.54925954  1
  O  O279  1  0.37694940  0.38213409  0.78472584  1
  O  O280  1  0.37954273  0.62201564  0.05215717  1
  O  O281  1  0.37928889  0.62473354  0.28460148  1
  O  O282  1  0.36823853  0.62620040  0.54712784  1
  O  O283  1  0.37505228  0.62810657  0.80068397  1
  O  O284  1  0.37666110  0.87576649  0.04650392  1
  O  O285  1  0.37338949  0.87792801  0.29710011  1
  O  O286  1  0.36958970  0.86980697  0.54785323  1
  O  O287  1  0.37855410  0.87344425  0.79967374  1
  O  O288  1  0.61540013  0.12371956  0.03617838  1
  O  O289  1  0.62721322  0.12876908  0.29589723  1
  O  O290  1  0.62504201  0.12382142  0.52916690  1
  O  O291  1  0.61916515  0.12414557  0.79447369  1
  O  O292  1  0.62086897  0.37484571  0.04893243  1
  O  O293  1  0.62522797  0.37063643  0.30575429  1
  O  O294  1  0.63123352  0.38180128  0.53327700  1
  O  O295  1  0.62149770  0.37453192  0.79450693  1
  O  O296  1  0.61471275  0.62583366  0.03571442  1
  O  O297  1  0.62569383  0.62790335  0.28485390  1
  O  O298  1  0.62766913  0.62270271  0.53820818  1
  O  O299  1  0.62288466  0.62488802  0.78483394  1
  O  O300  1  0.62175284  0.87840741  0.03449739  1
  O  O301  1  0.62680752  0.87874220  0.30237031  1
  O  O302  1  0.62160970  0.86938347  0.53313704  1
  O  O303  1  0.61852328  0.87626220  0.79746441  1
  O  O304  1  0.87024275  0.12438530  0.04350702  1
  O  O305  1  0.87495665  0.12446396  0.30436278  1
  O  O306  1  0.88226392  0.11989485  0.54268876  1
  O  O307  1  0.87092749  0.12336526  0.77719095  1
  O  O308  1  0.86336291  0.36971264  0.02795814  1
  O  O309  1  0.87116711  0.37110082  0.29782491  1
  O  O310  1  0.87873845  0.37994625  0.55039574  1
  O  O311  1  0.87187595  0.37452038  0.80128520  1
  O  O312  1  0.87551607  0.61891986  0.02465545  1
  O  O313  1  0.87088790  0.62896968  0.28278186  1
  O  O314  1  0.88214251  0.62532508  0.55320459  1
  O  O315  1  0.87051189  0.62900935  0.79152907  1
  O  O316  1  0.86920561  0.88274587  0.04237398  1
  O  O317  1  0.87626446  0.87950708  0.29744054  1
  O  O318  1  0.88158140  0.86880221  0.55462006  1
  O  O319  1  0.87579531  0.86906483  0.78148135  1
