# generated using pymatgen
data_VFe(PbO3)2
_symmetry_space_group_name_H-M   'P 1'
_cell_length_a   15.37922702
_cell_length_b   15.39030116
_cell_length_c   18.53255050
_cell_angle_alpha   90.01442388
_cell_angle_beta   89.99734954
_cell_angle_gamma   89.98969089
_symmetry_Int_Tables_number   1
_chemical_formula_structural   VFe(PbO3)2
_chemical_formula_sum   'V32 Fe32 Pb64 O192'
_cell_volume   4386.48649707
_cell_formula_units_Z   32
loop_
 _symmetry_equiv_pos_site_id
 _symmetry_equiv_pos_as_xyz
  1  'x, y, z'
loop_
 _atom_site_type_symbol
 _atom_site_label
 _atom_site_symmetry_multiplicity
 _atom_site_fract_x
 _atom_site_fract_y
 _atom_site_fract_z
 _atom_site_occupancy
  V  V0  1  0.37479101  0.87727300  0.64064050  1
  V  V1  1  0.37413303  0.37655657  0.13573833  1
  V  V2  1  0.12732188  0.37434172  0.64340621  1
  V  V3  1  0.62260755  0.37449571  0.64207317  1
  V  V4  1  0.12437119  0.62466312  0.13471514  1
  V  V5  1  0.63044968  0.62778507  0.89165813  1
  V  V6  1  0.37686706  0.12778622  0.64319284  1
  V  V7  1  0.87701105  0.12411579  0.38960349  1
  V  V8  1  0.37811217  0.62311449  0.64164448  1
  V  V9  1  0.87379311  0.12079141  0.88981422  1
  V  V10  1  0.37919260  0.62608258  0.89632778  1
  V  V11  1  0.87213108  0.62475623  0.39230487  1
  V  V12  1  0.12628889  0.12354647  0.64406330  1
  V  V13  1  0.62442435  0.87603437  0.89523317  1
  V  V14  1  0.37482016  0.62480258  0.38731451  1
  V  V15  1  0.87538174  0.37533200  0.38950524  1
  V  V16  1  0.87762480  0.62515738  0.89131472  1
  V  V17  1  0.13001128  0.37683693  0.89768408  1
  V  V18  1  0.12252973  0.62290030  0.39386276  1
  V  V19  1  0.37417795  0.37309318  0.64598040  1
  V  V20  1  0.12399699  0.87534064  0.13431667  1
  V  V21  1  0.12276958  0.37341210  0.38816100  1
  V  V22  1  0.87468732  0.37274374  0.89256021  1
  V  V23  1  0.62632978  0.37729951  0.38546466  1
  V  V24  1  0.62566719  0.62441297  0.13642623  1
  V  V25  1  0.62683276  0.12525081  0.89663513  1
  V  V26  1  0.37198965  0.88060204  0.38208856  1
  V  V27  1  0.12562719  0.87595066  0.88786451  1
  V  V28  1  0.62145401  0.62765643  0.64103730  1
  V  V29  1  0.37597164  0.12546806  0.89531568  1
  V  V30  1  0.12571896  0.62700473  0.88776459  1
  V  V31  1  0.87742834  0.12209318  0.13266943  1
  Fe  Fe32  1  0.62048645  0.87666692  0.63313179  1
  Fe  Fe33  1  0.12350648  0.12498425  0.89711694  1
  Fe  Fe34  1  0.37379438  0.37913564  0.37988144  1
  Fe  Fe35  1  0.87761282  0.87392230  0.38992206  1
  Fe  Fe36  1  0.62661770  0.87354697  0.13818619  1
  Fe  Fe37  1  0.87199594  0.12865934  0.63500745  1
  Fe  Fe38  1  0.87403689  0.87393590  0.89055370  1
  Fe  Fe39  1  0.13006740  0.62400520  0.63696064  1
  Fe  Fe40  1  0.37569832  0.87655709  0.89871621  1
  Fe  Fe41  1  0.62616468  0.12708782  0.37812616  1
  Fe  Fe42  1  0.37259176  0.12258007  0.14097216  1
  Fe  Fe43  1  0.62554087  0.62240115  0.38134543  1
  Fe  Fe44  1  0.37433912  0.87221582  0.12964002  1
  Fe  Fe45  1  0.87729782  0.87364375  0.13171993  1
  Fe  Fe46  1  0.12547969  0.87427922  0.38954359  1
  Fe  Fe47  1  0.12907636  0.87457386  0.63369320  1
  Fe  Fe48  1  0.87478361  0.61998604  0.63475323  1
  Fe  Fe49  1  0.87641393  0.37277650  0.63771809  1
  Fe  Fe50  1  0.87565862  0.37584306  0.13264047  1
  Fe  Fe51  1  0.62010218  0.12503899  0.63403009  1
  Fe  Fe52  1  0.37332284  0.12973450  0.37348586  1
  Fe  Fe53  1  0.62527363  0.87201477  0.37926292  1
  Fe  Fe54  1  0.12377118  0.12668465  0.38251055  1
  Fe  Fe55  1  0.12463469  0.37664122  0.12726434  1
  Fe  Fe56  1  0.87685307  0.62641498  0.13092058  1
  Fe  Fe57  1  0.37291382  0.62669927  0.13234386  1
  Fe  Fe58  1  0.12154196  0.12449353  0.12630109  1
  Fe  Fe59  1  0.62408003  0.37787341  0.89923340  1
  Fe  Fe60  1  0.37599505  0.37401581  0.88909330  1
  Fe  Fe61  1  0.87341850  0.87472132  0.63000535  1
  Fe  Fe62  1  0.62742832  0.12610321  0.13490226  1
  Fe  Fe63  1  0.62644374  0.37669646  0.12703830  1
  Pb  Pb64  1  -0.00150828  -0.00237099  -0.00162975  1
  Pb  Pb65  1  0.00110204  -0.01125499  0.25278830  1
  Pb  Pb66  1  0.00018139  -0.00616699  0.49944359  1
  Pb  Pb67  1  -0.01155597  -0.01191716  0.74704919  1
  Pb  Pb68  1  0.00303736  0.25791228  0.00360752  1
  Pb  Pb69  1  0.00604813  0.24615419  0.23966750  1
  Pb  Pb70  1  -0.00930375  0.24922612  0.50444502  1
  Pb  Pb71  1  0.00515227  0.24293795  0.75542366  1
  Pb  Pb72  1  -0.00266765  0.49718381  0.00282316  1
  Pb  Pb73  1  -0.00198141  0.49798863  0.24250348  1
  Pb  Pb74  1  -0.00434690  0.50323223  0.50615502  1
  Pb  Pb75  1  -0.00201942  0.50308723  0.74848112  1
  Pb  Pb76  1  -0.00672103  0.75020280  -0.00033777  1
  Pb  Pb77  1  -0.00200178  0.75814555  0.25194794  1
  Pb  Pb78  1  -0.00062361  0.75585504  0.50559159  1
  Pb  Pb79  1  -0.00063376  0.75075685  0.74057940  1
  Pb  Pb80  1  0.25733155  0.00583169  0.00760318  1
  Pb  Pb81  1  0.24563436  0.00789544  0.24438581  1
  Pb  Pb82  1  0.24506959  0.00123139  0.49360706  1
  Pb  Pb83  1  0.24759028  0.00330147  0.75734786  1
  Pb  Pb84  1  0.25118719  0.23973077  0.00803346  1
  Pb  Pb85  1  0.24578856  0.24306355  0.24371000  1
  Pb  Pb86  1  0.25569605  0.24814699  0.49165185  1
  Pb  Pb87  1  0.24597939  0.24339055  0.76168169  1
  Pb  Pb88  1  0.25114803  0.50387511  0.00277926  1
  Pb  Pb89  1  0.25416370  0.49396884  0.24701145  1
  Pb  Pb90  1  0.24566167  0.50311860  0.50154152  1
  Pb  Pb91  1  0.25823171  0.49661519  0.75455809  1
  Pb  Pb92  1  0.25523944  0.74993068  0.00220102  1
  Pb  Pb93  1  0.24617433  0.75423423  0.24586031  1
  Pb  Pb94  1  0.24398602  0.74781619  0.50342130  1
  Pb  Pb95  1  0.25245991  0.75468912  0.75047774  1
  Pb  Pb96  1  0.49862337  0.01135741  0.01292430  1
  Pb  Pb97  1  0.50404189  -0.00000096  0.23896545  1
  Pb  Pb98  1  0.51250632  0.00715513  0.49215605  1
  Pb  Pb99  1  0.49626226  -0.00297385  0.75293243  1
  Pb  Pb100  1  0.50510141  0.25116999  0.00527399  1
  Pb  Pb101  1  0.50065016  0.24431993  0.24221051  1
  Pb  Pb102  1  0.50220450  0.24470571  0.49026400  1
  Pb  Pb103  1  0.50305521  0.26198397  0.76176798  1
  Pb  Pb104  1  0.49967192  0.50072234  0.00263080  1
  Pb  Pb105  1  0.49949012  0.50042698  0.24511790  1
  Pb  Pb106  1  0.50106847  0.49858075  0.49597596  1
  Pb  Pb107  1  0.50302731  0.49153289  0.76111764  1
  Pb  Pb108  1  0.50091940  0.75862519  0.00837098  1
  Pb  Pb109  1  0.50590815  0.75093223  0.24459585  1
  Pb  Pb110  1  0.50482694  0.75463763  0.49465536  1
  Pb  Pb111  1  0.49130107  0.75698891  0.75655956  1
  Pb  Pb112  1  0.73709196  -0.00466749  0.00993221  1
  Pb  Pb113  1  0.74635524  -0.00468476  0.24589924  1
  Pb  Pb114  1  0.74521730  -0.00241920  0.49377358  1
  Pb  Pb115  1  0.74827910  -0.00162213  0.74063578  1
  Pb  Pb116  1  0.74763754  0.25414770  0.00378647  1
  Pb  Pb117  1  0.74656971  0.24845934  0.24130939  1
  Pb  Pb118  1  0.75466591  0.24422989  0.50132399  1
  Pb  Pb119  1  0.74862671  0.24714885  0.74849470  1
  Pb  Pb120  1  0.76157021  0.49983443  0.00577012  1
  Pb  Pb121  1  0.74840624  0.50232782  0.24265104  1
  Pb  Pb122  1  0.75874025  0.49918609  0.50360304  1
  Pb  Pb123  1  0.74537915  0.49586535  0.75119741  1
  Pb  Pb124  1  0.75235764  0.75783130  0.00677518  1
  Pb  Pb125  1  0.75314217  0.75691730  0.24719414  1
  Pb  Pb126  1  0.74674217  0.76136721  0.49830848  1
  Pb  Pb127  1  0.76040708  0.75998487  0.74724755  1
  O  O128  1  0.12250659  -0.00726771  0.15368579  1
  O  O129  1  0.12589188  0.00159955  0.41510034  1
  O  O130  1  0.13078903  0.00728339  0.66477101  1
  O  O131  1  0.12212758  -0.00722229  0.91092870  1
  O  O132  1  0.12251627  0.25074912  0.15233664  1
  O  O133  1  0.12315654  0.25831445  0.41157202  1
  O  O134  1  0.13137502  0.24961651  0.67197508  1
  O  O135  1  0.12256955  0.25873456  0.91577185  1
  O  O136  1  0.12494425  0.50663607  0.15714081  1
  O  O137  1  0.12433093  0.49937896  0.41779971  1
  O  O138  1  0.13133789  0.49081761  0.66640208  1
  O  O139  1  0.12461260  0.50024723  0.91524664  1
  O  O140  1  0.12301978  0.74947917  0.16017009  1
  O  O141  1  0.12764569  0.74026982  0.41557354  1
  O  O142  1  0.13121466  0.74953487  0.66498618  1
  O  O143  1  0.12458313  0.74975940  0.91247840  1
  O  O144  1  0.37078924  -0.00537157  0.16024204  1
  O  O145  1  0.37102899  -0.00462085  0.39731659  1
  O  O146  1  0.37360233  0.00545688  0.66870259  1
  O  O147  1  0.37646799  0.00607160  0.91859687  1
  O  O148  1  0.37263761  0.26022057  0.15510924  1
  O  O149  1  0.37373676  0.25552124  0.40961383  1
  O  O150  1  0.37292816  0.24618630  0.66929691  1
  O  O151  1  0.37642268  0.24417688  0.91725191  1
  O  O152  1  0.37245288  0.49967771  0.16241856  1
  O  O153  1  0.37223209  0.50455415  0.41594037  1
  O  O154  1  0.37611168  0.49737998  0.67069851  1
  O  O155  1  0.37438143  0.50638057  0.91557007  1
  O  O156  1  0.37034823  0.74896017  0.16302162  1
  O  O157  1  0.37100960  0.74008545  0.41152149  1
  O  O158  1  0.37699213  0.74945802  0.66735343  1
  O  O159  1  0.37397436  0.74427988  0.91761110  1
  O  O160  1  0.62836861  0.00078965  0.16021407  1
  O  O161  1  0.62369223  -0.00044159  0.40604241  1
  O  O162  1  0.61919559  0.00088898  0.66556182  1
  O  O163  1  0.62732800  -0.00379429  0.91654707  1
  O  O164  1  0.62692668  0.25278805  0.15636303  1
  O  O165  1  0.62693956  0.26014507  0.40970919  1
  O  O166  1  0.61876007  0.25702264  0.66452385  1
  O  O167  1  0.62653754  0.24592069  0.91866531  1
  O  O168  1  0.62394655  0.50377577  0.15861686  1
  O  O169  1  0.62711469  0.49504929  0.41556528  1
  O  O170  1  0.61913525  0.49559903  0.66977971  1
  O  O171  1  0.62248660  0.51221072  0.91470109  1
  O  O172  1  0.62607244  0.74212526  0.16055737  1
  O  O173  1  0.62202673  0.74633671  0.41260276  1
  O  O174  1  0.61876616  0.74196830  0.65979612  1
  O  O175  1  0.62368202  0.74742041  0.91843390  1
  O  O176  1  0.87788829  0.00437000  0.15891943  1
  O  O177  1  0.87639532  0.00754880  0.41040806  1
  O  O178  1  0.87497928  0.00229132  0.66108960  1
  O  O179  1  0.87593017  0.00488139  0.90919920  1
  O  O180  1  0.87744220  0.24308849  0.15728216  1
  O  O181  1  0.87641440  0.25200555  0.41583206  1
  O  O182  1  0.87628395  0.25146197  0.67225187  1
  O  O183  1  0.87459792  0.25427167  0.91321510  1
  O  O184  1  0.87706478  0.50360870  0.16437354  1
  O  O185  1  0.87808523  0.50013309  0.41763166  1
  O  O186  1  0.87338090  0.49560296  0.67101022  1
  O  O187  1  0.87437202  0.49935126  0.91456138  1
  O  O188  1  0.87816702  0.74844997  0.16183491  1
  O  O189  1  0.87915800  0.73945978  0.41338426  1
  O  O190  1  0.87284241  0.74623166  0.66123385  1
  O  O191  1  0.87507099  0.74568172  0.91361189  1
  O  O192  1  -0.00441810  0.12313092  0.15745718  1
  O  O193  1  -0.00460866  0.12953538  0.41422796  1
  O  O194  1  0.01024216  0.12888264  0.66398537  1
  O  O195  1  -0.00943277  0.12907804  0.91405190  1
  O  O196  1  0.00085547  0.37721354  0.16249898  1
  O  O197  1  0.00327377  0.37837789  0.41556001  1
  O  O198  1  0.01092350  0.37138337  0.66638500  1
  O  O199  1  -0.00348387  0.37847002  0.91479494  1
  O  O200  1  0.00859997  0.62595932  0.16097063  1
  O  O201  1  0.00313122  0.62012602  0.41510031  1
  O  O202  1  0.00290953  0.61955316  0.66405145  1
  O  O203  1  0.00184452  0.62335616  0.91255675  1
  O  O204  1  0.00574297  0.87301121  0.16332565  1
  O  O205  1  0.00171681  0.87184102  0.42024451  1
  O  O206  1  0.00199336  0.87568020  0.65989963  1
  O  O207  1  0.00617790  0.87199287  0.91334218  1
  O  O208  1  0.24436814  0.12475790  0.15897136  1
  O  O209  1  0.25059118  0.12809524  0.41292602  1
  O  O210  1  0.25242916  0.12661798  0.67347078  1
  O  O211  1  0.25592331  0.12542398  0.91629901  1
  O  O212  1  0.25243270  0.38036551  0.15754960  1
  O  O213  1  0.24091582  0.37947500  0.41163034  1
  O  O214  1  0.24905002  0.37189067  0.67222665  1
  O  O215  1  0.24759756  0.37764922  0.91383863  1
  O  O216  1  0.24070834  0.62692748  0.16268370  1
  O  O217  1  0.24913336  0.61984430  0.41528885  1
  O  O218  1  0.25877176  0.62173327  0.67014762  1
  O  O219  1  0.24965718  0.62460818  0.91461160  1
  O  O220  1  0.24015619  0.87084804  0.15773709  1
  O  O221  1  0.25827384  0.86910438  0.41464786  1
  O  O222  1  0.25548513  0.87773084  0.66967559  1
  O  O223  1  0.24170268  0.87313805  0.91276470  1
  O  O224  1  0.49965159  0.12693610  0.15771537  1
  O  O225  1  0.49822744  0.12868941  0.40603990  1
  O  O226  1  0.49118679  0.12689417  0.66643252  1
  O  O227  1  0.49894167  0.12343060  0.91927103  1
  O  O228  1  0.49444697  0.37987351  0.15524126  1
  O  O229  1  0.50682874  0.37914203  0.40845317  1
  O  O230  1  0.50002158  0.37451906  0.67189851  1
  O  O231  1  0.49694511  0.37625866  0.92183862  1
  O  O232  1  0.50390229  0.62412402  0.15834507  1
  O  O233  1  0.49283712  0.62046651  0.41007100  1
  O  O234  1  0.50142726  0.62025736  0.67203882  1
  O  O235  1  0.49877096  0.62814583  0.91564954  1
  O  O236  1  0.49973395  0.87145693  0.15667990  1
  O  O237  1  0.48694820  0.86848109  0.40707181  1
  O  O238  1  0.49508708  0.87520784  0.67049708  1
  O  O239  1  0.50824610  0.87334226  0.91999339  1
  O  O240  1  0.75959124  0.12435351  0.15954152  1
  O  O241  1  0.75589822  0.12991355  0.41094932  1
  O  O242  1  0.74528535  0.13006963  0.66430080  1
  O  O243  1  0.75643085  0.12746658  0.91659716  1
  O  O244  1  0.75067087  0.37784688  0.16025452  1
  O  O245  1  0.74998670  0.37732935  0.41246674  1
  O  O246  1  0.74060722  0.37538325  0.66343326  1
  O  O247  1  0.75639801  0.37770487  0.91397232  1
  O  O248  1  0.74497197  0.62315700  0.15800376  1
  O  O249  1  0.75602536  0.62016543  0.41094128  1
  O  O250  1  0.73738811  0.61763250  0.66346809  1
  O  O251  1  0.74673368  0.62688914  0.91309970  1
  O  O252  1  0.75370183  0.87315563  0.16237159  1
  O  O253  1  0.75076631  0.87246536  0.41060631  1
  O  O254  1  0.74598122  0.87282922  0.66102018  1
  O  O255  1  0.74368649  0.87145992  0.91606424  1
  O  O256  1  0.12566059  0.12448104  0.02367154  1
  O  O257  1  0.12694267  0.12879157  0.28305135  1
  O  O258  1  0.13197117  0.12799049  0.55356173  1
  O  O259  1  0.13117521  0.13108268  0.79638347  1
  O  O260  1  0.11860265  0.37929738  0.02690133  1
  O  O261  1  0.12133741  0.37665478  0.29728026  1
  O  O262  1  0.12927244  0.37093164  0.55297389  1
  O  O263  1  0.12490308  0.37678085  0.80626794  1
  O  O264  1  0.12620996  0.62665654  0.04338875  1
  O  O265  1  0.12459047  0.62135178  0.30347340  1
  O  O266  1  0.13455372  0.62121464  0.53728475  1
  O  O267  1  0.12746251  0.62417117  0.79700212  1
  O  O268  1  0.12016048  0.87178114  0.04333172  1
  O  O269  1  0.11905590  0.87223831  0.28948760  1
  O  O270  1  0.13300092  0.87315282  0.53359277  1
  O  O271  1  0.12563943  0.87493797  0.79633317  1
  O  O272  1  0.36903878  0.12135518  0.03803232  1
  O  O273  1  0.36755876  0.13227532  0.27267168  1
  O  O274  1  0.37241349  0.12728650  0.55251545  1
  O  O275  1  0.37694287  0.12439205  0.80388556  1
  O  O276  1  0.37213635  0.38195408  0.04424645  1
  O  O277  1  0.37214216  0.38351875  0.28126781  1
  O  O278  1  0.37563518  0.37444501  0.55528848  1
  O  O279  1  0.38213562  0.37558969  0.78870138  1
  O  O280  1  0.36812757  0.62348982  0.03262229  1
  O  O281  1  0.37161461  0.62241578  0.29643670  1
  O  O282  1  0.37948374  0.62288820  0.55091563  1
  O  O283  1  0.37742290  0.62690617  0.80493894  1
  O  O284  1  0.37043478  0.86976162  0.02660230  1
  O  O285  1  0.36717388  0.86917501  0.29169815  1
  O  O286  1  0.37572340  0.87804957  0.55009030  1
  O  O287  1  0.38235621  0.87355184  0.79816785  1
  O  O288  1  0.62803867  0.11792480  0.03203304  1
  O  O289  1  0.62852148  0.13199238  0.27842837  1
  O  O290  1  0.61572659  0.12406689  0.53384657  1
  O  O291  1  0.62498370  0.12324996  0.80560110  1
  O  O292  1  0.62818192  0.37590691  0.02576015  1
  O  O293  1  0.62772827  0.37970120  0.29474228  1
  O  O294  1  0.61845329  0.37872278  0.55164888  1
  O  O295  1  0.61679520  0.37637163  0.79747029  1
  O  O296  1  0.62473131  0.62578644  0.04517642  1
  O  O297  1  0.62311229  0.62044267  0.28282165  1
  O  O298  1  0.61714153  0.61961630  0.55016605  1
  O  O299  1  0.62759732  0.63089391  0.80101858  1
  O  O300  1  0.63335270  0.87123308  0.03614836  1
  O  O301  1  0.62596002  0.86870493  0.27861473  1
  O  O302  1  0.61805031  0.87398084  0.53287922  1
  O  O303  1  0.62268672  0.87373170  0.80417201  1
  O  O304  1  0.87678426  0.12132284  0.04160525  1
  O  O305  1  0.87816055  0.12750135  0.29922574  1
  O  O306  1  0.87479127  0.13747190  0.53528621  1
  O  O307  1  0.87253296  0.12659616  0.79861033  1
  O  O308  1  0.87647161  0.38091009  0.03199844  1
  O  O309  1  0.87736502  0.37478495  0.29894578  1
  O  O310  1  0.87616440  0.37339622  0.53758452  1
  O  O311  1  0.87617602  0.37462046  0.80161336  1
  O  O312  1  0.87659106  0.62067861  0.03048105  1
  O  O313  1  0.87691020  0.62181046  0.30159059  1
  O  O314  1  0.87468077  0.61226080  0.53512283  1
  O  O315  1  0.87465997  0.62158049  0.80009065  1
  O  O316  1  0.87963820  0.87058874  0.02998787  1
  O  O317  1  0.88815156  0.87401675  0.28877785  1
  O  O318  1  0.87424585  0.87186511  0.52920410  1
  O  O319  1  0.87315481  0.87374317  0.79007425  1
