# generated using pymatgen
data_VFe(PbO3)2
_symmetry_space_group_name_H-M   'P 1'
_cell_length_a   15.37603799
_cell_length_b   15.38640732
_cell_length_c   18.53749982
_cell_angle_alpha   90.03618325
_cell_angle_beta   89.94760976
_cell_angle_gamma   90.01124611
_symmetry_Int_Tables_number   1
_chemical_formula_structural   VFe(PbO3)2
_chemical_formula_sum   'V32 Fe32 Pb64 O192'
_cell_volume   4385.63568214
_cell_formula_units_Z   32
loop_
 _symmetry_equiv_pos_site_id
 _symmetry_equiv_pos_as_xyz
  1  'x, y, z'
loop_
 _atom_site_type_symbol
 _atom_site_label
 _atom_site_symmetry_multiplicity
 _atom_site_fract_x
 _atom_site_fract_y
 _atom_site_fract_z
 _atom_site_occupancy
  V  V0  1  0.12427852  0.37457290  0.14740779  1
  V  V1  1  0.37847906  0.87615718  0.38961926  1
  V  V2  1  0.12486774  0.37812532  0.88932164  1
  V  V3  1  0.62275012  0.37527270  0.39021789  1
  V  V4  1  0.12527714  0.12683192  0.14372804  1
  V  V5  1  0.62329678  0.62400330  0.89012234  1
  V  V6  1  0.87488106  0.87521571  0.14203806  1
  V  V7  1  0.37496617  0.12306749  0.64026476  1
  V  V8  1  0.62690699  0.63130443  0.13553165  1
  V  V9  1  0.87603882  0.37797014  0.63821591  1
  V  V10  1  0.87254180  0.62745296  0.63925636  1
  V  V11  1  0.37503205  0.37552675  0.88893741  1
  V  V12  1  0.37466168  0.12448612  0.13694184  1
  V  V13  1  0.12716695  0.12537439  0.88716605  1
  V  V14  1  0.37780948  0.62754550  0.63901868  1
  V  V15  1  0.87684162  0.12433628  0.88720527  1
  V  V16  1  0.62087719  0.12412433  0.39199329  1
  V  V17  1  0.87674896  0.12511539  0.14487423  1
  V  V18  1  0.87322324  0.12569203  0.63888146  1
  V  V19  1  0.12376959  0.62519936  0.63561900  1
  V  V20  1  0.87505696  0.37209759  0.14378115  1
  V  V21  1  0.37198711  0.12359774  0.39269983  1
  V  V22  1  0.61992745  0.37790576  0.64412001  1
  V  V23  1  0.62602874  0.12940429  0.13631569  1
  V  V24  1  0.12186226  0.12328962  0.39113056  1
  V  V25  1  0.37341463  0.87370439  0.88853369  1
  V  V26  1  0.87585018  0.87474443  0.63844462  1
  V  V27  1  0.87836251  0.87099643  0.88977451  1
  V  V28  1  0.62646621  0.37677194  0.13741235  1
  V  V29  1  0.62349200  0.87269189  0.64357103  1
  V  V30  1  0.62049337  0.62924374  0.38754768  1
  V  V31  1  0.12606916  0.87738250  0.14560495  1
  Fe  Fe32  1  0.87094742  0.12491595  0.38397986  1
  Fe  Fe33  1  0.87170516  0.62349792  0.37637683  1
  Fe  Fe34  1  0.87037723  0.37193458  0.38448617  1
  Fe  Fe35  1  0.37656300  0.62454280  0.37934948  1
  Fe  Fe36  1  0.62807225  0.12643649  0.64852227  1
  Fe  Fe37  1  0.37274876  0.37693131  0.63113848  1
  Fe  Fe38  1  0.37843750  0.37093507  0.39144473  1
  Fe  Fe39  1  0.62737739  0.37824041  0.88298808  1
  Fe  Fe40  1  0.37661664  0.87336265  0.63620633  1
  Fe  Fe41  1  0.37518075  0.37034591  0.13715949  1
  Fe  Fe42  1  0.87941200  0.37502194  0.88351487  1
  Fe  Fe43  1  0.37696898  0.62348491  0.13767526  1
  Fe  Fe44  1  0.12548616  0.62698569  0.88820516  1
  Fe  Fe45  1  0.87828417  0.62366800  0.88501095  1
  Fe  Fe46  1  0.12278041  0.12373016  0.63079028  1
  Fe  Fe47  1  0.12524315  0.87760996  0.38096447  1
  Fe  Fe48  1  0.62286616  0.87793004  0.38285570  1
  Fe  Fe49  1  0.62374581  0.12614153  0.87827887  1
  Fe  Fe50  1  0.87174548  0.62449121  0.14786022  1
  Fe  Fe51  1  0.62817056  0.87315824  0.89602968  1
  Fe  Fe52  1  0.12465596  0.87605741  0.88547452  1
  Fe  Fe53  1  0.37511102  0.87856933  0.13151628  1
  Fe  Fe54  1  0.12315465  0.62466188  0.14814842  1
  Fe  Fe55  1  0.62657916  0.88081127  0.12728227  1
  Fe  Fe56  1  0.12492591  0.37602927  0.63027270  1
  Fe  Fe57  1  0.37476865  0.62398831  0.88988016  1
  Fe  Fe58  1  0.12609729  0.87280354  0.63430721  1
  Fe  Fe59  1  0.37283729  0.12509014  0.88097366  1
  Fe  Fe60  1  0.86958168  0.87780391  0.38370224  1
  Fe  Fe61  1  0.62788457  0.62488914  0.63444505  1
  Fe  Fe62  1  0.12803199  0.62633952  0.37391495  1
  Fe  Fe63  1  0.12577415  0.37372769  0.38318216  1
  Pb  Pb64  1  0.00223936  0.00071780  0.00029708  1
  Pb  Pb65  1  -0.00351323  -0.00484015  0.25690354  1
  Pb  Pb66  1  0.00507429  -0.00365715  0.49775549  1
  Pb  Pb67  1  0.00676742  -0.00743199  0.74689290  1
  Pb  Pb68  1  0.00380982  0.25126365  -0.00048915  1
  Pb  Pb69  1  -0.00058803  0.25618338  0.25911905  1
  Pb  Pb70  1  0.00098673  0.25596630  0.49613737  1
  Pb  Pb71  1  0.00001180  0.25415950  0.74335525  1
  Pb  Pb72  1  -0.00292036  0.51300799  0.00687559  1
  Pb  Pb73  1  -0.00181014  0.50532897  0.25465913  1
  Pb  Pb74  1  0.00150818  0.50020915  0.48387043  1
  Pb  Pb75  1  -0.00458467  0.50549298  0.75009868  1
  Pb  Pb76  1  0.00882830  0.73732375  0.00804128  1
  Pb  Pb77  1  -0.00152528  0.74602190  0.25352780  1
  Pb  Pb78  1  -0.00055382  0.75077691  0.48273304  1
  Pb  Pb79  1  0.00312913  0.73938408  0.75372722  1
  Pb  Pb80  1  0.25655390  -0.00407466  -0.00245552  1
  Pb  Pb81  1  0.24437116  -0.00153206  0.25285697  1
  Pb  Pb82  1  0.24181610  -0.00333576  0.50724098  1
  Pb  Pb83  1  0.24569395  -0.00714644  0.74574441  1
  Pb  Pb84  1  0.25435806  0.25520667  0.00054624  1
  Pb  Pb85  1  0.25174190  0.26057679  0.25896314  1
  Pb  Pb86  1  0.24733312  0.26114213  0.50360676  1
  Pb  Pb87  1  0.25049628  0.25007855  0.74075656  1
  Pb  Pb88  1  0.25368437  0.50730008  0.00726505  1
  Pb  Pb89  1  0.25577407  0.50521138  0.25132935  1
  Pb  Pb90  1  0.24903715  0.49705806  0.48799288  1
  Pb  Pb91  1  0.24968247  0.50862087  0.74731937  1
  Pb  Pb92  1  0.24774600  0.74165688  0.00152524  1
  Pb  Pb93  1  0.25506834  0.74125357  0.24693409  1
  Pb  Pb94  1  0.24464613  0.75241527  0.49134409  1
  Pb  Pb95  1  0.24250214  0.74792266  0.75093499  1
  Pb  Pb96  1  0.50189069  -0.00287483  -0.00551229  1
  Pb  Pb97  1  0.50503138  -0.00449689  0.24402747  1
  Pb  Pb98  1  0.49704350  -0.00258117  0.50703366  1
  Pb  Pb99  1  0.49978871  0.00826913  0.75525425  1
  Pb  Pb100  1  0.50126043  0.24752423  -0.00832221  1
  Pb  Pb101  1  0.49588778  0.25275484  0.25116173  1
  Pb  Pb102  1  0.50554382  0.24142083  0.50969159  1
  Pb  Pb103  1  0.49776593  0.24504501  0.75234452  1
  Pb  Pb104  1  0.48984224  0.49925589  0.00418212  1
  Pb  Pb105  1  0.48834894  0.49665824  0.25092190  1
  Pb  Pb106  1  0.49223785  0.49745962  0.49929064  1
  Pb  Pb107  1  0.49414978  0.50661613  0.75144712  1
  Pb  Pb108  1  0.49380175  0.75515635  0.00165979  1
  Pb  Pb109  1  0.49876517  0.75537141  0.24124092  1
  Pb  Pb110  1  0.49447289  0.75428896  0.50156598  1
  Pb  Pb111  1  0.50049271  0.75078055  0.75496064  1
  Pb  Pb112  1  0.74515965  0.00032322  -0.00223864  1
  Pb  Pb113  1  0.75342149  0.00119391  0.25226989  1
  Pb  Pb114  1  0.74947410  -0.00103038  0.49850938  1
  Pb  Pb115  1  0.74188838  -0.00688462  0.75570629  1
  Pb  Pb116  1  0.74905553  0.25343779  -0.00756771  1
  Pb  Pb117  1  0.75604280  0.24778649  0.25461971  1
  Pb  Pb118  1  0.74484750  0.24381763  0.50362729  1
  Pb  Pb119  1  0.74993482  0.26233216  0.75540643  1
  Pb  Pb120  1  0.75869907  0.50142492  -0.00385239  1
  Pb  Pb121  1  0.75484282  0.49798355  0.25320723  1
  Pb  Pb122  1  0.74519893  0.50543987  0.49762565  1
  Pb  Pb123  1  0.75309873  0.49550088  0.75261266  1
  Pb  Pb124  1  0.75672720  0.74149203  0.00221659  1
  Pb  Pb125  1  0.74771282  0.76686832  0.25414749  1
  Pb  Pb126  1  0.74812251  0.74738282  0.49409680  1
  Pb  Pb127  1  0.74748046  0.75251851  0.75460902  1
  O  O128  1  0.12188612  0.00492649  0.16938200  1
  O  O129  1  0.13021649  0.00436409  0.41490031  1
  O  O130  1  0.12337297  0.00005334  0.66449578  1
  O  O131  1  0.12366752  0.00370413  0.91682867  1
  O  O132  1  0.12288948  0.24309002  0.16992557  1
  O  O133  1  0.12920107  0.23933744  0.41254200  1
  O  O134  1  0.12231697  0.24833742  0.66048364  1
  O  O135  1  0.12576139  0.25017855  0.91750653  1
  O  O136  1  0.12188579  0.48986150  0.16275683  1
  O  O137  1  0.12593736  0.50059753  0.40277140  1
  O  O138  1  0.12292436  0.50871536  0.65895122  1
  O  O139  1  0.12508762  0.49149361  0.91348600  1
  O  O140  1  0.12101634  0.76208707  0.16299015  1
  O  O141  1  0.12893181  0.75271479  0.40574800  1
  O  O142  1  0.12575221  0.74337465  0.66180128  1
  O  O143  1  0.12493136  0.75394374  0.91965235  1
  O  O144  1  0.37457857  0.00670637  0.16520387  1
  O  O145  1  0.38285701  0.00300965  0.41837891  1
  O  O146  1  0.37879098  0.00400358  0.66240485  1
  O  O147  1  0.37443173  -0.00469134  0.90924422  1
  O  O148  1  0.37399974  0.24287006  0.16732349  1
  O  O149  1  0.37949317  0.23844085  0.41698969  1
  O  O150  1  0.37588575  0.24650478  0.66016634  1
  O  O151  1  0.37093225  0.25668253  0.91132878  1
  O  O152  1  0.37771496  0.49506261  0.16463502  1
  O  O153  1  0.37982219  0.49947292  0.41051283  1
  O  O154  1  0.37511014  0.50793318  0.66246139  1
  O  O155  1  0.37132278  0.49223615  0.91651999  1
  O  O156  1  0.37798941  0.75242990  0.15912720  1
  O  O157  1  0.38009991  0.75782927  0.40836690  1
  O  O158  1  0.37637512  0.74295799  0.66646189  1
  O  O159  1  0.37555894  0.75464367  0.91301827  1
  O  O160  1  0.62645531  0.01052500  0.15697808  1
  O  O161  1  0.62075202  0.00703432  0.41333424  1
  O  O162  1  0.62721291  -0.00836533  0.66658177  1
  O  O163  1  0.62947113  0.00330981  0.91201853  1
  O  O164  1  0.62561622  0.24662734  0.16564761  1
  O  O165  1  0.62141029  0.24834078  0.41760131  1
  O  O166  1  0.62859558  0.25979447  0.66736309  1
  O  O167  1  0.62617965  0.25101817  0.91105698  1
  O  O168  1  0.62684621  0.49016541  0.15892341  1
  O  O169  1  0.62206359  0.49517978  0.41062210  1
  O  O170  1  0.62828230  0.49650515  0.66542703  1
  O  O171  1  0.62632976  0.50604185  0.91462139  1
  O  O172  1  0.62578833  0.74790622  0.15110737  1
  O  O173  1  0.62256401  0.74565954  0.40721995  1
  O  O174  1  0.62700508  0.75322568  0.66868151  1
  O  O175  1  0.62716867  0.74143279  0.91816700  1
  O  O176  1  0.87308819  0.00006182  0.16621244  1
  O  O177  1  0.86926808  0.00337112  0.41767095  1
  O  O178  1  0.87184255  -0.00620079  0.66273899  1
  O  O179  1  0.87734228  0.00529835  0.91452895  1
  O  O180  1  0.87410642  0.24835431  0.16988901  1
  O  O181  1  0.87091180  0.24720772  0.41706965  1
  O  O182  1  0.87545465  0.24654017  0.65926822  1
  O  O183  1  0.88013157  0.24316460  0.91283508  1
  O  O184  1  0.87172582  0.49148694  0.16622224  1
  O  O185  1  0.86948547  0.49890214  0.41007402  1
  O  O186  1  0.87773389  0.50259545  0.66282888  1
  O  O187  1  0.87926710  0.49909402  0.91504807  1
  O  O188  1  0.87325032  0.75893989  0.16353260  1
  O  O189  1  0.86798512  0.74861212  0.40791903  1
  O  O190  1  0.87332095  0.75512434  0.66431093  1
  O  O191  1  0.87626905  0.75548888  0.91039409  1
  O  O192  1  0.00217862  0.12414481  0.16860819  1
  O  O193  1  0.00502740  0.12192075  0.40594433  1
  O  O194  1  -0.00982652  0.12068969  0.66326032  1
  O  O195  1  0.00010203  0.12513045  0.91693789  1
  O  O196  1  0.00123691  0.36764309  0.16938377  1
  O  O197  1  -0.00122616  0.36995862  0.40943167  1
  O  O198  1  -0.00285706  0.37577800  0.66200092  1
  O  O199  1  0.00811894  0.36949292  0.91463892  1
  O  O200  1  -0.00296258  0.62507122  0.17011075  1
  O  O201  1  -0.00053818  0.62677207  0.40115861  1
  O  O202  1  0.00198572  0.62835333  0.66107183  1
  O  O203  1  0.00141138  0.62527816  0.92080391  1
  O  O204  1  -0.00347808  0.88163621  0.16806066  1
  O  O205  1  -0.00171901  0.87867959  0.40674391  1
  O  O206  1  -0.00730487  0.87448409  0.65840953  1
  O  O207  1  -0.00701165  0.88110361  0.91546044  1
  O  O208  1  0.24472369  0.12333541  0.16377888  1
  O  O209  1  0.25648449  0.11995787  0.41290802  1
  O  O210  1  0.25544681  0.12383690  0.65891713  1
  O  O211  1  0.24734257  0.12566131  0.91371413  1
  O  O212  1  0.24362503  0.36756599  0.16522935  1
  O  O213  1  0.25160021  0.36845365  0.41081242  1
  O  O214  1  0.24945042  0.37791082  0.66236444  1
  O  O215  1  0.24624892  0.37278160  0.91578620  1
  O  O216  1  0.25068835  0.62412033  0.16224269  1
  O  O217  1  0.25331965  0.62815946  0.40733358  1
  O  O218  1  0.24951100  0.62554529  0.65953704  1
  O  O219  1  0.24969617  0.62329377  0.91913875  1
  O  O220  1  0.24430510  0.88237250  0.16069347  1
  O  O221  1  0.26115921  0.88156189  0.40892784  1
  O  O222  1  0.25204079  0.87344310  0.66409219  1
  O  O223  1  0.25498480  0.87623248  0.91209475  1
  O  O224  1  0.50332040  0.12684741  0.15981524  1
  O  O225  1  0.50185353  0.12558099  0.42128921  1
  O  O226  1  0.49633476  0.12636625  0.66643392  1
  O  O227  1  0.49779884  0.12714351  0.90992350  1
  O  O228  1  0.50842887  0.36753871  0.16260514  1
  O  O229  1  0.50796305  0.37040568  0.41942013  1
  O  O230  1  0.50234682  0.37804474  0.66111200  1
  O  O231  1  0.49334627  0.37596417  0.90781897  1
  O  O232  1  0.51251388  0.61993371  0.16233402  1
  O  O233  1  0.50446813  0.62351080  0.41242303  1
  O  O234  1  0.49745323  0.62525663  0.66313783  1
  O  O235  1  0.50518667  0.62355862  0.91499210  1
  O  O236  1  0.50276057  0.88000876  0.15952710  1
  O  O237  1  0.49819596  0.87807511  0.41740040  1
  O  O238  1  0.50617835  0.87178569  0.66736779  1
  O  O239  1  0.49539600  0.87440567  0.91168130  1
  O  O240  1  0.74580111  0.12789894  0.16200142  1
  O  O241  1  0.73886455  0.12729655  0.41504146  1
  O  O242  1  0.75942375  0.12265726  0.66819505  1
  O  O243  1  0.75875939  0.12679462  0.90731448  1
  O  O244  1  0.74519084  0.36783578  0.16385011  1
  O  O245  1  0.73798203  0.37161816  0.41650785  1
  O  O246  1  0.75344042  0.37726660  0.66619442  1
  O  O247  1  0.75359995  0.37413026  0.91432827  1
  O  O248  1  0.73867104  0.62040607  0.16626838  1
  O  O249  1  0.73973342  0.62108219  0.41022261  1
  O  O250  1  0.75395924  0.62598948  0.66518844  1
  O  O251  1  0.74787780  0.62512076  0.91294512  1
  O  O252  1  0.75319218  0.87891091  0.15926367  1
  O  O253  1  0.74346028  0.87685205  0.41781651  1
  O  O254  1  0.74977715  0.87260100  0.66758192  1
  O  O255  1  0.76266327  0.87785546  0.91909760  1
  O  O256  1  0.12295898  0.12739729  0.05298689  1
  O  O257  1  0.13032339  0.12099856  0.29989966  1
  O  O258  1  0.12403167  0.11555797  0.53149013  1
  O  O259  1  0.12360666  0.12564386  0.79631642  1
  O  O260  1  0.12145544  0.36606909  0.05657772  1
  O  O261  1  0.12508501  0.36251906  0.28223523  1
  O  O262  1  0.12525845  0.37111970  0.53011459  1
  O  O263  1  0.12528986  0.37581806  0.79854052  1
  O  O264  1  0.11697104  0.62758102  0.04534371  1
  O  O265  1  0.12804416  0.62757808  0.27192384  1
  O  O266  1  0.12493015  0.62778185  0.54518052  1
  O  O267  1  0.12247132  0.62959014  0.78758622  1
  O  O268  1  0.11918108  0.88484018  0.05479210  1
  O  O269  1  0.12653174  0.88712437  0.28096524  1
  O  O270  1  0.12914473  0.87947339  0.53401109  1
  O  O271  1  0.12482932  0.87672456  0.78553174  1
  O  O272  1  0.37285480  0.12590005  0.04563453  1
  O  O273  1  0.37729876  0.12214854  0.30189295  1
  O  O274  1  0.37999936  0.12220276  0.54882056  1
  O  O275  1  0.37757757  0.12798043  0.78192356  1
  O  O276  1  0.37279128  0.37294546  0.03768484  1
  O  O277  1  0.38291185  0.36619822  0.28936652  1
  O  O278  1  0.37274114  0.37818532  0.53119954  1
  O  O279  1  0.37041082  0.37831557  0.79807896  1
  O  O280  1  0.37859545  0.61522506  0.03568474  1
  O  O281  1  0.37721530  0.62308264  0.27844727  1
  O  O282  1  0.37811666  0.63019528  0.54809875  1
  O  O283  1  0.37642462  0.61698598  0.79001288  1
  O  O284  1  0.37633061  0.88136845  0.03235937  1
  O  O285  1  0.38368417  0.88132948  0.29855674  1
  O  O286  1  0.38528824  0.87202314  0.53687311  1
  O  O287  1  0.37526797  0.87127379  0.79716158  1
  O  O288  1  0.62618005  0.13364760  0.04535608  1
  O  O289  1  0.61871284  0.12689465  0.30121102  1
  O  O290  1  0.62526950  0.13255731  0.54822893  1
  O  O291  1  0.62037350  0.12267245  0.77643387  1
  O  O292  1  0.62719148  0.37261885  0.04629201  1
  O  O293  1  0.62125770  0.37106160  0.29923913  1
  O  O294  1  0.62602044  0.37651241  0.55297403  1
  O  O295  1  0.63385120  0.37884307  0.78371314  1
  O  O296  1  0.62947996  0.62283767  0.04471253  1
  O  O297  1  0.62101031  0.62476204  0.29689345  1
  O  O298  1  0.63019531  0.62433119  0.53570633  1
  O  O299  1  0.62219077  0.62602154  0.79871510  1
  O  O300  1  0.62617982  0.88163804  0.02646404  1
  O  O301  1  0.62612128  0.87601002  0.28285343  1
  O  O302  1  0.62389347  0.87091715  0.55251041  1
  O  O303  1  0.63688485  0.86877313  0.79535350  1
  O  O304  1  0.87642709  0.12626794  0.05395771  1
  O  O305  1  0.86346902  0.12294199  0.28347769  1
  O  O306  1  0.87182073  0.12315379  0.54796144  1
  O  O307  1  0.88127054  0.12300618  0.79696162  1
  O  O308  1  0.87841456  0.36887768  0.05260812  1
  O  O309  1  0.86604893  0.36858352  0.28399191  1
  O  O310  1  0.87378756  0.37672683  0.54731598  1
  O  O311  1  0.87567752  0.37425515  0.78350737  1
  O  O312  1  0.87355523  0.62451442  0.04587420  1
  O  O313  1  0.86810456  0.61958680  0.27504895  1
  O  O314  1  0.87323741  0.62790409  0.54842991  1
  O  O315  1  0.88828935  0.62543437  0.78488396  1
  O  O316  1  0.88013622  0.87774174  0.05137322  1
  O  O317  1  0.86166226  0.88088804  0.28277981  1
  O  O318  1  0.86967924  0.87399689  0.54781498  1
  O  O319  1  0.87566253  0.87458162  0.79852236  1
