# generated using pymatgen
data_VFe(PbO3)2
_symmetry_space_group_name_H-M   'P 1'
_cell_length_a   15.38808852
_cell_length_b   15.38290054
_cell_length_c   18.56386353
_cell_angle_alpha   89.97714366
_cell_angle_beta   90.05458493
_cell_angle_gamma   89.99928763
_symmetry_Int_Tables_number   1
_chemical_formula_structural   VFe(PbO3)2
_chemical_formula_sum   'V32 Fe32 Pb64 O192'
_cell_volume   4394.31356596
_cell_formula_units_Z   32
loop_
 _symmetry_equiv_pos_site_id
 _symmetry_equiv_pos_as_xyz
  1  'x, y, z'
loop_
 _atom_site_type_symbol
 _atom_site_label
 _atom_site_symmetry_multiplicity
 _atom_site_fract_x
 _atom_site_fract_y
 _atom_site_fract_z
 _atom_site_occupancy
  V  V0  1  0.37164530  0.37261641  0.63971181  1
  V  V1  1  0.87214184  0.12377692  0.38534241  1
  V  V2  1  0.37387350  0.12328878  0.64204288  1
  V  V3  1  0.87890156  0.63369086  0.64760006  1
  V  V4  1  0.12382878  0.37415864  0.63908208  1
  V  V5  1  0.61890929  0.12030674  0.38552313  1
  V  V6  1  0.12645563  0.62370716  0.64057760  1
  V  V7  1  0.62356408  0.12569880  0.63856434  1
  V  V8  1  0.37791256  0.61869447  0.88777029  1
  V  V9  1  0.12496319  0.87527523  0.38393563  1
  V  V10  1  0.37690630  0.87484345  0.38871846  1
  V  V11  1  0.12770263  0.12524779  0.64374115  1
  V  V12  1  0.87288527  0.87221825  0.88987140  1
  V  V13  1  0.62698477  0.12501323  0.89204124  1
  V  V14  1  0.12941484  0.37522488  0.89654565  1
  V  V15  1  0.12771767  0.62503249  0.13660533  1
  V  V16  1  0.12397952  0.12005266  0.38055051  1
  V  V17  1  0.12386590  0.87556508  0.64579599  1
  V  V18  1  0.87974622  0.12682472  0.90356803  1
  V  V19  1  0.37710731  0.37833696  0.13976299  1
  V  V20  1  0.62559321  0.62947288  0.39184592  1
  V  V21  1  0.62603400  0.87731688  0.64337127  1
  V  V22  1  0.62480703  0.13506584  0.13475995  1
  V  V23  1  0.87672606  0.37361965  0.89467825  1
  V  V24  1  0.62695779  0.62684868  0.13701704  1
  V  V25  1  0.87831837  0.37193233  0.63892176  1
  V  V26  1  0.12329745  0.62483904  0.89081569  1
  V  V27  1  0.37684766  0.12963459  0.89366545  1
  V  V28  1  0.87492439  0.62517738  0.13881545  1
  V  V29  1  0.62357620  0.37324723  0.89001635  1
  V  V30  1  0.12551177  0.62807673  0.38683957  1
  V  V31  1  0.62451580  0.87441566  0.13487297  1
  Fe  Fe32  1  0.12609007  0.12738876  0.90146169  1
  Fe  Fe33  1  0.87211235  0.87223626  0.13043431  1
  Fe  Fe34  1  0.62549815  0.87573418  0.38599899  1
  Fe  Fe35  1  0.62538617  0.37488782  0.39207841  1
  Fe  Fe36  1  0.62823452  0.62269475  0.87471576  1
  Fe  Fe37  1  0.12448029  0.12476374  0.12569327  1
  Fe  Fe38  1  0.12510484  0.37932826  0.14428717  1
  Fe  Fe39  1  0.37064772  0.62807572  0.63418129  1
  Fe  Fe40  1  0.37670080  0.87006919  0.12676450  1
  Fe  Fe41  1  0.37433378  0.37461319  0.88618362  1
  Fe  Fe42  1  0.37572799  0.87567650  0.88942371  1
  Fe  Fe43  1  0.62377766  0.62241658  0.64594454  1
  Fe  Fe44  1  0.87722760  0.61959512  0.87996351  1
  Fe  Fe45  1  0.87531786  0.37669369  0.38323657  1
  Fe  Fe46  1  0.12555895  0.87443987  0.89661615  1
  Fe  Fe47  1  0.38005641  0.62498792  0.13258059  1
  Fe  Fe48  1  0.12390980  0.87005079  0.12576776  1
  Fe  Fe49  1  0.37395528  0.37455021  0.38364631  1
  Fe  Fe50  1  0.12331465  0.37370187  0.37461283  1
  Fe  Fe51  1  0.62649118  0.37102996  0.63002624  1
  Fe  Fe52  1  0.38050041  0.12498744  0.14272747  1
  Fe  Fe53  1  0.37485971  0.62699467  0.39120414  1
  Fe  Fe54  1  0.62472510  0.87578114  0.88302832  1
  Fe  Fe55  1  0.62406580  0.38324534  0.13498616  1
  Fe  Fe56  1  0.87007924  0.37631089  0.13493591  1
  Fe  Fe57  1  0.87021550  0.12449476  0.12701482  1
  Fe  Fe58  1  0.37275156  0.87939147  0.64290860  1
  Fe  Fe59  1  0.87840790  0.12454951  0.63808575  1
  Fe  Fe60  1  0.87472995  0.62704135  0.38430858  1
  Fe  Fe61  1  0.37260703  0.12190023  0.37315830  1
  Fe  Fe62  1  0.87482883  0.87469615  0.38517772  1
  Fe  Fe63  1  0.87748124  0.88118727  0.63942887  1
  Pb  Pb64  1  0.00075674  -0.00707241  0.00624781  1
  Pb  Pb65  1  -0.00276612  -0.00284215  0.23086908  1
  Pb  Pb66  1  -0.00718866  0.00146687  0.50112706  1
  Pb  Pb67  1  0.01057364  0.00544094  0.76009820  1
  Pb  Pb68  1  0.01270013  0.25925397  0.01454816  1
  Pb  Pb69  1  -0.00223711  0.25218034  0.23689133  1
  Pb  Pb70  1  -0.00166974  0.24403071  0.49277709  1
  Pb  Pb71  1  0.00869476  0.24270871  0.75726173  1
  Pb  Pb72  1  0.00125433  0.49204468  0.00582254  1
  Pb  Pb73  1  -0.00239256  0.49285572  0.24975372  1
  Pb  Pb74  1  -0.00088143  0.49700373  0.49168769  1
  Pb  Pb75  1  -0.00365634  0.50080546  0.75243140  1
  Pb  Pb76  1  -0.00276314  0.75637165  0.00082287  1
  Pb  Pb77  1  -0.00951254  0.75152804  0.24689138  1
  Pb  Pb78  1  -0.00267646  0.75692101  0.49716475  1
  Pb  Pb79  1  0.00788726  0.75714679  0.75747832  1
  Pb  Pb80  1  0.24465443  -0.00443913  0.00063317  1
  Pb  Pb81  1  0.25141538  -0.00124944  0.23085957  1
  Pb  Pb82  1  0.25236188  -0.00468676  0.49759222  1
  Pb  Pb83  1  0.24759993  -0.00674913  0.76302036  1
  Pb  Pb84  1  0.25598180  0.24085534  0.01219572  1
  Pb  Pb85  1  0.24867097  0.24795676  0.24116993  1
  Pb  Pb86  1  0.25041921  0.24881834  0.48655031  1
  Pb  Pb87  1  0.24822363  0.24687389  0.75643521  1
  Pb  Pb88  1  0.25060102  0.50262252  0.00492725  1
  Pb  Pb89  1  0.26302106  0.50358315  0.25370126  1
  Pb  Pb90  1  0.25261236  0.50062480  0.49332464  1
  Pb  Pb91  1  0.25429165  0.49472773  0.75048500  1
  Pb  Pb92  1  0.25892014  0.75000230  0.00022313  1
  Pb  Pb93  1  0.25829746  0.74860528  0.24316396  1
  Pb  Pb94  1  0.25794897  0.75230138  0.50342883  1
  Pb  Pb95  1  0.25348667  0.75844840  0.75644878  1
  Pb  Pb96  1  0.49198753  -0.00130709  0.00118820  1
  Pb  Pb97  1  0.49928383  -0.00346620  0.24439092  1
  Pb  Pb98  1  0.49069808  -0.00856957  0.50120520  1
  Pb  Pb99  1  0.49994966  -0.00631853  0.75573348  1
  Pb  Pb100  1  0.49854281  0.24760493  0.00614048  1
  Pb  Pb101  1  0.49997386  0.26511261  0.25643042  1
  Pb  Pb102  1  0.49888225  0.25088723  0.49374234  1
  Pb  Pb103  1  0.49463643  0.25346252  0.74968846  1
  Pb  Pb104  1  0.50643080  0.49711397  -0.00186974  1
  Pb  Pb105  1  0.49964770  0.49625022  0.25576978  1
  Pb  Pb106  1  0.50287877  0.49848258  0.49961710  1
  Pb  Pb107  1  0.50315854  0.50089753  0.74296816  1
  Pb  Pb108  1  0.49703082  0.75140052  -0.00758544  1
  Pb  Pb109  1  0.50120476  0.74772244  0.24768021  1
  Pb  Pb110  1  0.50627867  0.73330852  0.51290108  1
  Pb  Pb111  1  0.49486422  0.75398467  0.74854711  1
  Pb  Pb112  1  0.75693341  -0.00180183  0.00416412  1
  Pb  Pb113  1  0.75047813  -0.01142008  0.24626530  1
  Pb  Pb114  1  0.75830576  -0.00158580  0.50044658  1
  Pb  Pb115  1  0.75147704  -0.00007685  0.75106059  1
  Pb  Pb116  1  0.75499676  0.25479242  0.00636430  1
  Pb  Pb117  1  0.75349123  0.26385826  0.24859482  1
  Pb  Pb118  1  0.74939741  0.25202668  0.49738399  1
  Pb  Pb119  1  0.75046800  0.24839835  0.74700210  1
  Pb  Pb120  1  0.74990538  0.49291373  -0.00181783  1
  Pb  Pb121  1  0.75384540  0.49964496  0.25240035  1
  Pb  Pb122  1  0.74509454  0.50064330  0.49919286  1
  Pb  Pb123  1  0.75188945  0.50209270  0.74906988  1
  Pb  Pb124  1  0.74525590  0.74201183  -0.01079849  1
  Pb  Pb125  1  0.75371920  0.75252409  0.25355698  1
  Pb  Pb126  1  0.75376730  0.75548035  0.50054608  1
  Pb  Pb127  1  0.74025829  0.75138641  0.75405694  1
  O  O128  1  0.12384211  -0.00236265  0.15003583  1
  O  O129  1  0.12324597  0.00158414  0.41162869  1
  O  O130  1  0.12539086  -0.00151579  0.67069869  1
  O  O131  1  0.12519888  0.00138563  0.91767292  1
  O  O132  1  0.12568951  0.25031379  0.15868300  1
  O  O133  1  0.12238695  0.23887550  0.40332941  1
  O  O134  1  0.12610015  0.25066374  0.67032013  1
  O  O135  1  0.12545677  0.25980823  0.92014238  1
  O  O136  1  0.12112027  0.51154738  0.16667906  1
  O  O137  1  0.12587900  0.50866303  0.40625663  1
  O  O138  1  0.12416665  0.49740035  0.66558587  1
  O  O139  1  0.12369295  0.49863219  0.91886536  1
  O  O140  1  0.12145463  0.74022645  0.16121362  1
  O  O141  1  0.12711997  0.75278081  0.41486603  1
  O  O142  1  0.12317290  0.75240180  0.66736690  1
  O  O143  1  0.12294267  0.73999656  0.91254540  1
  O  O144  1  0.38222335  -0.00579361  0.15694976  1
  O  O145  1  0.37195805  -0.00314277  0.41277233  1
  O  O146  1  0.37239372  0.00595419  0.67307754  1
  O  O147  1  0.37960876  0.01048472  0.91276120  1
  O  O148  1  0.38022125  0.26022700  0.16090878  1
  O  O149  1  0.37224227  0.24429021  0.40909189  1
  O  O150  1  0.37087366  0.24985236  0.66873526  1
  O  O151  1  0.37837822  0.24946207  0.91938227  1
  O  O152  1  0.37812464  0.49955615  0.16538359  1
  O  O153  1  0.37296580  0.50068369  0.41626013  1
  O  O154  1  0.36909044  0.49122961  0.65822610  1
  O  O155  1  0.37157657  0.50222206  0.91530739  1
  O  O156  1  0.37734464  0.74784024  0.16431353  1
  O  O157  1  0.37167641  0.75983798  0.41453024  1
  O  O158  1  0.37169550  0.75311240  0.66655995  1
  O  O159  1  0.37167703  0.73754724  0.90745411  1
  O  O160  1  0.62362609  -0.01042045  0.15423877  1
  O  O161  1  0.62770024  0.00712875  0.41557894  1
  O  O162  1  0.62432250  0.00131615  0.66870840  1
  O  O163  1  0.62133587  0.00886960  0.91167119  1
  O  O164  1  0.62340750  0.24973210  0.15057509  1
  O  O165  1  0.62771073  0.23610089  0.41524775  1
  O  O166  1  0.62361141  0.24805474  0.66594087  1
  O  O167  1  0.62356910  0.25260059  0.91679384  1
  O  O168  1  0.62661291  0.51142262  0.16457844  1
  O  O169  1  0.62408494  0.50746286  0.41470463  1
  O  O170  1  0.62620954  0.49256093  0.66369013  1
  O  O171  1  0.62606604  0.49404680  0.90681147  1
  O  O172  1  0.62756723  0.74596212  0.16380103  1
  O  O173  1  0.62440591  0.74778148  0.41726730  1
  O  O174  1  0.62668390  0.75805278  0.66343805  1
  O  O175  1  0.62682066  0.74707529  0.90600742  1
  O  O176  1  0.86779197  -0.00123915  0.15655804  1
  O  O177  1  0.87786773  0.00536686  0.41252374  1
  O  O178  1  0.87762223  0.00266995  0.67344182  1
  O  O179  1  0.87074447  0.00388969  0.91607649  1
  O  O180  1  0.86632537  0.24801832  0.15725373  1
  O  O181  1  0.87879578  0.24170688  0.41056856  1
  O  O182  1  0.87964757  0.25375598  0.66725550  1
  O  O183  1  0.87053259  0.24983198  0.92201874  1
  O  O184  1  0.87001825  0.50904974  0.16303898  1
  O  O185  1  0.87604411  0.50323697  0.41607402  1
  O  O186  1  0.88071628  0.48994543  0.66522898  1
  O  O187  1  0.87663807  0.49396419  0.91323033  1
  O  O188  1  0.87093777  0.74398777  0.16225217  1
  O  O189  1  0.87546332  0.74969069  0.41959217  1
  O  O190  1  0.87962902  0.74940538  0.66406308  1
  O  O191  1  0.87599377  0.75386868  0.90520533  1
  O  O192  1  -0.00338010  0.12493298  0.14971397  1
  O  O193  1  0.00098481  0.12148296  0.40913342  1
  O  O194  1  0.00693969  0.12585126  0.67213562  1
  O  O195  1  -0.00668290  0.12916094  0.91869075  1
  O  O196  1  -0.00525052  0.37953115  0.16197967  1
  O  O197  1  0.00219393  0.37442058  0.41173250  1
  O  O198  1  0.00140560  0.37161519  0.66761677  1
  O  O199  1  0.00281530  0.37450678  0.91960469  1
  O  O200  1  -0.00549577  0.62601732  0.15897130  1
  O  O201  1  0.00850987  0.63013996  0.41291676  1
  O  O202  1  0.00115463  0.62282685  0.67181901  1
  O  O203  1  0.00502749  0.62045202  0.91248559  1
  O  O204  1  -0.00164940  0.86896022  0.15690826  1
  O  O205  1  0.00481307  0.87551313  0.41225646  1
  O  O206  1  0.00673870  0.87647749  0.67088782  1
  O  O207  1  -0.00935540  0.87833004  0.91391185  1
  O  O208  1  0.25145975  0.12599970  0.15645931  1
  O  O209  1  0.24204829  0.12015279  0.40321788  1
  O  O210  1  0.24950206  0.12571775  0.67295408  1
  O  O211  1  0.26016402  0.12988260  0.91632432  1
  O  O212  1  0.25877708  0.38043577  0.15990811  1
  O  O213  1  0.24506515  0.37302374  0.41056322  1
  O  O214  1  0.24899687  0.37133348  0.66749928  1
  O  O215  1  0.24583595  0.37775103  0.91715949  1
  O  O216  1  0.24477925  0.62390179  0.15788939  1
  O  O217  1  0.24246800  0.63038253  0.41699697  1
  O  O218  1  0.24465657  0.62416845  0.66678042  1
  O  O219  1  0.24489939  0.61923639  0.91532494  1
  O  O220  1  0.24952915  0.86925540  0.15076494  1
  O  O221  1  0.25027603  0.87847685  0.41485245  1
  O  O222  1  0.24158421  0.87720361  0.67107150  1
  O  O223  1  0.25255485  0.87378094  0.91522772  1
  O  O224  1  0.51318570  0.12120233  0.16696852  1
  O  O225  1  0.50269372  0.12183289  0.40399231  1
  O  O226  1  0.49782271  0.12632041  0.66832489  1
  O  O227  1  0.50206451  0.13135256  0.91771099  1
  O  O228  1  0.49856484  0.38083983  0.16658899  1
  O  O229  1  0.49919571  0.37161279  0.41747057  1
  O  O230  1  0.49062359  0.37076517  0.65720287  1
  O  O231  1  0.50455377  0.37680186  0.91193683  1
  O  O232  1  0.50899842  0.62784784  0.16060709  1
  O  O233  1  0.50487807  0.62833841  0.41671251  1
  O  O234  1  0.49440782  0.62347127  0.66669702  1
  O  O235  1  0.49564310  0.61920893  0.90090355  1
  O  O236  1  0.50775436  0.86610318  0.16045359  1
  O  O237  1  0.49367178  0.88035743  0.41133896  1
  O  O238  1  0.50492107  0.87952665  0.66617918  1
  O  O239  1  0.50107928  0.87423897  0.91126348  1
  O  O240  1  0.73597808  0.11970295  0.16229061  1
  O  O241  1  0.75572869  0.12296925  0.40884360  1
  O  O242  1  0.74642229  0.12700492  0.66471558  1
  O  O243  1  0.74097424  0.12905759  0.91591127  1
  O  O244  1  0.74605571  0.38026108  0.16659778  1
  O  O245  1  0.75204272  0.37213634  0.41719938  1
  O  O246  1  0.75944060  0.37069689  0.65843136  1
  O  O247  1  0.74621268  0.37334711  0.91352515  1
  O  O248  1  0.74843525  0.62719974  0.16291253  1
  O  O249  1  0.74389162  0.62707657  0.41645858  1
  O  O250  1  0.76140386  0.62135358  0.66373808  1
  O  O251  1  0.75262563  0.62224248  0.90770416  1
  O  O252  1  0.74287501  0.86887740  0.15994832  1
  O  O253  1  0.74943818  0.87772418  0.41896930  1
  O  O254  1  0.74632061  0.87900765  0.66436955  1
  O  O255  1  0.75451878  0.87833061  0.91149316  1
  O  O256  1  0.13132189  0.13365697  0.02391901  1
  O  O257  1  0.12082645  0.11706104  0.29041865  1
  O  O258  1  0.12735846  0.12469056  0.55310720  1
  O  O259  1  0.12104183  0.13135673  0.79947933  1
  O  O260  1  0.11876881  0.38248726  0.04230468  1
  O  O261  1  0.12071865  0.37685913  0.27454880  1
  O  O262  1  0.12498745  0.37159647  0.54784478  1
  O  O263  1  0.12638175  0.37587254  0.80554411  1
  O  O264  1  0.12484992  0.62240448  0.04532748  1
  O  O265  1  0.12773722  0.63213979  0.29663255  1
  O  O266  1  0.12306522  0.62592717  0.55023431  1
  O  O267  1  0.12627005  0.62168532  0.79995096  1
  O  O268  1  0.11550420  0.86838100  0.02379194  1
  O  O269  1  0.12649272  0.87415612  0.29366082  1
  O  O270  1  0.12518834  0.87788424  0.55534809  1
  O  O271  1  0.12350138  0.87182043  0.79465554  1
  O  O272  1  0.38612529  0.13315962  0.04132189  1
  O  O273  1  0.37566874  0.12002739  0.27371725  1
  O  O274  1  0.37236463  0.12283974  0.55096878  1
  O  O275  1  0.37904977  0.13362323  0.80270754  1
  O  O276  1  0.38167130  0.38164154  0.04828205  1
  O  O277  1  0.38371909  0.38037565  0.28373480  1
  O  O278  1  0.36490646  0.36515265  0.54926668  1
  O  O279  1  0.37036498  0.37263868  0.78729886  1
  O  O280  1  0.37394314  0.62569782  0.03320644  1
  O  O281  1  0.36831477  0.62686845  0.29110648  1
  O  O282  1  0.37196381  0.63441036  0.53356622  1
  O  O283  1  0.36708728  0.61441048  0.79707039  1
  O  O284  1  0.38387082  0.86572400  0.02588895  1
  O  O285  1  0.37395495  0.87352393  0.29792432  1
  O  O286  1  0.37022985  0.88921347  0.54291240  1
  O  O287  1  0.37034453  0.87839930  0.78693471  1
  O  O288  1  0.62115963  0.12534637  0.04346036  1
  O  O289  1  0.62558195  0.12136472  0.29521927  1
  O  O290  1  0.62138709  0.12218626  0.54806595  1
  O  O291  1  0.62503197  0.12993804  0.80125175  1
  O  O292  1  0.62338962  0.39014426  0.03513972  1
  O  O293  1  0.61888367  0.37210804  0.29110126  1
  O  O294  1  0.62616407  0.36848022  0.53023683  1
  O  O295  1  0.62593302  0.36788554  0.79923749  1
  O  O296  1  0.62841703  0.62735263  0.04563037  1
  O  O297  1  0.62520554  0.63048459  0.30112444  1
  O  O298  1  0.61933710  0.62780093  0.54524384  1
  O  O299  1  0.63293108  0.62351752  0.77330295  1
  O  O300  1  0.62381053  0.86872821  0.04366186  1
  O  O301  1  0.62775335  0.87474697  0.28731056  1
  O  O302  1  0.62283076  0.88126476  0.55250333  1
  O  O303  1  0.62827824  0.87814490  0.78343776  1
  O  O304  1  0.85926040  0.12320933  0.02535333  1
  O  O305  1  0.87289883  0.12290040  0.29513374  1
  O  O306  1  0.88411280  0.12193950  0.53876443  1
  O  O307  1  0.87245402  0.13038201  0.81234143  1
  O  O308  1  0.86665587  0.38062482  0.03372025  1
  O  O309  1  0.86833729  0.37581430  0.28309063  1
  O  O310  1  0.88414545  0.37104073  0.54823169  1
  O  O311  1  0.87687540  0.36905061  0.80377525  1
  O  O312  1  0.87291977  0.62542002  0.04789497  1
  O  O313  1  0.87188696  0.63217390  0.28517216  1
  O  O314  1  0.88452177  0.62497064  0.55743877  1
  O  O315  1  0.87904596  0.61509984  0.78020644  1
  O  O316  1  0.87516813  0.87421916  0.03045532  1
  O  O317  1  0.86822647  0.87009965  0.28528548  1
  O  O318  1  0.88025443  0.88456399  0.53975843  1
  O  O319  1  0.87419125  0.87859036  0.79889567  1
