# generated using pymatgen
data_VFe(PbO3)2
_symmetry_space_group_name_H-M   'P 1'
_cell_length_a   15.40179289
_cell_length_b   15.40061889
_cell_length_c   18.50685232
_cell_angle_alpha   90.03311261
_cell_angle_beta   89.98660641
_cell_angle_gamma   89.99630179
_symmetry_Int_Tables_number   1
_chemical_formula_structural   VFe(PbO3)2
_chemical_formula_sum   'V32 Fe32 Pb64 O192'
_cell_volume   4389.77162520
_cell_formula_units_Z   32
loop_
 _symmetry_equiv_pos_site_id
 _symmetry_equiv_pos_as_xyz
  1  'x, y, z'
loop_
 _atom_site_type_symbol
 _atom_site_label
 _atom_site_symmetry_multiplicity
 _atom_site_fract_x
 _atom_site_fract_y
 _atom_site_fract_z
 _atom_site_occupancy
  V  V0  1  0.88544577  0.87977378  0.13924936  1
  V  V1  1  0.12463016  0.87437784  0.88869761  1
  V  V2  1  0.37672196  0.87463257  0.88441311  1
  V  V3  1  0.12867750  0.12074011  0.14293292  1
  V  V4  1  0.12569858  0.37721657  0.89482590  1
  V  V5  1  0.37600444  0.62642078  0.14384564  1
  V  V6  1  0.12471189  0.62034259  0.63674361  1
  V  V7  1  0.37667496  0.87509497  0.14478544  1
  V  V8  1  0.87421986  0.62101143  0.63764090  1
  V  V9  1  0.62582987  0.37466841  0.38042188  1
  V  V10  1  0.62632383  0.87373363  0.88598413  1
  V  V11  1  0.37404162  0.12440207  0.88648609  1
  V  V12  1  0.87469650  0.12620412  0.38660990  1
  V  V13  1  0.12736885  0.63562635  0.14654814  1
  V  V14  1  0.37712939  0.12315767  0.14939838  1
  V  V15  1  0.38076850  0.87488641  0.39646523  1
  V  V16  1  0.87475132  0.37776461  0.63575775  1
  V  V17  1  0.12796409  0.87585621  0.38961960  1
  V  V18  1  0.87524381  0.37574567  0.89920492  1
  V  V19  1  0.37282862  0.37227269  0.15486334  1
  V  V20  1  0.87609221  0.87545169  0.38919169  1
  V  V21  1  0.62272409  0.37593460  0.14068555  1
  V  V22  1  0.62573102  0.12546938  0.88702588  1
  V  V23  1  0.87435012  0.12941550  0.63812839  1
  V  V24  1  0.87525581  0.12051090  0.14224829  1
  V  V25  1  0.62487760  0.12473570  0.14623426  1
  V  V26  1  0.12323819  0.88150295  0.63594736  1
  V  V27  1  0.12581044  0.38599909  0.15566050  1
  V  V28  1  0.62449892  0.37651837  0.63799721  1
  V  V29  1  0.87726183  0.62951376  0.89576061  1
  V  V30  1  0.36588220  0.37560437  0.63367195  1
  V  V31  1  0.62524911  0.87799496  0.14415402  1
  Fe  Fe32  1  0.87434566  0.87573335  0.87749016  1
  Fe  Fe33  1  0.12094319  0.12060087  0.39755805  1
  Fe  Fe34  1  0.37461384  0.62118824  0.62738577  1
  Fe  Fe35  1  0.12247479  0.13205443  0.62637955  1
  Fe  Fe36  1  0.13227773  0.87906188  0.13630480  1
  Fe  Fe37  1  0.62657795  0.62461343  0.88673162  1
  Fe  Fe38  1  0.62812494  0.12322237  0.38945633  1
  Fe  Fe39  1  0.62272016  0.62744932  0.14618827  1
  Fe  Fe40  1  0.37299510  0.87268560  0.62652398  1
  Fe  Fe41  1  0.62652717  0.62169825  0.63380071  1
  Fe  Fe42  1  0.12286792  0.37485497  0.37512088  1
  Fe  Fe43  1  0.11865775  0.37748397  0.62920430  1
  Fe  Fe44  1  0.37507105  0.12792524  0.62731029  1
  Fe  Fe45  1  0.87146092  0.37382273  0.37134957  1
  Fe  Fe46  1  0.62603465  0.62564674  0.37627964  1
  Fe  Fe47  1  0.87575212  0.62742262  0.37468752  1
  Fe  Fe48  1  0.12534407  0.12874992  0.88702482  1
  Fe  Fe49  1  0.62630390  0.37457888  0.88809990  1
  Fe  Fe50  1  0.37447984  0.12420059  0.38774672  1
  Fe  Fe51  1  0.37273468  0.62448889  0.88533638  1
  Fe  Fe52  1  0.87461723  0.37203807  0.14948182  1
  Fe  Fe53  1  0.62669602  0.87321944  0.62647143  1
  Fe  Fe54  1  0.62613252  0.12864296  0.62907829  1
  Fe  Fe55  1  0.62764365  0.87460881  0.39369192  1
  Fe  Fe56  1  0.12246486  0.62994225  0.38007723  1
  Fe  Fe57  1  0.37571554  0.37487075  0.88449954  1
  Fe  Fe58  1  0.37382436  0.62599700  0.38897451  1
  Fe  Fe59  1  0.12319709  0.62191821  0.89115506  1
  Fe  Fe60  1  0.37635859  0.37446389  0.37560705  1
  Fe  Fe61  1  0.87723487  0.12511154  0.88709497  1
  Fe  Fe62  1  0.87503137  0.63104688  0.14807388  1
  Fe  Fe63  1  0.87864235  0.87116430  0.64561975  1
  Pb  Pb64  1  0.00232832  -0.00042596  -0.00563373  1
  Pb  Pb65  1  0.01085654  0.00789391  0.25930293  1
  Pb  Pb66  1  -0.00938103  -0.00591336  0.50602569  1
  Pb  Pb67  1  -0.01073578  0.00769098  0.75395070  1
  Pb  Pb68  1  -0.00346004  0.25422930  0.00885534  1
  Pb  Pb69  1  0.00854127  0.24773683  0.25884063  1
  Pb  Pb70  1  0.00992693  0.25856155  0.49518339  1
  Pb  Pb71  1  0.00137054  0.24402189  0.74948174  1
  Pb  Pb72  1  -0.01386220  0.49720187  0.01554031  1
  Pb  Pb73  1  -0.00947349  0.50182984  0.25403405  1
  Pb  Pb74  1  -0.00017635  0.49637119  0.47990277  1
  Pb  Pb75  1  0.00463321  0.50250929  0.75147444  1
  Pb  Pb76  1  -0.00390011  0.74973635  0.00379817  1
  Pb  Pb77  1  0.00302229  0.74419052  0.25578088  1
  Pb  Pb78  1  -0.00747006  0.75305943  0.49922162  1
  Pb  Pb79  1  0.00778887  0.74194636  0.75193473  1
  Pb  Pb80  1  0.24730718  -0.00463457  -0.00028692  1
  Pb  Pb81  1  0.25708472  0.00631548  0.26099244  1
  Pb  Pb82  1  0.25670632  0.00444166  0.50234713  1
  Pb  Pb83  1  0.24877067  0.00717085  0.73875621  1
  Pb  Pb84  1  0.25196532  0.24911011  0.00127173  1
  Pb  Pb85  1  0.24324092  0.24888948  0.26129602  1
  Pb  Pb86  1  0.24584343  0.25048782  0.48635943  1
  Pb  Pb87  1  0.24039959  0.24536288  0.74398745  1
  Pb  Pb88  1  0.25420772  0.50300714  0.00163685  1
  Pb  Pb89  1  0.25501387  0.50909536  0.26208989  1
  Pb  Pb90  1  0.24781405  0.49865202  0.48347953  1
  Pb  Pb91  1  0.25862686  0.49960426  0.75184683  1
  Pb  Pb92  1  0.24820579  0.75439783  -0.00200917  1
  Pb  Pb93  1  0.25479696  0.74507513  0.25886719  1
  Pb  Pb94  1  0.25707042  0.74561710  0.50162017  1
  Pb  Pb95  1  0.25470032  0.73891772  0.74489673  1
  Pb  Pb96  1  0.49979480  -0.00132835  -0.00324116  1
  Pb  Pb97  1  0.50186582  0.00336042  0.26260943  1
  Pb  Pb98  1  0.50368627  0.00671562  0.50017043  1
  Pb  Pb99  1  0.50001263  0.00020404  0.73074527  1
  Pb  Pb100  1  0.49973782  0.25154917  -0.00265257  1
  Pb  Pb101  1  0.49572784  0.24369070  0.25829480  1
  Pb  Pb102  1  0.49671195  0.24329938  0.49235754  1
  Pb  Pb103  1  0.49841789  0.25791081  0.74457578  1
  Pb  Pb104  1  0.50138454  0.50169356  -0.00481659  1
  Pb  Pb105  1  0.49147714  0.50374833  0.25450649  1
  Pb  Pb106  1  0.49865177  0.50721511  0.49089732  1
  Pb  Pb107  1  0.49553466  0.50388810  0.74946531  1
  Pb  Pb108  1  0.50480159  0.74245714  -0.00174938  1
  Pb  Pb109  1  0.50691047  0.75178681  0.25932376  1
  Pb  Pb110  1  0.51306378  0.74029394  0.50021601  1
  Pb  Pb111  1  0.49867939  0.74478546  0.73569494  1
  Pb  Pb112  1  0.75360848  -0.00168051  -0.00584968  1
  Pb  Pb113  1  0.73902135  -0.00284729  0.25941345  1
  Pb  Pb114  1  0.74566215  -0.00587766  0.50340434  1
  Pb  Pb115  1  0.75108496  -0.00283396  0.74128909  1
  Pb  Pb116  1  0.75366041  0.25316306  0.00456722  1
  Pb  Pb117  1  0.74644578  0.24635559  0.25216741  1
  Pb  Pb118  1  0.74566113  0.24811978  0.49533253  1
  Pb  Pb119  1  0.74820844  0.25497434  0.75014890  1
  Pb  Pb120  1  0.74595062  0.50518871  0.00799034  1
  Pb  Pb121  1  0.75373080  0.50571740  0.24506249  1
  Pb  Pb122  1  0.75055497  0.50695525  0.48504202  1
  Pb  Pb123  1  0.74024797  0.49940044  0.75592335  1
  Pb  Pb124  1  0.74950680  0.73555957  0.01436379  1
  Pb  Pb125  1  0.74281396  0.75155582  0.25418023  1
  Pb  Pb126  1  0.74340750  0.74648265  0.49757256  1
  Pb  Pb127  1  0.74412324  0.74821361  0.74449654  1
  O  O128  1  0.12657248  0.00332930  0.16989674  1
  O  O129  1  0.11764513  -0.00977298  0.41896617  1
  O  O130  1  0.12548897  -0.00166898  0.64816297  1
  O  O131  1  0.12861531  -0.00515401  0.91190485  1
  O  O132  1  0.12105321  0.23314553  0.16957944  1
  O  O133  1  0.11999071  0.24975324  0.40706041  1
  O  O134  1  0.12221312  0.25514236  0.66250794  1
  O  O135  1  0.12325693  0.25955707  0.92135613  1
  O  O136  1  0.12872293  0.50212705  0.16608691  1
  O  O137  1  0.12190304  0.50107057  0.39783949  1
  O  O138  1  0.12082201  0.50269608  0.66347819  1
  O  O139  1  0.12024209  0.49226328  0.92426625  1
  O  O140  1  0.12930106  0.75267630  0.16406112  1
  O  O141  1  0.11980782  0.76017788  0.41342130  1
  O  O142  1  0.12265326  0.73794487  0.66281657  1
  O  O143  1  0.12620731  0.75575191  0.91520038  1
  O  O144  1  0.37657945  -0.00287141  0.17162602  1
  O  O145  1  0.37177656  -0.00697515  0.41676094  1
  O  O146  1  0.36899317  -0.00063940  0.65667041  1
  O  O147  1  0.37636927  -0.00034061  0.91572944  1
  O  O148  1  0.37484674  0.24432745  0.17411278  1
  O  O149  1  0.37856653  0.25185233  0.40378449  1
  O  O150  1  0.37833608  0.26070834  0.65882935  1
  O  O151  1  0.37383496  0.24639380  0.91685330  1
  O  O152  1  0.37174149  0.50237339  0.16870593  1
  O  O153  1  0.37635866  0.49705362  0.40794108  1
  O  O154  1  0.37696143  0.49193093  0.66158398  1
  O  O155  1  0.37373968  0.49880727  0.91979512  1
  O  O156  1  0.37542952  0.75566043  0.16741564  1
  O  O157  1  0.36910584  0.75725676  0.41261251  1
  O  O158  1  0.36839090  0.74692208  0.65761686  1
  O  O159  1  0.37507533  0.75597210  0.91201355  1
  O  O160  1  0.62072735  -0.00229152  0.17102609  1
  O  O161  1  0.62919531  -0.00071121  0.41701090  1
  O  O162  1  0.62709746  0.00183498  0.65348358  1
  O  O163  1  0.62210124  -0.00177718  0.91472868  1
  O  O164  1  0.62512840  0.24664238  0.16895408  1
  O  O165  1  0.62897614  0.25507301  0.40810341  1
  O  O166  1  0.63024217  0.25737340  0.66403315  1
  O  O167  1  0.62641520  0.24520093  0.91795891  1
  O  O168  1  0.62415164  0.49265016  0.15772841  1
  O  O169  1  0.62690906  0.49449448  0.40262536  1
  O  O170  1  0.63160690  0.49314349  0.66328796  1
  O  O171  1  0.63071222  0.50032083  0.92006284  1
  O  O172  1  0.61736929  0.76106520  0.16637637  1
  O  O173  1  0.62668418  0.74845771  0.41173124  1
  O  O174  1  0.62799431  0.74755407  0.66131409  1
  O  O175  1  0.62465312  0.75844898  0.91234872  1
  O  O176  1  0.86924563  -0.00632051  0.16992714  1
  O  O177  1  0.87585072  -0.00329824  0.41712423  1
  O  O178  1  0.87895916  0.00870328  0.66131269  1
  O  O179  1  0.87584275  -0.00296142  0.91501137  1
  O  O180  1  0.87504388  0.23450055  0.16380480  1
  O  O181  1  0.86886414  0.24324187  0.39984062  1
  O  O182  1  0.87391679  0.25068111  0.66219638  1
  O  O183  1  0.87686968  0.25536642  0.91994082  1
  O  O184  1  0.87758533  0.50123253  0.16161525  1
  O  O185  1  0.87268682  0.49969263  0.39802827  1
  O  O186  1  0.87542698  0.50287603  0.66589109  1
  O  O187  1  0.87576003  0.49908061  0.92432209  1
  O  O188  1  0.87308075  0.76812620  0.16802882  1
  O  O189  1  0.87766981  0.75686135  0.40829834  1
  O  O190  1  0.88065117  0.73758526  0.66450765  1
  O  O191  1  0.87889362  0.74818457  0.90956673  1
  O  O192  1  -0.00436678  0.11305203  0.16232105  1
  O  O193  1  -0.01319199  0.12112177  0.41571351  1
  O  O194  1  -0.00472469  0.12994698  0.66057728  1
  O  O195  1  0.00221389  0.12568773  0.92000853  1
  O  O196  1  0.00829448  0.37071064  0.16614426  1
  O  O197  1  -0.00503149  0.37271611  0.39877420  1
  O  O198  1  -0.00804148  0.37672455  0.66347266  1
  O  O199  1  -0.00172438  0.37629737  0.92450995  1
  O  O200  1  0.00925281  0.62975680  0.16453772  1
  O  O201  1  -0.00173484  0.62911066  0.40699541  1
  O  O202  1  -0.00082472  0.61971431  0.66491826  1
  O  O203  1  -0.00511012  0.62403045  0.92451233  1
  O  O204  1  -0.00067793  0.88018962  0.15248158  1
  O  O205  1  -0.00324937  0.87620148  0.41594652  1
  O  O206  1  0.01266681  0.87083874  0.66958625  1
  O  O207  1  0.00632844  0.87555276  0.90797651  1
  O  O208  1  0.24652509  0.12119886  0.16735984  1
  O  O209  1  0.24848982  0.12118253  0.40907989  1
  O  O210  1  0.24883955  0.13006864  0.65847866  1
  O  O211  1  0.25243589  0.12611590  0.91752130  1
  O  O212  1  0.24690395  0.36739297  0.17427732  1
  O  O213  1  0.24959114  0.37387376  0.39693611  1
  O  O214  1  0.25164914  0.37782872  0.65160430  1
  O  O215  1  0.24353861  0.37535116  0.91647487  1
  O  O216  1  0.24904270  0.62789265  0.16961335  1
  O  O217  1  0.24587642  0.62831097  0.41104896  1
  O  O218  1  0.24323572  0.61789261  0.65693505  1
  O  O219  1  0.24725241  0.62378056  0.92014097  1
  O  O220  1  0.25956721  0.87844475  0.16837142  1
  O  O221  1  0.24259392  0.87712765  0.41038035  1
  O  O222  1  0.23690742  0.86998746  0.66372022  1
  O  O223  1  0.25111222  0.87651221  0.91382437  1
  O  O224  1  0.50132447  0.12245212  0.17114089  1
  O  O225  1  0.50149725  0.12206768  0.41107838  1
  O  O226  1  0.49986935  0.13018042  0.65867723  1
  O  O227  1  0.49943485  0.12456653  0.91664109  1
  O  O228  1  0.50663225  0.37005601  0.16735347  1
  O  O229  1  0.50985958  0.37450781  0.40622906  1
  O  O230  1  0.50707768  0.37603720  0.65739207  1
  O  O231  1  0.50059507  0.37307549  0.91759126  1
  O  O232  1  0.49395340  0.62688123  0.16563567  1
  O  O233  1  0.50149433  0.62569912  0.40658044  1
  O  O234  1  0.49950900  0.61964167  0.65801309  1
  O  O235  1  0.50025359  0.62685634  0.91480414  1
  O  O236  1  0.49569569  0.87868785  0.17211082  1
  O  O237  1  0.49559481  0.87524380  0.41228292  1
  O  O238  1  0.49906303  0.87302846  0.65303689  1
  O  O239  1  0.50241363  0.87766263  0.91423454  1
  O  O240  1  0.75294266  0.11786882  0.16750824  1
  O  O241  1  0.75916236  0.11979565  0.41514878  1
  O  O242  1  0.75601379  0.12849450  0.66169904  1
  O  O243  1  0.74716841  0.12347068  0.91552467  1
  O  O244  1  0.74072149  0.36893405  0.16372674  1
  O  O245  1  0.74466079  0.37422112  0.40671314  1
  O  O246  1  0.75285705  0.37497694  0.66658479  1
  O  O247  1  0.75722532  0.37465277  0.92182542  1
  O  O248  1  0.74824509  0.63150323  0.16564132  1
  O  O249  1  0.75159883  0.62685729  0.40247783  1
  O  O250  1  0.75855327  0.62231330  0.66151955  1
  O  O251  1  0.75864682  0.62654960  0.92045879  1
  O  O252  1  0.74025763  0.87798152  0.16239780  1
  O  O253  1  0.75996920  0.87570910  0.41272475  1
  O  O254  1  0.75211415  0.87459492  0.66235398  1
  O  O255  1  0.74318659  0.87910312  0.90474048  1
  O  O256  1  0.12914558  0.12138252  0.05151307  1
  O  O257  1  0.11201023  0.11711915  0.29449385  1
  O  O258  1  0.11979372  0.13606772  0.52576035  1
  O  O259  1  0.12624178  0.13568954  0.78736282  1
  O  O260  1  0.13150032  0.37093345  0.06477178  1
  O  O261  1  0.12289508  0.36217472  0.27134724  1
  O  O262  1  0.11505427  0.37333157  0.52973970  1
  O  O263  1  0.12199426  0.37855132  0.80391814  1
  O  O264  1  0.12931986  0.63014657  0.05534289  1
  O  O265  1  0.12707322  0.63822918  0.27897843  1
  O  O266  1  0.11980991  0.62104835  0.54609835  1
  O  O267  1  0.11628232  0.62017942  0.79187172  1
  O  O268  1  0.13498675  0.87939452  0.03705530  1
  O  O269  1  0.12349453  0.87843040  0.29754833  1
  O  O270  1  0.11897784  0.86791374  0.54549001  1
  O  O271  1  0.12988567  0.87279809  0.79827454  1
  O  O272  1  0.37565092  0.12277301  0.05831233  1
  O  O273  1  0.37693834  0.11399861  0.28511461  1
  O  O274  1  0.37672222  0.12633610  0.52701946  1
  O  O275  1  0.37324977  0.12492039  0.79557364  1
  O  O276  1  0.37324236  0.37084009  0.06334175  1
  O  O277  1  0.38470176  0.37970826  0.27379904  1
  O  O278  1  0.37441908  0.37690896  0.54301406  1
  O  O279  1  0.37418627  0.37882681  0.78503519  1
  O  O280  1  0.37209556  0.62746206  0.05260276  1
  O  O281  1  0.36701245  0.62529384  0.28601774  1
  O  O282  1  0.37222691  0.62133828  0.52705424  1
  O  O283  1  0.36733190  0.61549476  0.78491876  1
  O  O284  1  0.37991950  0.87680371  0.05384966  1
  O  O285  1  0.37412895  0.87863647  0.30432540  1
  O  O286  1  0.36144086  0.87376037  0.52674208  1
  O  O287  1  0.37494286  0.87681965  0.79387872  1
  O  O288  1  0.62522518  0.12232323  0.05542513  1
  O  O289  1  0.63178066  0.12022644  0.28741786  1
  O  O290  1  0.62986761  0.13442855  0.52868109  1
  O  O291  1  0.62433596  0.12647217  0.79622795  1
  O  O292  1  0.62280590  0.36767021  0.04931385  1
  O  O293  1  0.62666390  0.37168652  0.28926666  1
  O  O294  1  0.63028907  0.37578556  0.54749316  1
  O  O295  1  0.63241582  0.37487648  0.78857304  1
  O  O296  1  0.62923735  0.63745739  0.04369622  1
  O  O297  1  0.62227663  0.63269202  0.27393403  1
  O  O298  1  0.62875668  0.62507224  0.53322397  1
  O  O299  1  0.63427818  0.62095358  0.78709079  1
  O  O300  1  0.61942232  0.88066951  0.05305393  1
  O  O301  1  0.62592198  0.87463967  0.29131412  1
  O  O302  1  0.63294322  0.86680420  0.52513118  1
  O  O303  1  0.62077138  0.87459639  0.79552943  1
  O  O304  1  0.87253237  0.11642400  0.05108362  1
  O  O305  1  0.87619972  0.11506443  0.29518949  1
  O  O306  1  0.87353503  0.12999241  0.54737753  1
  O  O307  1  0.88404335  0.12543240  0.78751423  1
  O  O308  1  0.87959660  0.36690871  0.04704573  1
  O  O309  1  0.87090863  0.37250892  0.26979876  1
  O  O310  1  0.87175408  0.37833116  0.54486589  1
  O  O311  1  0.87670623  0.37807606  0.80879582  1
  O  O312  1  0.87572052  0.64065998  0.04573748  1
  O  O313  1  0.88307319  0.63136476  0.27194864  1
  O  O314  1  0.87607308  0.62001288  0.54661185  1
  O  O315  1  0.87929233  0.61878165  0.80565476  1
  O  O316  1  0.87246574  0.87901848  0.04784076  1
  O  O317  1  0.87778612  0.87955271  0.29819788  1
  O  O318  1  0.88890790  0.87335301  0.54514135  1
  O  O319  1  0.87911588  0.88311095  0.77737005  1
