# generated using pymatgen
data_VFe(PbO3)2
_symmetry_space_group_name_H-M   'P 1'
_cell_length_a   15.38129533
_cell_length_b   15.38592867
_cell_length_c   18.53898545
_cell_angle_alpha   89.99941945
_cell_angle_beta   89.98109536
_cell_angle_gamma   89.98055267
_symmetry_Int_Tables_number   1
_chemical_formula_structural   VFe(PbO3)2
_chemical_formula_sum   'V32 Fe32 Pb64 O192'
_cell_volume   4387.35261874
_cell_formula_units_Z   32
loop_
 _symmetry_equiv_pos_site_id
 _symmetry_equiv_pos_as_xyz
  1  'x, y, z'
loop_
 _atom_site_type_symbol
 _atom_site_label
 _atom_site_symmetry_multiplicity
 _atom_site_fract_x
 _atom_site_fract_y
 _atom_site_fract_z
 _atom_site_occupancy
  V  V0  1  0.62549885  0.62374079  0.39109101  1
  V  V1  1  0.12312143  0.62137597  0.38989010  1
  V  V2  1  0.87511959  0.12495598  0.88528809  1
  V  V3  1  0.37532963  0.62236602  0.13553932  1
  V  V4  1  0.87358724  0.62529952  0.88710994  1
  V  V5  1  0.62462403  0.62386333  0.64237639  1
  V  V6  1  0.62403975  0.37867119  0.39124668  1
  V  V7  1  0.12632383  0.37695032  0.64630831  1
  V  V8  1  0.62934131  0.87140430  0.88563856  1
  V  V9  1  0.87576500  0.37694434  0.38869466  1
  V  V10  1  0.87773470  0.12575591  0.39681258  1
  V  V11  1  0.87850548  0.62373560  0.63893982  1
  V  V12  1  0.37644274  0.12365139  0.13740295  1
  V  V13  1  0.87560452  0.87388417  0.39666598  1
  V  V14  1  0.87592637  0.37521433  0.64322602  1
  V  V15  1  0.62482199  0.62382851  0.13917598  1
  V  V16  1  0.37385665  0.12704061  0.63939686  1
  V  V17  1  0.62728897  0.12111572  0.88750173  1
  V  V18  1  0.12499067  0.62560879  0.13462945  1
  V  V19  1  0.37206537  0.37673500  0.39195998  1
  V  V20  1  0.62358382  0.12586303  0.14521516  1
  V  V21  1  0.62561235  0.37410476  0.63674960  1
  V  V22  1  0.37193057  0.11585980  0.38899214  1
  V  V23  1  0.37381683  0.87527798  0.63923647  1
  V  V24  1  0.12587792  0.87449894  0.39202643  1
  V  V25  1  0.37710067  0.37082753  0.13877955  1
  V  V26  1  0.87306756  0.12386421  0.14123209  1
  V  V27  1  0.87195541  0.37148052  0.14010725  1
  V  V28  1  0.62850416  0.37395664  0.88582359  1
  V  V29  1  0.12172264  0.12621144  0.64330800  1
  V  V30  1  0.12612069  0.62979298  0.65415726  1
  V  V31  1  0.87441122  0.87765641  0.14143248  1
  Fe  Fe32  1  0.62826986  0.62576509  0.87725074  1
  Fe  Fe33  1  0.12730357  0.12529163  0.38768770  1
  Fe  Fe34  1  0.12394297  0.62510371  0.87339897  1
  Fe  Fe35  1  0.37958688  0.62552169  0.87636569  1
  Fe  Fe36  1  0.37650665  0.87295081  0.13204228  1
  Fe  Fe37  1  0.62388507  0.37608918  0.13905097  1
  Fe  Fe38  1  0.12556187  0.37654487  0.13621319  1
  Fe  Fe39  1  0.37919599  0.87708712  0.88665240  1
  Fe  Fe40  1  0.12527371  0.12461607  0.13403168  1
  Fe  Fe41  1  0.62620720  0.87499235  0.13971787  1
  Fe  Fe42  1  0.12702785  0.87713612  0.65051947  1
  Fe  Fe43  1  0.12399008  0.87354665  0.13273423  1
  Fe  Fe44  1  0.87176574  0.87944482  0.88057513  1
  Fe  Fe45  1  0.62368494  0.87389312  0.62536238  1
  Fe  Fe46  1  0.62320602  0.12561680  0.62512569  1
  Fe  Fe47  1  0.87698241  0.62636577  0.38663911  1
  Fe  Fe48  1  0.37155574  0.86983037  0.38558889  1
  Fe  Fe49  1  0.37421151  0.37592619  0.64955840  1
  Fe  Fe50  1  0.87531574  0.87603444  0.63355260  1
  Fe  Fe51  1  0.62273885  0.87359262  0.39627067  1
  Fe  Fe52  1  0.12103836  0.37385048  0.88246654  1
  Fe  Fe53  1  0.37273976  0.62284763  0.38871948  1
  Fe  Fe54  1  0.87349805  0.62591852  0.13676353  1
  Fe  Fe55  1  0.87158979  0.37012973  0.88176926  1
  Fe  Fe56  1  0.38028967  0.12461115  0.88339541  1
  Fe  Fe57  1  0.12463892  0.37402025  0.38433933  1
  Fe  Fe58  1  0.62234964  0.12895688  0.39889403  1
  Fe  Fe59  1  0.12149004  0.87593942  0.87578461  1
  Fe  Fe60  1  0.37365937  0.62465671  0.64778973  1
  Fe  Fe61  1  0.87425765  0.12782521  0.62935376  1
  Fe  Fe62  1  0.37736455  0.37122280  0.87535000  1
  Fe  Fe63  1  0.12453938  0.12474753  0.88127371  1
  Pb  Pb64  1  0.01226565  -0.00242057  -0.00331207  1
  Pb  Pb65  1  0.00623671  0.00489833  0.24972332  1
  Pb  Pb66  1  -0.00491237  -0.00318999  0.50809288  1
  Pb  Pb67  1  -0.00513896  -0.00549346  0.74840110  1
  Pb  Pb68  1  0.01239450  0.25269229  0.00064563  1
  Pb  Pb69  1  0.00918648  0.25046717  0.25138082  1
  Pb  Pb70  1  0.00022157  0.24783905  0.50047892  1
  Pb  Pb71  1  0.00119145  0.25465432  0.75443227  1
  Pb  Pb72  1  0.00314234  0.49420852  -0.00644034  1
  Pb  Pb73  1  -0.00143726  0.49937559  0.24670768  1
  Pb  Pb74  1  0.00148531  0.50149164  0.49986479  1
  Pb  Pb75  1  0.00342457  0.49583192  0.75653721  1
  Pb  Pb76  1  0.00493062  0.75667490  -0.00976971  1
  Pb  Pb77  1  -0.00434149  0.74380672  0.24853141  1
  Pb  Pb78  1  0.00433943  0.76017749  0.50923095  1
  Pb  Pb79  1  -0.00402792  0.76281738  0.75403999  1
  Pb  Pb80  1  0.24642852  -0.00192284  -0.01161880  1
  Pb  Pb81  1  0.24919828  -0.00366634  0.24234207  1
  Pb  Pb82  1  0.23609327  -0.01191297  0.51046174  1
  Pb  Pb83  1  0.25112798  0.00884885  0.75733304  1
  Pb  Pb84  1  0.24701074  0.24827717  -0.01131841  1
  Pb  Pb85  1  0.23912105  0.25124237  0.24987994  1
  Pb  Pb86  1  0.24949397  0.25581500  0.50145050  1
  Pb  Pb87  1  0.24065184  0.24698973  0.75841155  1
  Pb  Pb88  1  0.24955950  0.49768673  -0.01860424  1
  Pb  Pb89  1  0.25264506  0.50451668  0.24866417  1
  Pb  Pb90  1  0.26252121  0.50131372  0.51507438  1
  Pb  Pb91  1  0.25002034  0.50269409  0.75695112  1
  Pb  Pb92  1  0.25088206  0.75438120  -0.01583175  1
  Pb  Pb93  1  0.25809890  0.75281032  0.24645562  1
  Pb  Pb94  1  0.24895726  0.74605025  0.50447534  1
  Pb  Pb95  1  0.26296188  0.76120176  0.76138239  1
  Pb  Pb96  1  0.49871912  -0.00941161  0.00203732  1
  Pb  Pb97  1  0.50295422  -0.01302046  0.25625233  1
  Pb  Pb98  1  0.50566859  -0.00381200  0.49841274  1
  Pb  Pb99  1  0.49672697  -0.00018655  0.74463456  1
  Pb  Pb100  1  0.50285456  0.25446485  -0.00314585  1
  Pb  Pb101  1  0.50240346  0.24254508  0.25661092  1
  Pb  Pb102  1  0.49669819  0.25616578  0.50268989  1
  Pb  Pb103  1  0.49181996  0.24437679  0.75070393  1
  Pb  Pb104  1  0.50129116  0.50180805  -0.01205079  1
  Pb  Pb105  1  0.49384949  0.50613846  0.25167741  1
  Pb  Pb106  1  0.48621007  0.50146283  0.51119632  1
  Pb  Pb107  1  0.49584537  0.49988567  0.75170506  1
  Pb  Pb108  1  0.49719439  0.75310298  -0.00397289  1
  Pb  Pb109  1  0.49542069  0.75680844  0.25219981  1
  Pb  Pb110  1  0.49621371  0.74888068  0.49819594  1
  Pb  Pb111  1  0.49397286  0.75283023  0.75120260  1
  Pb  Pb112  1  0.74480090  -0.00559648  0.00133892  1
  Pb  Pb113  1  0.73871108  -0.00052662  0.26104847  1
  Pb  Pb114  1  0.74687886  0.00286806  0.50311841  1
  Pb  Pb115  1  0.74971229  -0.00128499  0.73191275  1
  Pb  Pb116  1  0.74475097  0.25428227  0.00152706  1
  Pb  Pb117  1  0.74386698  0.24410429  0.25670198  1
  Pb  Pb118  1  0.75175604  0.24493081  0.50299013  1
  Pb  Pb119  1  0.75334747  0.24875170  0.74475535  1
  Pb  Pb120  1  0.75466893  0.50446889  -0.00051460  1
  Pb  Pb121  1  0.75524893  0.50536520  0.25033915  1
  Pb  Pb122  1  0.75060240  0.50158474  0.50010933  1
  Pb  Pb123  1  0.74990369  0.50245869  0.75189150  1
  Pb  Pb124  1  0.75525148  0.74388650  0.00057777  1
  Pb  Pb125  1  0.74429224  0.75493786  0.25323881  1
  Pb  Pb126  1  0.75216075  0.75657935  0.50401873  1
  Pb  Pb127  1  0.74828633  0.75135475  0.74453382  1
  O  O128  1  0.12379895  -0.00032234  0.16527962  1
  O  O129  1  0.12561015  -0.00493826  0.41598987  1
  O  O130  1  0.12970582  0.01040992  0.66440724  1
  O  O131  1  0.12190569  0.00032364  0.90742896  1
  O  O132  1  0.12426577  0.25011361  0.16428001  1
  O  O133  1  0.12747880  0.25032091  0.41935364  1
  O  O134  1  0.12835831  0.24858108  0.66603597  1
  O  O135  1  0.12091739  0.24850333  0.91159326  1
  O  O136  1  0.12378424  0.50647598  0.16183474  1
  O  O137  1  0.11811148  0.50487812  0.40733927  1
  O  O138  1  0.12133458  0.49330515  0.66710914  1
  O  O139  1  0.12057805  0.50156451  0.90751767  1
  O  O140  1  0.12431847  0.74244780  0.16142857  1
  O  O141  1  0.12405348  0.75388020  0.41736688  1
  O  O142  1  0.12171476  0.74450469  0.66479759  1
  O  O143  1  0.11993179  0.74861595  0.90240562  1
  O  O144  1  0.37859858  0.00757245  0.15849973  1
  O  O145  1  0.37371940  0.00213319  0.40478074  1
  O  O146  1  0.37564051  -0.00034006  0.66300967  1
  O  O147  1  0.38260116  0.00101160  0.91403859  1
  O  O148  1  0.37722394  0.25258645  0.16300654  1
  O  O149  1  0.37512119  0.26076619  0.41570937  1
  O  O150  1  0.37760359  0.24440139  0.65897472  1
  O  O151  1  0.38273764  0.25003916  0.91215757  1
  O  O152  1  0.37540143  0.49833134  0.16592961  1
  O  O153  1  0.37316902  0.49737482  0.42103548  1
  O  O154  1  0.37467842  0.50063196  0.67329075  1
  O  O155  1  0.38091424  0.49735784  0.90314729  1
  O  O156  1  0.37580781  0.74238544  0.16054899  1
  O  O157  1  0.36905148  0.74566660  0.41907983  1
  O  O158  1  0.37407034  0.75564800  0.66099240  1
  O  O159  1  0.38115342  0.74962015  0.91192161  1
  O  O160  1  0.62446785  0.00485922  0.17306397  1
  O  O161  1  0.62280689  0.00174140  0.41530910  1
  O  O162  1  0.62216883  -0.00044906  0.65102027  1
  O  O163  1  0.62819652  0.00164953  0.91023789  1
  O  O164  1  0.62448527  0.24859770  0.17270686  1
  O  O165  1  0.62242331  0.26040348  0.41891060  1
  O  O166  1  0.62523518  0.25735703  0.65472650  1
  O  O167  1  0.62800455  0.24935280  0.91201844  1
  O  O168  1  0.62524437  0.50560729  0.16614511  1
  O  O169  1  0.62798498  0.50315334  0.41914011  1
  O  O170  1  0.63113251  0.50030275  0.66610389  1
  O  O171  1  0.62992721  0.49249062  0.90488680  1
  O  O172  1  0.62559305  0.74239439  0.16573232  1
  O  O173  1  0.62723127  0.74002859  0.41579227  1
  O  O174  1  0.62997877  0.74265117  0.65704292  1
  O  O175  1  0.62999284  0.75603071  0.90615146  1
  O  O176  1  0.87243629  -0.00015162  0.16938845  1
  O  O177  1  0.87858893  -0.00110572  0.41775916  1
  O  O178  1  0.87643539  0.00366339  0.65614094  1
  O  O179  1  0.86544960  0.00912068  0.91096090  1
  O  O180  1  0.87172409  0.25038637  0.16542340  1
  O  O181  1  0.87571906  0.24907361  0.41498700  1
  O  O182  1  0.87421469  0.25360501  0.66292942  1
  O  O183  1  0.86617639  0.24025186  0.91339639  1
  O  O184  1  0.87326116  0.49410184  0.16369404  1
  O  O185  1  0.87881749  0.49918607  0.41653318  1
  O  O186  1  0.87531063  0.49935768  0.66701900  1
  O  O187  1  0.86848434  0.50418143  0.90924532  1
  O  O188  1  0.87252212  0.75762424  0.16333220  1
  O  O189  1  0.87916886  0.75491336  0.41620532  1
  O  O190  1  0.87699524  0.74014042  0.65880344  1
  O  O191  1  0.86899919  0.74592293  0.91039104  1
  O  O192  1  -0.00829897  0.12473399  0.16480349  1
  O  O193  1  -0.00231472  0.12490786  0.41747575  1
  O  O194  1  0.00589074  0.12997506  0.65708329  1
  O  O195  1  -0.01020774  0.12448221  0.90128868  1
  O  O196  1  -0.00927481  0.37398923  0.16369759  1
  O  O197  1  -0.00363263  0.37331495  0.41689628  1
  O  O198  1  0.00253428  0.37117326  0.66584529  1
  O  O199  1  -0.00669634  0.37394769  0.91303666  1
  O  O200  1  0.00388224  0.62527508  0.16016452  1
  O  O201  1  0.00683333  0.62989898  0.42003097  1
  O  O202  1  -0.00586797  0.61842463  0.66657663  1
  O  O203  1  -0.00968720  0.62425885  0.90573482  1
  O  O204  1  -0.00812047  0.87640325  0.16542799  1
  O  O205  1  0.00388450  0.87580267  0.41873798  1
  O  O206  1  -0.00097366  0.87535397  0.66385200  1
  O  O207  1  -0.00570134  0.87619084  0.90921733  1
  O  O208  1  0.25935326  0.12749145  0.15937457  1
  O  O209  1  0.25925155  0.13078848  0.41682235  1
  O  O210  1  0.25497084  0.12584942  0.66683062  1
  O  O211  1  0.25254574  0.12506319  0.90802497  1
  O  O212  1  0.25850519  0.37660450  0.16199012  1
  O  O213  1  0.25385260  0.37909461  0.41408152  1
  O  O214  1  0.24252721  0.37415832  0.66827672  1
  O  O215  1  0.25081273  0.37340203  0.90221230  1
  O  O216  1  0.24743116  0.62222788  0.16023848  1
  O  O217  1  0.23785908  0.62467123  0.41753225  1
  O  O218  1  0.24246278  0.62145797  0.66815161  1
  O  O219  1  0.25121400  0.62465518  0.90052721  1
  O  O220  1  0.25071289  0.87370390  0.16083979  1
  O  O221  1  0.24334511  0.87386023  0.41697929  1
  O  O222  1  0.25822499  0.87767823  0.66968445  1
  O  O223  1  0.24953381  0.87450469  0.90163233  1
  O  O224  1  0.49595308  0.12943911  0.16920145  1
  O  O225  1  0.48563485  0.13142140  0.41895772  1
  O  O226  1  0.49500730  0.12402333  0.65690564  1
  O  O227  1  0.51345848  0.12593854  0.91475694  1
  O  O228  1  0.49341687  0.37684592  0.16807305  1
  O  O229  1  0.49711832  0.38091796  0.41698523  1
  O  O230  1  0.51106466  0.38023090  0.66164357  1
  O  O231  1  0.51050756  0.37238474  0.90919346  1
  O  O232  1  0.50307778  0.62224668  0.16240651  1
  O  O233  1  0.50617272  0.62210055  0.41462693  1
  O  O234  1  0.50859921  0.62196064  0.65851510  1
  O  O235  1  0.50611388  0.62372223  0.90847510  1
  O  O236  1  0.50038589  0.87382078  0.16825875  1
  O  O237  1  0.49488844  0.87081237  0.41671738  1
  O  O238  1  0.49448165  0.87349825  0.65651388  1
  O  O239  1  0.51305439  0.87722674  0.91198410  1
  O  O240  1  0.75099198  0.12573288  0.17191378  1
  O  O241  1  0.75759035  0.12589042  0.41587137  1
  O  O242  1  0.74745350  0.12854005  0.65468110  1
  O  O243  1  0.74248021  0.12572606  0.91756497  1
  O  O244  1  0.75449521  0.37441236  0.16841485  1
  O  O245  1  0.75189331  0.37735664  0.41688897  1
  O  O246  1  0.74628530  0.37657663  0.66291413  1
  O  O247  1  0.74590595  0.37096655  0.91464633  1
  O  O248  1  0.74409900  0.62446366  0.16606497  1
  O  O249  1  0.74737258  0.62342754  0.41539365  1
  O  O250  1  0.75688234  0.62111664  0.66280991  1
  O  O251  1  0.75123443  0.62505468  0.91646662  1
  O  O252  1  0.75482250  0.87782223  0.17145528  1
  O  O253  1  0.75781457  0.87503932  0.41493441  1
  O  O254  1  0.74874406  0.87170698  0.65378956  1
  O  O255  1  0.74574140  0.87884737  0.91338025  1
  O  O256  1  0.11991349  0.12435995  0.03429775  1
  O  O257  1  0.12577203  0.12801271  0.28804950  1
  O  O258  1  0.13126525  0.12753711  0.55186422  1
  O  O259  1  0.13003702  0.12915529  0.78021933  1
  O  O260  1  0.11622016  0.37392308  0.03662454  1
  O  O261  1  0.12375936  0.36804393  0.28449617  1
  O  O262  1  0.12569125  0.37533322  0.55478812  1
  O  O263  1  0.11552701  0.36837515  0.78134285  1
  O  O264  1  0.12622582  0.62539070  0.04437571  1
  O  O265  1  0.12238841  0.62907523  0.29895681  1
  O  O266  1  0.12117146  0.62049710  0.56241841  1
  O  O267  1  0.11753362  0.61452460  0.77205652  1
  O  O268  1  0.11500451  0.87654022  0.03359496  1
  O  O269  1  0.12403529  0.87295264  0.30123569  1
  O  O270  1  0.13249083  0.87876992  0.54799878  1
  O  O271  1  0.11823734  0.87809359  0.77358453  1
  O  O272  1  0.38175329  0.12838059  0.04718140  1
  O  O273  1  0.37400061  0.12738205  0.29801623  1
  O  O274  1  0.36819568  0.12181504  0.54892701  1
  O  O275  1  0.38665443  0.12289899  0.78248772  1
  O  O276  1  0.38055917  0.37316059  0.04831378  1
  O  O277  1  0.37476493  0.37890652  0.30113540  1
  O  O278  1  0.37292513  0.38592870  0.54730627  1
  O  O279  1  0.38718251  0.36747490  0.77395915  1
  O  O280  1  0.37761034  0.61871087  0.04506998  1
  O  O281  1  0.37087409  0.61663175  0.28886766  1
  O  O282  1  0.36959559  0.61390637  0.54531919  1
  O  O283  1  0.38087203  0.63570084  0.77420098  1
  O  O284  1  0.38597350  0.87180187  0.03179816  1
  O  O285  1  0.37369193  0.86624867  0.28522108  1
  O  O286  1  0.36615212  0.87800079  0.54795134  1
  O  O287  1  0.38567266  0.86872227  0.78495219  1
  O  O288  1  0.62415632  0.12468345  0.05442288  1
  O  O289  1  0.62406875  0.13504400  0.29758290  1
  O  O290  1  0.62425448  0.13058228  0.52369520  1
  O  O291  1  0.62774221  0.12282098  0.79656916  1
  O  O292  1  0.62579585  0.36989012  0.04068415  1
  O  O293  1  0.62444855  0.37949139  0.30036190  1
  O  O294  1  0.62694424  0.38087593  0.54564553  1
  O  O295  1  0.62986526  0.36888112  0.79502025  1
  O  O296  1  0.62675107  0.62422805  0.04826826  1
  O  O297  1  0.62590914  0.62201891  0.30008148  1
  O  O298  1  0.63167923  0.61831989  0.55144023  1
  O  O299  1  0.63672906  0.62703835  0.77790016  1
  O  O300  1  0.62848373  0.88101858  0.04080296  1
  O  O301  1  0.62605172  0.87399644  0.29380182  1
  O  O302  1  0.62558323  0.86974990  0.52425472  1
  O  O303  1  0.62959054  0.87492529  0.79450079  1
  O  O304  1  0.87047646  0.12243343  0.05123214  1
  O  O305  1  0.87754322  0.12422058  0.30590284  1
  O  O306  1  0.87658841  0.12955151  0.52923504  1
  O  O307  1  0.86561476  0.12676885  0.79391202  1
  O  O308  1  0.86979160  0.37048066  0.04921634  1
  O  O309  1  0.87542702  0.37713529  0.29786020  1
  O  O310  1  0.87730594  0.37787324  0.55202881  1
  O  O311  1  0.87180797  0.36654539  0.78208064  1
  O  O312  1  0.86374796  0.62484479  0.03788809  1
  O  O313  1  0.88029377  0.62506285  0.28700122  1
  O  O314  1  0.87993858  0.61982269  0.54764107  1
  O  O315  1  0.86771331  0.62596483  0.79601329  1
  O  O316  1  0.87087968  0.88165135  0.05074926  1
  O  O317  1  0.87973643  0.87617047  0.30605100  1
  O  O318  1  0.88369093  0.87191255  0.53188782  1
  O  O319  1  0.87633462  0.87686169  0.78051282  1
