# generated using pymatgen
data_VFe(PbO3)2
_symmetry_space_group_name_H-M   'P 1'
_cell_length_a   15.40282815
_cell_length_b   15.39592088
_cell_length_c   18.54257073
_cell_angle_alpha   89.97614057
_cell_angle_beta   90.06884725
_cell_angle_gamma   90.01594017
_symmetry_Int_Tables_number   1
_chemical_formula_structural   VFe(PbO3)2
_chemical_formula_sum   'V32 Fe32 Pb64 O192'
_cell_volume   4397.19491282
_cell_formula_units_Z   32
loop_
 _symmetry_equiv_pos_site_id
 _symmetry_equiv_pos_as_xyz
  1  'x, y, z'
loop_
 _atom_site_type_symbol
 _atom_site_label
 _atom_site_symmetry_multiplicity
 _atom_site_fract_x
 _atom_site_fract_y
 _atom_site_fract_z
 _atom_site_occupancy
  V  V0  1  0.63099260  0.12411730  0.14993323  1
  V  V1  1  0.12810517  0.62009488  0.13693320  1
  V  V2  1  0.62488579  0.86285410  0.63342343  1
  V  V3  1  0.36987175  0.62612743  0.38700268  1
  V  V4  1  0.62380756  0.11130215  0.63252056  1
  V  V5  1  0.37825677  0.37924588  0.63795554  1
  V  V6  1  0.87322635  0.37374805  0.89292252  1
  V  V7  1  0.62779407  0.62434681  0.89855780  1
  V  V8  1  0.37098024  0.37431450  0.14382225  1
  V  V9  1  0.88204194  0.12268753  0.14555906  1
  V  V10  1  0.87668249  0.12458648  0.38643896  1
  V  V11  1  0.37509085  0.12270258  0.14489895  1
  V  V12  1  0.62472425  0.62144506  0.63451564  1
  V  V13  1  0.37130339  0.87644680  0.38927816  1
  V  V14  1  0.62691784  0.12580906  0.89225748  1
  V  V15  1  0.63190379  0.62243577  0.15340234  1
  V  V16  1  0.12673894  0.87378644  0.13907702  1
  V  V17  1  0.37764520  0.12902735  0.88485819  1
  V  V18  1  0.87509534  0.62455462  0.63727242  1
  V  V19  1  0.12605695  0.37301164  0.39617975  1
  V  V20  1  0.12701666  0.37009990  0.13808783  1
  V  V21  1  0.37063797  0.37785093  0.38765113  1
  V  V22  1  0.37760239  0.37440955  0.88988538  1
  V  V23  1  0.38041059  0.62626070  0.64057723  1
  V  V24  1  0.37915756  0.62216789  0.89104301  1
  V  V25  1  0.37129729  0.62813948  0.14225047  1
  V  V26  1  0.12399171  0.62484080  0.39089208  1
  V  V27  1  0.12654946  0.12354088  0.14096030  1
  V  V28  1  0.62174010  0.87347634  0.14585725  1
  V  V29  1  0.62690577  0.37770158  0.63522164  1
  V  V30  1  0.87122408  0.12756448  0.88609461  1
  V  V31  1  0.12078137  0.12659933  0.88475111  1
  Fe  Fe32  1  0.12519319  0.12449761  0.39856339  1
  Fe  Fe33  1  0.87242008  0.87658142  0.88617766  1
  Fe  Fe34  1  0.87769786  0.87985208  0.14719193  1
  Fe  Fe35  1  0.38142787  0.12727110  0.63253914  1
  Fe  Fe36  1  0.62149956  0.37202462  0.15109567  1
  Fe  Fe37  1  0.87881208  0.37047696  0.14496032  1
  Fe  Fe38  1  0.87207193  0.62398403  0.88814916  1
  Fe  Fe39  1  0.38078442  0.87442558  0.63321927  1
  Fe  Fe40  1  0.12453872  0.37393098  0.88484849  1
  Fe  Fe41  1  0.62218095  0.37454191  0.37358970  1
  Fe  Fe42  1  0.12536226  0.87322768  0.62904038  1
  Fe  Fe43  1  0.62611834  0.37565828  0.89406113  1
  Fe  Fe44  1  0.87053343  0.87275401  0.63202368  1
  Fe  Fe45  1  0.37935154  0.87623287  0.88745149  1
  Fe  Fe46  1  0.12462601  0.87459669  0.88043077  1
  Fe  Fe47  1  0.62414577  0.62614275  0.36994938  1
  Fe  Fe48  1  0.87825723  0.62440207  0.37346407  1
  Fe  Fe49  1  0.87867575  0.37643822  0.38632946  1
  Fe  Fe50  1  0.62605858  0.87384349  0.89044952  1
  Fe  Fe51  1  0.62377168  0.12341426  0.38032267  1
  Fe  Fe52  1  0.37181107  0.87756905  0.13595793  1
  Fe  Fe53  1  0.12609816  0.62438627  0.63901774  1
  Fe  Fe54  1  0.12485276  0.12675004  0.62607448  1
  Fe  Fe55  1  0.86996558  0.12613069  0.63087776  1
  Fe  Fe56  1  0.62246758  0.87431313  0.37984253  1
  Fe  Fe57  1  0.12691593  0.87307706  0.39694387  1
  Fe  Fe58  1  0.87138611  0.37816338  0.62587168  1
  Fe  Fe59  1  0.12445670  0.62231556  0.88099846  1
  Fe  Fe60  1  0.88081702  0.62492640  0.14536664  1
  Fe  Fe61  1  0.37355639  0.12698173  0.39034297  1
  Fe  Fe62  1  0.12223148  0.37796158  0.62991323  1
  Fe  Fe63  1  0.87648330  0.87340320  0.37926304  1
  Pb  Pb64  1  -0.00470467  -0.00953370  -0.00200969  1
  Pb  Pb65  1  0.01859305  -0.00375672  0.26377811  1
  Pb  Pb66  1  -0.00000970  -0.00454341  0.49902594  1
  Pb  Pb67  1  0.00078989  -0.00240783  0.73381213  1
  Pb  Pb68  1  -0.00599814  0.25231785  0.00057990  1
  Pb  Pb69  1  0.00294979  0.24773367  0.25646945  1
  Pb  Pb70  1  -0.01252250  0.24582045  0.50583314  1
  Pb  Pb71  1  -0.00058199  0.25425796  0.73512738  1
  Pb  Pb72  1  -0.00474959  0.50536665  -0.00041839  1
  Pb  Pb73  1  -0.00784518  0.49688250  0.25283734  1
  Pb  Pb74  1  0.00395083  0.49966228  0.50032049  1
  Pb  Pb75  1  0.00731082  0.49909201  0.74747294  1
  Pb  Pb76  1  -0.00193875  0.74649414  -0.00766218  1
  Pb  Pb77  1  -0.00519843  0.75434297  0.25214462  1
  Pb  Pb78  1  -0.00781888  0.76070866  0.49963982  1
  Pb  Pb79  1  0.00610817  0.75813082  0.74603321  1
  Pb  Pb80  1  0.25436558  -0.00347819  -0.00677219  1
  Pb  Pb81  1  0.24293106  0.00497116  0.26032078  1
  Pb  Pb82  1  0.24417926  0.00277214  0.50348602  1
  Pb  Pb83  1  0.25043541  -0.00238068  0.73459437  1
  Pb  Pb84  1  0.25105523  0.24601746  -0.00492107  1
  Pb  Pb85  1  0.24909031  0.23847055  0.25843202  1
  Pb  Pb86  1  0.24933982  0.24225955  0.50451898  1
  Pb  Pb87  1  0.24572071  0.25069793  0.73880345  1
  Pb  Pb88  1  0.24757606  0.49820045  -0.00461276  1
  Pb  Pb89  1  0.24671193  0.49919911  0.25213899  1
  Pb  Pb90  1  0.24173695  0.50200172  0.50851544  1
  Pb  Pb91  1  0.24041941  0.49967888  0.75235460  1
  Pb  Pb92  1  0.25006688  0.75537664  -0.00856780  1
  Pb  Pb93  1  0.24206091  0.76163856  0.25373469  1
  Pb  Pb94  1  0.24211287  0.74836342  0.50921379  1
  Pb  Pb95  1  0.24258687  0.75974521  0.74772510  1
  Pb  Pb96  1  0.49680724  -0.00172895  0.00073540  1
  Pb  Pb97  1  0.50290072  -0.00018443  0.25696612  1
  Pb  Pb98  1  0.49407739  -0.00115979  0.49551959  1
  Pb  Pb99  1  0.49642669  -0.01077960  0.75311054  1
  Pb  Pb100  1  0.50766599  0.25382774  0.00691380  1
  Pb  Pb101  1  0.49270336  0.23841689  0.25809085  1
  Pb  Pb102  1  0.50156240  0.24299292  0.49345341  1
  Pb  Pb103  1  0.50984123  0.25766837  0.74966918  1
  Pb  Pb104  1  0.50833556  0.49434381  0.01020228  1
  Pb  Pb105  1  0.50231501  0.50013830  0.25358120  1
  Pb  Pb106  1  0.50437001  0.50008464  0.48884687  1
  Pb  Pb107  1  0.50777225  0.49689705  0.75372408  1
  Pb  Pb108  1  0.49829464  0.75397932  0.00482982  1
  Pb  Pb109  1  0.50298868  0.75323438  0.25273916  1
  Pb  Pb110  1  0.49688212  0.75224086  0.49428590  1
  Pb  Pb111  1  0.50440133  0.75832616  0.75625124  1
  Pb  Pb112  1  0.75547096  -0.00505509  0.00415098  1
  Pb  Pb113  1  0.74454799  -0.00465882  0.25747023  1
  Pb  Pb114  1  0.75435613  -0.00448993  0.48953965  1
  Pb  Pb115  1  0.75540427  -0.01378708  0.75015364  1
  Pb  Pb116  1  0.74921186  0.26125787  0.01207697  1
  Pb  Pb117  1  0.74810407  0.25551491  0.25608001  1
  Pb  Pb118  1  0.75307759  0.25370794  0.48997986  1
  Pb  Pb119  1  0.75004825  0.25471785  0.74399864  1
  Pb  Pb120  1  0.76156460  0.49949051  0.01388879  1
  Pb  Pb121  1  0.76052520  0.48557590  0.25485921  1
  Pb  Pb122  1  0.75222345  0.49980806  0.47914721  1
  Pb  Pb123  1  0.75414510  0.50560190  0.75081958  1
  Pb  Pb124  1  0.76642409  0.75390923  0.00837176  1
  Pb  Pb125  1  0.76165203  0.75354920  0.25338628  1
  Pb  Pb126  1  0.75290143  0.74869828  0.48158020  1
  Pb  Pb127  1  0.76095169  0.74632385  0.75689983  1
  O  O128  1  0.12749340  0.00104913  0.17003137  1
  O  O129  1  0.12704339  -0.00164996  0.41997186  1
  O  O130  1  0.12631388  0.00051401  0.65329196  1
  O  O131  1  0.12555155  0.01132579  0.90935448  1
  O  O132  1  0.12571175  0.24602282  0.16704776  1
  O  O133  1  0.12902277  0.25793772  0.41187222  1
  O  O134  1  0.12737031  0.25316408  0.65667622  1
  O  O135  1  0.12528697  0.24471311  0.91509229  1
  O  O136  1  0.13075041  0.50120092  0.15733139  1
  O  O137  1  0.13065350  0.50395956  0.41627102  1
  O  O138  1  0.12747874  0.49995694  0.66557034  1
  O  O139  1  0.12724402  0.49744541  0.91611612  1
  O  O140  1  0.12963849  0.75581050  0.15707297  1
  O  O141  1  0.13357644  0.74051124  0.41304987  1
  O  O142  1  0.12758027  0.74806942  0.66293524  1
  O  O143  1  0.12744972  0.74791026  0.91121055  1
  O  O144  1  0.37100810  0.00657553  0.16492107  1
  O  O145  1  0.37483480  -0.00690679  0.40679217  1
  O  O146  1  0.38435448  0.00175308  0.66175954  1
  O  O147  1  0.37830342  0.00815716  0.91235621  1
  O  O148  1  0.37043166  0.24702590  0.16975020  1
  O  O149  1  0.37095394  0.26235391  0.41208893  1
  O  O150  1  0.38370072  0.26127286  0.66267782  1
  O  O151  1  0.37777203  0.24991398  0.91848335  1
  O  O152  1  0.36298506  0.50334630  0.16660002  1
  O  O153  1  0.37087569  0.49997795  0.41297063  1
  O  O154  1  0.38316320  0.49750387  0.66712450  1
  O  O155  1  0.37866375  0.49990273  0.91813465  1
  O  O156  1  0.36606182  0.74645190  0.16343328  1
  O  O157  1  0.37186263  0.74353136  0.40985247  1
  O  O158  1  0.38549862  0.74137811  0.66228769  1
  O  O159  1  0.37985294  0.74151211  0.91256116  1
  O  O160  1  0.61982861  0.00196792  0.16775464  1
  O  O161  1  0.62245539  -0.00173856  0.41195461  1
  O  O162  1  0.62243876  -0.00223858  0.64485874  1
  O  O163  1  0.62442016  0.00957245  0.91745872  1
  O  O164  1  0.61944452  0.24018131  0.16951808  1
  O  O165  1  0.62277338  0.25110854  0.40292426  1
  O  O166  1  0.62401906  0.26372068  0.65851459  1
  O  O167  1  0.62491597  0.24449200  0.92174475  1
  O  O168  1  0.61827438  0.50584835  0.16408835  1
  O  O169  1  0.61830493  0.50173743  0.40111788  1
  O  O170  1  0.62323214  0.49898972  0.66527236  1
  O  O171  1  0.62393339  0.50488966  0.92668313  1
  O  O172  1  0.61827197  0.75430681  0.16493049  1
  O  O173  1  0.61887567  0.74719231  0.40339665  1
  O  O174  1  0.62145490  0.74805091  0.65784421  1
  O  O175  1  0.62246833  0.74095470  0.92234511  1
  O  O176  1  0.87271912  0.00957084  0.17093625  1
  O  O177  1  0.87573594  0.00439035  0.40663324  1
  O  O178  1  0.86594702  -0.00007074  0.66048620  1
  O  O179  1  0.87372028  0.00813697  0.91521761  1
  O  O180  1  0.87677341  0.23923909  0.17332912  1
  O  O181  1  0.87683001  0.24678682  0.40884006  1
  O  O182  1  0.86617426  0.25306229  0.66146577  1
  O  O183  1  0.87370908  0.24995801  0.91945094  1
  O  O184  1  0.88022484  0.49785497  0.16589795  1
  O  O185  1  0.88074808  0.50304141  0.40727696  1
  O  O186  1  0.86808255  0.50689415  0.66146365  1
  O  O187  1  0.87125008  0.49171892  0.91635700  1
  O  O188  1  0.87741484  0.75293342  0.16350365  1
  O  O189  1  0.87759033  0.74610821  0.40581673  1
  O  O190  1  0.86580631  0.74223355  0.66319876  1
  O  O191  1  0.87218946  0.75012007  0.91641689  1
  O  O192  1  0.00038108  0.12366815  0.16750278  1
  O  O193  1  -0.00661513  0.12622156  0.41415742  1
  O  O194  1  -0.00258919  0.12727910  0.65660322  1
  O  O195  1  0.00137446  0.12919832  0.90757563  1
  O  O196  1  0.01011976  0.37105529  0.16737788  1
  O  O197  1  0.00939007  0.37958247  0.41215335  1
  O  O198  1  -0.00455214  0.37874313  0.65624396  1
  O  O199  1  -0.00745932  0.37153132  0.91444417  1
  O  O200  1  0.01578779  0.62822354  0.16170535  1
  O  O201  1  0.00953250  0.62337258  0.40845415  1
  O  O202  1  -0.00904521  0.62477024  0.65634609  1
  O  O203  1  -0.00141652  0.62065702  0.91316777  1
  O  O204  1  0.01134997  0.88080612  0.16441894  1
  O  O205  1  -0.00069807  0.87323425  0.41208751  1
  O  O206  1  -0.00323087  0.87161010  0.65626180  1
  O  O207  1  -0.00007381  0.87842592  0.91325527  1
  O  O208  1  0.24997774  0.12578967  0.16765759  1
  O  O209  1  0.25229748  0.12721295  0.41931556  1
  O  O210  1  0.25476806  0.12928410  0.65714044  1
  O  O211  1  0.25048773  0.12905706  0.90983122  1
  O  O212  1  0.24657379  0.37179949  0.17222236  1
  O  O213  1  0.25094317  0.38020576  0.41828961  1
  O  O214  1  0.26138173  0.37856868  0.65679815  1
  O  O215  1  0.25560642  0.37210441  0.91510809  1
  O  O216  1  0.24381220  0.62777195  0.17043647  1
  O  O217  1  0.25364340  0.62198277  0.41832652  1
  O  O218  1  0.26543867  0.62137512  0.66250857  1
  O  O219  1  0.26103160  0.62125745  0.91115376  1
  O  O220  1  0.24414726  0.87999094  0.16731904  1
  O  O221  1  0.25883287  0.87004430  0.41798648  1
  O  O222  1  0.25478492  0.87221894  0.65641150  1
  O  O223  1  0.25184195  0.87792826  0.91023013  1
  O  O224  1  0.49275749  0.12532263  0.16577417  1
  O  O225  1  0.49855989  0.12666162  0.41198458  1
  O  O226  1  0.51417121  0.13209659  0.66456263  1
  O  O227  1  0.50368955  0.12811470  0.91576213  1
  O  O228  1  0.48761093  0.37698991  0.16728842  1
  O  O229  1  0.48995854  0.37951737  0.40453962  1
  O  O230  1  0.50370969  0.38041272  0.66633893  1
  O  O231  1  0.49792161  0.37420482  0.92354772  1
  O  O232  1  0.48358870  0.62456954  0.16594524  1
  O  O233  1  0.48780564  0.62189775  0.40506676  1
  O  O234  1  0.50292102  0.62012222  0.66775662  1
  O  O235  1  0.49960752  0.62112473  0.92344930  1
  O  O236  1  0.49956791  0.87737037  0.16461453  1
  O  O237  1  0.49057871  0.86929619  0.40897300  1
  O  O238  1  0.51060364  0.87362822  0.66568816  1
  O  O239  1  0.50284597  0.87580135  0.92279355  1
  O  O240  1  0.74841527  0.12411582  0.16751849  1
  O  O241  1  0.75571081  0.12503270  0.40465609  1
  O  O242  1  0.73374497  0.12931808  0.66396305  1
  O  O243  1  0.74700069  0.12761640  0.91631809  1
  O  O244  1  0.75063476  0.37069011  0.16812951  1
  O  O245  1  0.74916243  0.37763972  0.40008818  1
  O  O246  1  0.74320194  0.38172948  0.65714929  1
  O  O247  1  0.75455491  0.37158716  0.92159105  1
  O  O248  1  0.74610225  0.62710040  0.16228046  1
  O  O249  1  0.74940194  0.62297909  0.39201803  1
  O  O250  1  0.74408798  0.62300128  0.66471536  1
  O  O251  1  0.74325437  0.62212400  0.92326374  1
  O  O252  1  0.74029319  0.87863772  0.16639915  1
  O  O253  1  0.75006574  0.87398746  0.40373416  1
  O  O254  1  0.73806430  0.87409703  0.66008875  1
  O  O255  1  0.74822700  0.87732250  0.92282674  1
  O  O256  1  0.12436046  0.12131996  0.05041443  1
  O  O257  1  0.12663308  0.11818236  0.29525713  1
  O  O258  1  0.12691538  0.12914695  0.52487025  1
  O  O259  1  0.12454264  0.12995047  0.79447522  1
  O  O260  1  0.12882907  0.36791130  0.04713401  1
  O  O261  1  0.13017115  0.37896308  0.30484020  1
  O  O262  1  0.12564892  0.38739545  0.52978762  1
  O  O263  1  0.12509863  0.37913460  0.78559855  1
  O  O264  1  0.13275881  0.62289057  0.04609051  1
  O  O265  1  0.12922057  0.62212463  0.29964279  1
  O  O266  1  0.13305750  0.62130649  0.53834240  1
  O  O267  1  0.12797119  0.61725724  0.78043623  1
  O  O268  1  0.12815999  0.88157597  0.04817669  1
  O  O269  1  0.13171864  0.87974095  0.29466293  1
  O  O270  1  0.12585057  0.86573992  0.52708553  1
  O  O271  1  0.12497965  0.87022552  0.78053734  1
  O  O272  1  0.37286740  0.12745627  0.05402362  1
  O  O273  1  0.37080558  0.13330435  0.28881685  1
  O  O274  1  0.38551482  0.13076355  0.53241735  1
  O  O275  1  0.38034773  0.13230772  0.79446968  1
  O  O276  1  0.36861644  0.37272153  0.05297628  1
  O  O277  1  0.36312999  0.37891888  0.29659768  1
  O  O278  1  0.38452811  0.38131612  0.54742188  1
  O  O279  1  0.38104810  0.37507428  0.79915113  1
  O  O280  1  0.36897942  0.62514210  0.05146867  1
  O  O281  1  0.36292413  0.62393214  0.29624008  1
  O  O282  1  0.38250375  0.62322980  0.54955903  1
  O  O283  1  0.38525762  0.61870127  0.80098601  1
  O  O284  1  0.37124609  0.88008999  0.03652105  1
  O  O285  1  0.36675736  0.87102851  0.29741602  1
  O  O286  1  0.38938317  0.86975014  0.53404648  1
  O  O287  1  0.39310059  0.87422808  0.78735305  1
  O  O288  1  0.62595784  0.12317717  0.05902859  1
  O  O289  1  0.61715153  0.11683901  0.27919189  1
  O  O290  1  0.62328903  0.12786055  0.54176576  1
  O  O291  1  0.62628486  0.12739391  0.80176667  1
  O  O292  1  0.62088078  0.36734346  0.04864303  1
  O  O293  1  0.62188799  0.37823304  0.27207601  1
  O  O294  1  0.62132966  0.38104502  0.54438455  1
  O  O295  1  0.62092785  0.37609101  0.79487469  1
  O  O296  1  0.61565120  0.62867423  0.06300236  1
  O  O297  1  0.61056702  0.62909711  0.26684602  1
  O  O298  1  0.62303592  0.61955674  0.54379123  1
  O  O299  1  0.62624368  0.62226587  0.80764455  1
  O  O300  1  0.62241822  0.87740869  0.05472435  1
  O  O301  1  0.61618831  0.88086208  0.27931176  1
  O  O302  1  0.62068618  0.86265761  0.54249315  1
  O  O303  1  0.62141563  0.87335154  0.79071539  1
  O  O304  1  0.87975229  0.12601071  0.05455487  1
  O  O305  1  0.88167309  0.12656858  0.29550927  1
  O  O306  1  0.86811026  0.13309938  0.53137713  1
  O  O307  1  0.86634186  0.13068293  0.79576058  1
  O  O308  1  0.87577174  0.36469526  0.04416836  1
  O  O309  1  0.88242682  0.37645592  0.28324526  1
  O  O310  1  0.87215085  0.37231246  0.52554736  1
  O  O311  1  0.86935590  0.37179030  0.80229037  1
  O  O312  1  0.87590482  0.61869319  0.04294388  1
  O  O313  1  0.88736502  0.62824570  0.27166304  1
  O  O314  1  0.86959027  0.62532213  0.54655900  1
  O  O315  1  0.85973471  0.62364150  0.78869567  1
  O  O316  1  0.87388523  0.88752997  0.04579396  1
  O  O317  1  0.87590595  0.86981345  0.27652239  1
  O  O318  1  0.86978763  0.86754076  0.53215340  1
  O  O319  1  0.86055777  0.87498961  0.78575614  1
