# generated using pymatgen
data_VFe(PbO3)2
_symmetry_space_group_name_H-M   'P 1'
_cell_length_a   15.38950706
_cell_length_b   15.39029644
_cell_length_c   18.50688544
_cell_angle_alpha   89.98233705
_cell_angle_beta   90.01350402
_cell_angle_gamma   90.00471110
_symmetry_Int_Tables_number   1
_chemical_formula_structural   VFe(PbO3)2
_chemical_formula_sum   'V32 Fe32 Pb64 O192'
_cell_volume   4383.33836719
_cell_formula_units_Z   32
loop_
 _symmetry_equiv_pos_site_id
 _symmetry_equiv_pos_as_xyz
  1  'x, y, z'
loop_
 _atom_site_type_symbol
 _atom_site_label
 _atom_site_symmetry_multiplicity
 _atom_site_fract_x
 _atom_site_fract_y
 _atom_site_fract_z
 _atom_site_occupancy
  V  V0  1  0.37659650  0.62303642  0.89216222  1
  V  V1  1  0.87030864  0.62331673  0.38660616  1
  V  V2  1  0.12510373  0.37430428  0.14329870  1
  V  V3  1  0.37750017  0.37873282  0.63747269  1
  V  V4  1  0.87621060  0.37376459  0.14415110  1
  V  V5  1  0.62196102  0.12579115  0.63180139  1
  V  V6  1  0.37374748  0.37424204  0.14633525  1
  V  V7  1  0.87675376  0.37268088  0.88953693  1
  V  V8  1  0.87667905  0.12431208  0.89171026  1
  V  V9  1  0.37490618  0.12682907  0.88974835  1
  V  V10  1  0.87772017  0.62685279  0.63924150  1
  V  V11  1  0.87566444  0.87386408  0.88963503  1
  V  V12  1  0.37723832  0.62840851  0.63860308  1
  V  V13  1  0.12411880  0.37128592  0.89134186  1
  V  V14  1  0.12518684  0.87169856  0.63375504  1
  V  V15  1  0.62510521  0.12463206  0.89035281  1
  V  V16  1  0.62431325  0.62417517  0.64085923  1
  V  V17  1  0.62766589  0.12525799  0.14760581  1
  V  V18  1  0.37286238  0.87722264  0.14837871  1
  V  V19  1  0.12512143  0.12520852  0.15104763  1
  V  V20  1  0.87585074  0.87656128  0.14400480  1
  V  V21  1  0.62230745  0.62516073  0.37989588  1
  V  V22  1  0.12534861  0.12593810  0.88815400  1
  V  V23  1  0.37261788  0.62700092  0.14777639  1
  V  V24  1  0.12379690  0.37545723  0.39029444  1
  V  V25  1  0.62628976  0.37153564  0.89221610  1
  V  V26  1  0.62457695  0.62544724  0.14255617  1
  V  V27  1  0.12201287  0.62553068  0.38385228  1
  V  V28  1  0.37750549  0.12549516  0.15167427  1
  V  V29  1  0.62465743  0.87669784  0.14700894  1
  V  V30  1  0.62553148  0.12462720  0.38126438  1
  V  V31  1  0.87322515  0.62569382  0.13942625  1
  Fe  Fe32  1  0.37348869  0.87770480  0.88757904  1
  Fe  Fe33  1  0.37473258  0.37345222  0.88852539  1
  Fe  Fe34  1  0.62595291  0.37652117  0.37773574  1
  Fe  Fe35  1  0.12753487  0.12534876  0.62142137  1
  Fe  Fe36  1  0.87370584  0.87148418  0.63021728  1
  Fe  Fe37  1  0.62442014  0.87306772  0.63231811  1
  Fe  Fe38  1  0.87142802  0.37703396  0.62783866  1
  Fe  Fe39  1  0.62601261  0.62511498  0.88806626  1
  Fe  Fe40  1  0.37460469  0.87102676  0.38051714  1
  Fe  Fe41  1  0.37717789  0.12372823  0.62450948  1
  Fe  Fe42  1  0.12220884  0.62228861  0.13748038  1
  Fe  Fe43  1  0.12448954  0.87588038  0.14828246  1
  Fe  Fe44  1  0.37585116  0.87246978  0.63058352  1
  Fe  Fe45  1  0.62479154  0.87836717  0.88710078  1
  Fe  Fe46  1  0.62451242  0.37423702  0.14891652  1
  Fe  Fe47  1  0.12408366  0.37900818  0.62826185  1
  Fe  Fe48  1  0.12477500  0.12518625  0.39043485  1
  Fe  Fe49  1  0.12458511  0.87766805  0.88834048  1
  Fe  Fe50  1  0.37351928  0.62285907  0.37470498  1
  Fe  Fe51  1  0.87255794  0.12598321  0.38271944  1
  Fe  Fe52  1  0.12402338  0.87289314  0.37522817  1
  Fe  Fe53  1  0.87558770  0.87104568  0.38638990  1
  Fe  Fe54  1  0.87386164  0.12475954  0.15023546  1
  Fe  Fe55  1  0.87349799  0.12205871  0.62543049  1
  Fe  Fe56  1  0.37317394  0.38034278  0.38122460  1
  Fe  Fe57  1  0.12388334  0.62400530  0.88747473  1
  Fe  Fe58  1  0.62633264  0.87399420  0.38443929  1
  Fe  Fe59  1  0.62481468  0.37729146  0.63287785  1
  Fe  Fe60  1  0.87355653  0.62164518  0.88625997  1
  Fe  Fe61  1  0.13039858  0.62495276  0.63766669  1
  Fe  Fe62  1  0.87622819  0.37962127  0.39176362  1
  Fe  Fe63  1  0.37718765  0.12761653  0.38587236  1
  Pb  Pb64  1  0.00472421  -0.00422253  0.00659012  1
  Pb  Pb65  1  0.00004558  0.00727128  0.26142516  1
  Pb  Pb66  1  -0.00152532  0.00210183  0.48768253  1
  Pb  Pb67  1  0.00114005  0.00075459  0.73597184  1
  Pb  Pb68  1  -0.00641930  0.24095432  0.00667557  1
  Pb  Pb69  1  -0.00143801  0.24318754  0.26212541  1
  Pb  Pb70  1  -0.00698606  0.24158560  0.49637577  1
  Pb  Pb71  1  -0.00032394  0.24949602  0.73063179  1
  Pb  Pb72  1  0.00350802  0.50506768  0.00061791  1
  Pb  Pb73  1  -0.00659078  0.49408312  0.25390752  1
  Pb  Pb74  1  0.00978757  0.50245521  0.50457076  1
  Pb  Pb75  1  0.00100791  0.50315965  0.74569491  1
  Pb  Pb76  1  0.00913469  0.74699971  0.00117935  1
  Pb  Pb77  1  0.00106135  0.75514624  0.24947527  1
  Pb  Pb78  1  0.00060056  0.75305735  0.49581491  1
  Pb  Pb79  1  0.01002102  0.74769881  0.75225017  1
  Pb  Pb80  1  0.24339341  -0.00748910  0.00482641  1
  Pb  Pb81  1  0.24945271  0.01128980  0.26476902  1
  Pb  Pb82  1  0.25189563  0.00120767  0.48702213  1
  Pb  Pb83  1  0.25379295  -0.00270045  0.73938440  1
  Pb  Pb84  1  0.25041090  0.24680693  0.00110230  1
  Pb  Pb85  1  0.25064673  0.24507036  0.26164140  1
  Pb  Pb86  1  0.25170711  0.24452049  0.49502535  1
  Pb  Pb87  1  0.24917772  0.24789254  0.73639232  1
  Pb  Pb88  1  0.24670427  0.50562853  0.00294144  1
  Pb  Pb89  1  0.25517970  0.49914733  0.25266937  1
  Pb  Pb90  1  0.24293175  0.50466639  0.49818000  1
  Pb  Pb91  1  0.24680733  0.50246633  0.74939526  1
  Pb  Pb92  1  0.24191368  0.75217713  0.00197086  1
  Pb  Pb93  1  0.24591756  0.75501638  0.25047555  1
  Pb  Pb94  1  0.25536631  0.75279083  0.48956770  1
  Pb  Pb95  1  0.24817788  0.76313793  0.75600631  1
  Pb  Pb96  1  0.49919907  0.00154242  -0.00081693  1
  Pb  Pb97  1  0.49631405  -0.00450296  0.25917787  1
  Pb  Pb98  1  0.49253564  -0.00441659  0.49194069  1
  Pb  Pb99  1  0.49667600  -0.00783307  0.74304723  1
  Pb  Pb100  1  0.50743898  0.25450188  0.00686737  1
  Pb  Pb101  1  0.49668275  0.25241929  0.25716339  1
  Pb  Pb102  1  0.49983362  0.25288932  0.48949998  1
  Pb  Pb103  1  0.49465876  0.25335154  0.74581148  1
  Pb  Pb104  1  0.50571452  0.49288494  0.00492186  1
  Pb  Pb105  1  0.49366659  0.49795313  0.25396108  1
  Pb  Pb106  1  0.50148755  0.49580817  0.49050738  1
  Pb  Pb107  1  0.49725831  0.49968379  0.75326304  1
  Pb  Pb108  1  0.49952172  0.75286905  -0.00146199  1
  Pb  Pb109  1  0.49667783  0.75598057  0.25518472  1
  Pb  Pb110  1  0.49893806  0.76014493  0.49560553  1
  Pb  Pb111  1  0.50507484  0.75780545  0.75282615  1
  Pb  Pb112  1  0.75823578  0.00573965  0.00413544  1
  Pb  Pb113  1  0.75444502  -0.01069135  0.26052586  1
  Pb  Pb114  1  0.75630312  -0.00267748  0.49299627  1
  Pb  Pb115  1  0.74596514  -0.00699183  0.73974334  1
  Pb  Pb116  1  0.75399953  0.24576574  0.00715674  1
  Pb  Pb117  1  0.75799371  0.25683720  0.25949688  1
  Pb  Pb118  1  0.75378936  0.25620185  0.49309888  1
  Pb  Pb119  1  0.75184798  0.25078586  0.73781220  1
  Pb  Pb120  1  0.74589762  0.49309102  0.00119711  1
  Pb  Pb121  1  0.75118796  0.49380868  0.25416931  1
  Pb  Pb122  1  0.74738241  0.49087372  0.49993007  1
  Pb  Pb123  1  0.75075248  0.50657531  0.75119172  1
  Pb  Pb124  1  0.74776219  0.74766870  -0.00244871  1
  Pb  Pb125  1  0.75046735  0.75661547  0.25524987  1
  Pb  Pb126  1  0.74729214  0.76050198  0.50119715  1
  Pb  Pb127  1  0.74828747  0.74468466  0.75194122  1
  O  O128  1  0.12600069  0.00865123  0.17008342  1
  O  O129  1  0.12456759  -0.00330695  0.40369467  1
  O  O130  1  0.12729698  -0.00840849  0.65320962  1
  O  O131  1  0.12377042  0.00627915  0.91824296  1
  O  O132  1  0.12534709  0.25171741  0.17317376  1
  O  O133  1  0.12466077  0.25939138  0.40763720  1
  O  O134  1  0.12748036  0.25276891  0.65473616  1
  O  O135  1  0.12426720  0.25045280  0.92018827  1
  O  O136  1  0.12383884  0.49305911  0.16670085  1
  O  O137  1  0.12272284  0.50493780  0.41218145  1
  O  O138  1  0.12750001  0.50038520  0.66869987  1
  O  O139  1  0.12388929  0.49014900  0.91461666  1
  O  O140  1  0.12241219  0.74717785  0.16297229  1
  O  O141  1  0.12328611  0.74220994  0.40555234  1
  O  O142  1  0.12599693  0.75250850  0.66386110  1
  O  O143  1  0.12442011  0.75053184  0.91742753  1
  O  O144  1  0.37644690  -0.00298351  0.17026569  1
  O  O145  1  0.37778140  -0.00096280  0.40447670  1
  O  O146  1  0.37501760  -0.00120361  0.65685109  1
  O  O147  1  0.37426439  0.00845156  0.91833118  1
  O  O148  1  0.37407677  0.25276396  0.16966546  1
  O  O149  1  0.37621089  0.25561209  0.40810989  1
  O  O150  1  0.37883994  0.25780235  0.65644691  1
  O  O151  1  0.37500615  0.24619116  0.92154288  1
  O  O152  1  0.37420979  0.49557184  0.16383160  1
  O  O153  1  0.37438797  0.50383080  0.41217633  1
  O  O154  1  0.37991072  0.50023586  0.66660481  1
  O  O155  1  0.37556927  0.50272387  0.91886163  1
  O  O156  1  0.37795945  0.75360761  0.16526256  1
  O  O157  1  0.37474273  0.74337001  0.40676601  1
  O  O158  1  0.37724171  0.74228251  0.66170540  1
  O  O159  1  0.37393192  0.74191072  0.91727167  1
  O  O160  1  0.62349077  0.00233093  0.17090353  1
  O  O161  1  0.62463686  0.00569646  0.40564137  1
  O  O162  1  0.62226038  0.00592996  0.65726160  1
  O  O163  1  0.62702740  0.00551652  0.91983200  1
  O  O164  1  0.62125925  0.24245998  0.16852349  1
  O  O165  1  0.62523204  0.24611840  0.40327566  1
  O  O166  1  0.62295929  0.24531951  0.65915430  1
  O  O167  1  0.62592528  0.24754683  0.92302141  1
  O  O168  1  0.62696822  0.50845528  0.16409433  1
  O  O169  1  0.62940381  0.50942557  0.40612636  1
  O  O170  1  0.62258935  0.50716947  0.66551572  1
  O  O171  1  0.62552282  0.49435268  0.91819467  1
  O  O172  1  0.62704556  0.74759050  0.16596511  1
  O  O173  1  0.62942337  0.73882100  0.40783924  1
  O  O174  1  0.62137977  0.74105101  0.66477491  1
  O  O175  1  0.62573558  0.75228307  0.91882062  1
  O  O176  1  0.87220937  -0.00578744  0.16728693  1
  O  O177  1  0.87198699  -0.00060129  0.40491017  1
  O  O178  1  0.87454502  -0.00249211  0.66010427  1
  O  O179  1  0.87579883  0.00121476  0.91924841  1
  O  O180  1  0.87617619  0.25713808  0.16890402  1
  O  O181  1  0.87258117  0.25215530  0.40724734  1
  O  O182  1  0.87254461  0.24817449  0.65649038  1
  O  O183  1  0.87597900  0.24900128  0.92254979  1
  O  O184  1  0.87338191  0.49724424  0.16457617  1
  O  O185  1  0.87891745  0.51053683  0.41583797  1
  O  O186  1  0.86969950  0.50882349  0.66215050  1
  O  O187  1  0.87486659  0.49066029  0.91582118  1
  O  O188  1  0.87187142  0.75275589  0.16302388  1
  O  O189  1  0.87749592  0.73846444  0.41255187  1
  O  O190  1  0.87316941  0.74320165  0.66470375  1
  O  O191  1  0.87592237  0.75809658  0.91212191  1
  O  O192  1  0.00562646  0.12776021  0.16994841  1
  O  O193  1  -0.00153238  0.12776415  0.40753554  1
  O  O194  1  0.00263546  0.12276153  0.65447120  1
  O  O195  1  0.00087607  0.12709976  0.91953185  1
  O  O196  1  -0.00274550  0.37526165  0.16775520  1
  O  O197  1  0.00647248  0.38125928  0.41358751  1
  O  O198  1  -0.00309881  0.37969893  0.65669948  1
  O  O199  1  0.00356143  0.36972559  0.91713664  1
  O  O200  1  -0.00878600  0.62317776  0.16410751  1
  O  O201  1  0.00232576  0.62410110  0.41153665  1
  O  O202  1  -0.00485210  0.62446986  0.65949384  1
  O  O203  1  -0.00240603  0.62253683  0.91815560  1
  O  O204  1  -0.00842172  0.87627820  0.16422119  1
  O  O205  1  0.00123523  0.86869096  0.40829360  1
  O  O206  1  0.00623316  0.87120679  0.65830181  1
  O  O207  1  -0.00652088  0.87980484  0.91846439  1
  O  O208  1  0.24826637  0.12761653  0.17313340  1
  O  O209  1  0.25121007  0.12820680  0.40847299  1
  O  O210  1  0.25186468  0.12719071  0.65580177  1
  O  O211  1  0.24812732  0.12841875  0.91720926  1
  O  O212  1  0.25105422  0.37379579  0.16758706  1
  O  O213  1  0.24297665  0.38182032  0.40926696  1
  O  O214  1  0.26000713  0.37940286  0.65939075  1
  O  O215  1  0.24316624  0.37148315  0.91659529  1
  O  O216  1  0.25124714  0.62367061  0.16437777  1
  O  O217  1  0.24170778  0.62273287  0.40166599  1
  O  O218  1  0.26115161  0.62042465  0.66379972  1
  O  O219  1  0.25524951  0.62115346  0.91680574  1
  O  O220  1  0.25659276  0.87490180  0.16433263  1
  O  O221  1  0.24809383  0.86976025  0.40478966  1
  O  O222  1  0.24569874  0.87060686  0.66015389  1
  O  O223  1  0.25082460  0.87688506  0.92183434  1
  O  O224  1  0.50085650  0.12357950  0.17192399  1
  O  O225  1  0.50769639  0.12684360  0.40815623  1
  O  O226  1  0.50421905  0.12622970  0.65912710  1
  O  O227  1  0.50118842  0.12669143  0.91821399  1
  O  O228  1  0.49254298  0.37438656  0.16607809  1
  O  O229  1  0.50218870  0.38064599  0.40623012  1
  O  O230  1  0.49747506  0.37767839  0.66592873  1
  O  O231  1  0.50350539  0.37216018  0.92125201  1
  O  O232  1  0.50711726  0.62651237  0.16453044  1
  O  O233  1  0.50714209  0.62287246  0.39872349  1
  O  O234  1  0.49750598  0.62269307  0.66589425  1
  O  O235  1  0.49533952  0.62310589  0.91800054  1
  O  O236  1  0.50029990  0.87510626  0.16887338  1
  O  O237  1  0.50199795  0.86994152  0.40772129  1
  O  O238  1  0.50031041  0.87167304  0.66407582  1
  O  O239  1  0.49785061  0.87767261  0.91988878  1
  O  O240  1  0.74263930  0.12556163  0.16853867  1
  O  O241  1  0.74222927  0.12541636  0.40564331  1
  O  O242  1  0.74127976  0.12405535  0.65796172  1
  O  O243  1  0.75158221  0.12686899  0.92015201  1
  O  O244  1  0.75657428  0.37428348  0.16562940  1
  O  O245  1  0.74786595  0.38071037  0.41011509  1
  O  O246  1  0.74780795  0.37720685  0.66442901  1
  O  O247  1  0.75123342  0.36999279  0.91877955  1
  O  O248  1  0.75041255  0.62594400  0.16675409  1
  O  O249  1  0.75390418  0.62361115  0.40487297  1
  O  O250  1  0.74572394  0.62602875  0.66241175  1
  O  O251  1  0.75106999  0.62346722  0.92149798  1
  O  O252  1  0.75063651  0.87524459  0.16860237  1
  O  O253  1  0.74956751  0.86977336  0.41246169  1
  O  O254  1  0.74840444  0.87135560  0.66226343  1
  O  O255  1  0.75817811  0.88007793  0.91529764  1
  O  O256  1  0.12719577  0.12893477  0.05974666  1
  O  O257  1  0.12596748  0.12840120  0.28648372  1
  O  O258  1  0.12697858  0.12722736  0.52077918  1
  O  O259  1  0.12518615  0.12668632  0.79737389  1
  O  O260  1  0.12445566  0.37063385  0.05241294  1
  O  O261  1  0.12173127  0.38133274  0.29841932  1
  O  O262  1  0.12950363  0.39003010  0.52896396  1
  O  O263  1  0.12390649  0.36914579  0.80085451  1
  O  O264  1  0.12274259  0.61695680  0.03657325  1
  O  O265  1  0.11671028  0.62203985  0.29265439  1
  O  O266  1  0.12848911  0.61889954  0.53789839  1
  O  O267  1  0.12143464  0.62425406  0.78727543  1
  O  O268  1  0.12362433  0.88479420  0.04618168  1
  O  O269  1  0.12271173  0.86795872  0.27270026  1
  O  O270  1  0.12626199  0.86590359  0.54303266  1
  O  O271  1  0.12850492  0.87031416  0.78874175  1
  O  O272  1  0.37408408  0.12553562  0.06075762  1
  O  O273  1  0.37176234  0.12664085  0.28225060  1
  O  O274  1  0.37841383  0.12745796  0.52454570  1
  O  O275  1  0.37579743  0.12826102  0.79871469  1
  O  O276  1  0.37225751  0.37249192  0.05491666  1
  O  O277  1  0.37402749  0.38400215  0.28034209  1
  O  O278  1  0.38143557  0.38442435  0.54671858  1
  O  O279  1  0.38102895  0.37261759  0.79028024  1
  O  O280  1  0.37762334  0.62372093  0.05644739  1
  O  O281  1  0.37830472  0.61729224  0.27283390  1
  O  O282  1  0.37872246  0.62522214  0.54778053  1
  O  O283  1  0.37760316  0.62241207  0.80125507  1
  O  O284  1  0.37788497  0.87903474  0.05699082  1
  O  O285  1  0.37987484  0.87008340  0.27878037  1
  O  O286  1  0.37925416  0.86570465  0.53033118  1
  O  O287  1  0.36861883  0.87539523  0.78762191  1
  O  O288  1  0.62513229  0.12340033  0.05619445  1
  O  O289  1  0.62306784  0.12472207  0.29001318  1
  O  O290  1  0.62212188  0.12662223  0.54126588  1
  O  O291  1  0.62536811  0.12640369  0.79981411  1
  O  O292  1  0.62084520  0.37471084  0.04796584  1
  O  O293  1  0.62858989  0.37720052  0.27499879  1
  O  O294  1  0.62517729  0.38350630  0.53348392  1
  O  O295  1  0.62473458  0.36989430  0.80139143  1
  O  O296  1  0.62695510  0.62693054  0.05120337  1
  O  O297  1  0.62855212  0.62588002  0.28846739  1
  O  O298  1  0.62265603  0.62497902  0.55013390  1
  O  O299  1  0.63022510  0.62575421  0.78889655  1
  O  O300  1  0.62654828  0.87895949  0.05591278  1
  O  O301  1  0.63029416  0.87161205  0.28251543  1
  O  O302  1  0.62398649  0.86422240  0.53175738  1
  O  O303  1  0.62003494  0.87783759  0.78755443  1
  O  O304  1  0.87366684  0.12912981  0.04909031  1
  O  O305  1  0.87864862  0.12817311  0.27819896  1
  O  O306  1  0.87274463  0.12418199  0.52528311  1
  O  O307  1  0.87649133  0.12546619  0.80078374  1
  O  O308  1  0.87784494  0.37253589  0.05293155  1
  O  O309  1  0.87388768  0.38484857  0.28950758  1
  O  O310  1  0.86382536  0.37843553  0.52716184  1
  O  O311  1  0.87623113  0.37026928  0.79884403  1
  O  O312  1  0.87248103  0.62405059  0.04828826  1
  O  O313  1  0.87557572  0.62125259  0.29484537  1
  O  O314  1  0.87353852  0.62771786  0.54839642  1
  O  O315  1  0.86807200  0.62274233  0.78673745  1
  O  O316  1  0.87250574  0.87833089  0.05270459  1
  O  O317  1  0.86764723  0.86904486  0.28464779  1
  O  O318  1  0.87134887  0.86704730  0.52994921  1
  O  O319  1  0.87788100  0.87719042  0.79885887  1
