# generated using pymatgen
data_VFe(PbO3)2
_symmetry_space_group_name_H-M   'P 1'
_cell_length_a   15.38989002
_cell_length_b   15.38929973
_cell_length_c   18.51630146
_cell_angle_alpha   89.97193142
_cell_angle_beta   89.98369918
_cell_angle_gamma   89.99195316
_symmetry_Int_Tables_number   1
_chemical_formula_structural   VFe(PbO3)2
_chemical_formula_sum   'V32 Fe32 Pb64 O192'
_cell_volume   4385.39324712
_cell_formula_units_Z   32
loop_
 _symmetry_equiv_pos_site_id
 _symmetry_equiv_pos_as_xyz
  1  'x, y, z'
loop_
 _atom_site_type_symbol
 _atom_site_label
 _atom_site_symmetry_multiplicity
 _atom_site_fract_x
 _atom_site_fract_y
 _atom_site_fract_z
 _atom_site_occupancy
  V  V0  1  0.87571499  0.62471495  0.63531774  1
  V  V1  1  0.87252012  0.12622095  0.88366778  1
  V  V2  1  0.37489594  0.87418254  0.14326674  1
  V  V3  1  0.87483533  0.62366956  0.13987696  1
  V  V4  1  0.87091222  0.12316559  0.40566528  1
  V  V5  1  0.87539559  0.87541674  0.88255322  1
  V  V6  1  0.62396498  0.37643123  0.63777197  1
  V  V7  1  0.37505253  0.62564330  0.14105676  1
  V  V8  1  0.62513522  0.62098846  0.88839548  1
  V  V9  1  0.12581342  0.12872739  0.63893143  1
  V  V10  1  0.87483340  0.37634258  0.39344922  1
  V  V11  1  0.37406201  0.87245432  0.63317931  1
  V  V12  1  0.37271420  0.12357053  0.63990587  1
  V  V13  1  0.37449476  0.87377360  0.88582488  1
  V  V14  1  0.37574632  0.37292294  0.38637214  1
  V  V15  1  0.62499670  0.36734139  0.88835426  1
  V  V16  1  0.12170626  0.12844607  0.39196943  1
  V  V17  1  0.62813382  0.62970151  0.14099455  1
  V  V18  1  0.87606710  0.12110531  0.13922516  1
  V  V19  1  0.37219175  0.12510230  0.38889998  1
  V  V20  1  0.37574135  0.87546800  0.39101291  1
  V  V21  1  0.62413469  0.87599622  0.88463686  1
  V  V22  1  0.87472632  0.87295065  0.14621176  1
  V  V23  1  0.62412618  0.37362575  0.39009409  1
  V  V24  1  0.62755742  0.12035514  0.14042163  1
  V  V25  1  0.62790742  0.62026111  0.39809858  1
  V  V26  1  0.12184770  0.12037441  0.13850869  1
  V  V27  1  0.37601745  0.12527802  0.89272074  1
  V  V28  1  0.37503181  0.37287550  0.64094461  1
  V  V29  1  0.62284305  0.12697085  0.39643050  1
  V  V30  1  0.87657110  0.62410274  0.39365551  1
  V  V31  1  0.62310482  0.87244350  0.39888500  1
  Fe  Fe32  1  0.62001355  0.12867038  0.63561324  1
  Fe  Fe33  1  0.37696591  0.62124282  0.38971461  1
  Fe  Fe34  1  0.87517288  0.37428447  0.64416873  1
  Fe  Fe35  1  0.87346962  0.37297213  0.13414534  1
  Fe  Fe36  1  0.62549546  0.87286450  0.14137461  1
  Fe  Fe37  1  0.87378646  0.87426911  0.40216193  1
  Fe  Fe38  1  0.87557703  0.87644235  0.62460964  1
  Fe  Fe39  1  0.87497293  0.12643906  0.62523254  1
  Fe  Fe40  1  0.12398266  0.62937850  0.87818889  1
  Fe  Fe41  1  0.12701605  0.87612024  0.39274603  1
  Fe  Fe42  1  0.12817962  0.37549272  0.64470882  1
  Fe  Fe43  1  0.12434527  0.87442721  0.14095934  1
  Fe  Fe44  1  0.12554580  0.62151049  0.38727518  1
  Fe  Fe45  1  0.12433999  0.37343144  0.87745786  1
  Fe  Fe46  1  0.37646188  0.37710117  0.89271093  1
  Fe  Fe47  1  0.87148494  0.37688700  0.87580627  1
  Fe  Fe48  1  0.12817154  0.62458371  0.63808144  1
  Fe  Fe49  1  0.12112051  0.62864007  0.13832673  1
  Fe  Fe50  1  0.12233616  0.37564988  0.13448915  1
  Fe  Fe51  1  0.12861742  0.87655445  0.63313772  1
  Fe  Fe52  1  0.37286796  0.12043201  0.13338293  1
  Fe  Fe53  1  0.62294183  0.62195383  0.63055389  1
  Fe  Fe54  1  0.62791464  0.37673469  0.13549987  1
  Fe  Fe55  1  0.62163473  0.87378418  0.62991845  1
  Fe  Fe56  1  0.62624623  0.12154477  0.88080081  1
  Fe  Fe57  1  0.12160980  0.12249450  0.88231806  1
  Fe  Fe58  1  0.87111323  0.62905639  0.87999635  1
  Fe  Fe59  1  0.12480464  0.87840403  0.88003834  1
  Fe  Fe60  1  0.37673235  0.62191154  0.63050712  1
  Fe  Fe61  1  0.12543105  0.37369737  0.38524565  1
  Fe  Fe62  1  0.37769384  0.62865136  0.88572556  1
  Fe  Fe63  1  0.37667652  0.37314991  0.12907220  1
  Pb  Pb64  1  0.00453002  -0.00588253  -0.00334260  1
  Pb  Pb65  1  -0.00263714  -0.01088348  0.26237548  1
  Pb  Pb66  1  0.00310812  -0.00913218  0.50627705  1
  Pb  Pb67  1  0.00547401  -0.00281409  0.74055471  1
  Pb  Pb68  1  0.00215079  0.26347119  -0.00680816  1
  Pb  Pb69  1  0.00164315  0.25293873  0.24799591  1
  Pb  Pb70  1  -0.00797249  0.25817644  0.50812467  1
  Pb  Pb71  1  -0.00040738  0.25636177  0.74748116  1
  Pb  Pb72  1  0.00035327  0.50042065  -0.01595255  1
  Pb  Pb73  1  0.01098459  0.49598792  0.25026743  1
  Pb  Pb74  1  0.01374286  0.49463040  0.50873608  1
  Pb  Pb75  1  0.00645332  0.50170361  0.74818020  1
  Pb  Pb76  1  0.01011395  0.74596705  -0.00374905  1
  Pb  Pb77  1  0.00940827  0.75243479  0.25897451  1
  Pb  Pb78  1  0.00867661  0.75450949  0.50109582  1
  Pb  Pb79  1  0.00678401  0.75154766  0.74148687  1
  Pb  Pb80  1  0.24931617  0.00015267  -0.00189092  1
  Pb  Pb81  1  0.24127039  -0.00525770  0.25323386  1
  Pb  Pb82  1  0.24792484  -0.00287944  0.50248898  1
  Pb  Pb83  1  0.24116189  0.00072186  0.75369496  1
  Pb  Pb84  1  0.24095693  0.26215079  -0.00217832  1
  Pb  Pb85  1  0.24933050  0.25453656  0.24106652  1
  Pb  Pb86  1  0.24515839  0.25672423  0.50178602  1
  Pb  Pb87  1  0.24849176  0.25554366  0.75833542  1
  Pb  Pb88  1  0.24061225  0.50423645  -0.01123448  1
  Pb  Pb89  1  0.24122055  0.49861189  0.24739158  1
  Pb  Pb90  1  0.23944207  0.50032726  0.50362124  1
  Pb  Pb91  1  0.24658621  0.50334786  0.75145583  1
  Pb  Pb92  1  0.23678350  0.74680612  -0.00102716  1
  Pb  Pb93  1  0.24460188  0.74040946  0.25671163  1
  Pb  Pb94  1  0.24331605  0.73449535  0.49994505  1
  Pb  Pb95  1  0.24588681  0.74130155  0.74564104  1
  Pb  Pb96  1  0.49813061  0.00270611  0.00086452  1
  Pb  Pb97  1  0.50015272  -0.00149037  0.25099095  1
  Pb  Pb98  1  0.50493050  0.00215196  0.50563337  1
  Pb  Pb99  1  0.50706737  0.00433189  0.74688857  1
  Pb  Pb100  1  0.49326161  0.24719629  0.00481035  1
  Pb  Pb101  1  0.49723594  0.25200279  0.24274304  1
  Pb  Pb102  1  0.50213226  0.24656518  0.50191884  1
  Pb  Pb103  1  0.49410296  0.25603415  0.75467862  1
  Pb  Pb104  1  0.49689497  0.49531227  0.00050374  1
  Pb  Pb105  1  0.49528693  0.50412191  0.24809248  1
  Pb  Pb106  1  0.49839107  0.50418216  0.50239743  1
  Pb  Pb107  1  0.48874269  0.50168707  0.75226651  1
  Pb  Pb108  1  0.50636594  0.75879951  0.00012482  1
  Pb  Pb109  1  0.49535036  0.74314398  0.25745232  1
  Pb  Pb110  1  0.49899938  0.73908865  0.50595622  1
  Pb  Pb111  1  0.49828421  0.74126645  0.74365080  1
  Pb  Pb112  1  0.74688083  -0.00308934  -0.00414256  1
  Pb  Pb113  1  0.75735830  -0.00566673  0.26019251  1
  Pb  Pb114  1  0.73847117  -0.00052952  0.51114172  1
  Pb  Pb115  1  0.74853765  0.00289360  0.73268557  1
  Pb  Pb116  1  0.75114603  0.25810579  0.00108540  1
  Pb  Pb117  1  0.75178917  0.24782070  0.24918085  1
  Pb  Pb118  1  0.75655119  0.25304538  0.50955461  1
  Pb  Pb119  1  0.75167585  0.24569459  0.74287481  1
  Pb  Pb120  1  0.75458892  0.49229832  -0.00116895  1
  Pb  Pb121  1  0.75026376  0.49890967  0.24875429  1
  Pb  Pb122  1  0.75616357  0.49345180  0.50695490  1
  Pb  Pb123  1  0.76012979  0.50446535  0.75089906  1
  Pb  Pb124  1  0.74520504  0.75660094  -0.00200055  1
  Pb  Pb125  1  0.75721770  0.75528010  0.25932260  1
  Pb  Pb126  1  0.74805683  0.75316052  0.50659723  1
  Pb  Pb127  1  0.75166069  0.74929779  0.73828682  1
  O  O128  1  0.12181886  0.00282884  0.16908212  1
  O  O129  1  0.12678620  0.01143161  0.41741271  1
  O  O130  1  0.13307894  0.00810712  0.65929806  1
  O  O131  1  0.12411883  -0.00017362  0.91747504  1
  O  O132  1  0.12049095  0.23897199  0.16210771  1
  O  O133  1  0.12807904  0.24773853  0.41620002  1
  O  O134  1  0.13293623  0.24374094  0.66439493  1
  O  O135  1  0.12343862  0.24564067  0.91054123  1
  O  O136  1  0.12383165  0.50290602  0.16239294  1
  O  O137  1  0.12495381  0.49585104  0.41750622  1
  O  O138  1  0.12758781  0.50100088  0.66677158  1
  O  O139  1  0.12313680  0.50146596  0.90266941  1
  O  O140  1  0.12404106  0.75125650  0.17308342  1
  O  O141  1  0.12478151  0.74812098  0.41212806  1
  O  O142  1  0.12869303  0.75178093  0.65719789  1
  O  O143  1  0.12515857  0.75597369  0.91054579  1
  O  O144  1  0.37592372  -0.00594369  0.16708436  1
  O  O145  1  0.37722184  0.00184260  0.41669850  1
  O  O146  1  0.37479738  0.00650906  0.65842285  1
  O  O147  1  0.37967203  -0.00380767  0.91555019  1
  O  O148  1  0.37681090  0.24517298  0.16191727  1
  O  O149  1  0.37650653  0.25152428  0.41557646  1
  O  O150  1  0.37511627  0.24985062  0.66833949  1
  O  O151  1  0.38008395  0.24170359  0.91272270  1
  O  O152  1  0.38024645  0.50735734  0.15781152  1
  O  O153  1  0.38239075  0.48821316  0.40755364  1
  O  O154  1  0.37833081  0.49118524  0.65919828  1
  O  O155  1  0.38121007  0.50426556  0.91731532  1
  O  O156  1  0.37830128  0.75166057  0.17014920  1
  O  O157  1  0.38077465  0.76039982  0.41019922  1
  O  O158  1  0.37630918  0.75658468  0.65222941  1
  O  O159  1  0.38027668  0.75952802  0.91188618  1
  O  O160  1  0.62805127  0.00215914  0.16974185  1
  O  O161  1  0.62428633  0.00294287  0.41868735  1
  O  O162  1  0.61901608  0.00022584  0.65885653  1
  O  O163  1  0.62505380  -0.00406910  0.91363061  1
  O  O164  1  0.62950550  0.23887368  0.16444758  1
  O  O165  1  0.62592381  0.25123304  0.41964903  1
  O  O166  1  0.61879626  0.25791637  0.66292086  1
  O  O167  1  0.62781232  0.25104850  0.90667627  1
  O  O168  1  0.62826426  0.50813003  0.16621899  1
  O  O169  1  0.62542796  0.49500403  0.41784479  1
  O  O170  1  0.61850594  0.49197937  0.66200913  1
  O  O171  1  0.62558246  0.50379834  0.90924321  1
  O  O172  1  0.62716808  0.74755471  0.17411650  1
  O  O173  1  0.62428148  0.75335909  0.41555029  1
  O  O174  1  0.62117586  0.74892270  0.65618856  1
  O  O175  1  0.62494629  0.75311258  0.91403145  1
  O  O176  1  0.87352895  -0.00357536  0.17189534  1
  O  O177  1  0.87596410  0.00858992  0.41823104  1
  O  O178  1  0.87639487  0.00336838  0.64973890  1
  O  O179  1  0.87091454  -0.00597643  0.91230455  1
  O  O180  1  0.87325093  0.24205052  0.16607360  1
  O  O181  1  0.87365384  0.25746926  0.41806061  1
  O  O182  1  0.87495214  0.24614027  0.66417369  1
  O  O183  1  0.86816555  0.24236083  0.90191597  1
  O  O184  1  0.87035896  0.50752157  0.15906302  1
  O  O185  1  0.86952436  0.49724369  0.41788824  1
  O  O186  1  0.87251679  0.50587104  0.66161790  1
  O  O187  1  0.86847643  0.50182466  0.90728921  1
  O  O188  1  0.87253795  0.75380782  0.16972162  1
  O  O189  1  0.87112593  0.74004874  0.41523233  1
  O  O190  1  0.87306529  0.74470980  0.65497493  1
  O  O191  1  0.86834574  0.76048097  0.90875106  1
  O  O192  1  -0.00025915  0.12009629  0.16789124  1
  O  O193  1  0.00628164  0.13133420  0.41689109  1
  O  O194  1  0.00934342  0.12669407  0.65273770  1
  O  O195  1  -0.01193570  0.11875787  0.90985518  1
  O  O196  1  -0.00373495  0.37300138  0.16529534  1
  O  O197  1  -0.00727907  0.37599044  0.41320482  1
  O  O198  1  0.00155645  0.37283411  0.66298467  1
  O  O199  1  -0.00410794  0.37226880  0.90280414  1
  O  O200  1  -0.01097606  0.63088468  0.16469513  1
  O  O201  1  -0.00875577  0.61916358  0.41456822  1
  O  O202  1  -0.00628286  0.62477788  0.65732416  1
  O  O203  1  -0.00364358  0.63028608  0.90832198  1
  O  O204  1  -0.00795240  0.87588217  0.17060825  1
  O  O205  1  0.00140843  0.87773593  0.41778162  1
  O  O206  1  0.00110312  0.87730164  0.65388188  1
  O  O207  1  -0.00851975  0.87735238  0.90477022  1
  O  O208  1  0.24121603  0.12043263  0.15939425  1
  O  O209  1  0.24997872  0.12766779  0.41611185  1
  O  O210  1  0.25592431  0.12803650  0.66768402  1
  O  O211  1  0.25787797  0.11891347  0.91274530  1
  O  O212  1  0.25106437  0.37340029  0.15914811  1
  O  O213  1  0.25898907  0.37224148  0.40815224  1
  O  O214  1  0.26003567  0.37221791  0.66636921  1
  O  O215  1  0.24951981  0.37328457  0.91088700  1
  O  O216  1  0.25853511  0.62899468  0.16206849  1
  O  O217  1  0.25309495  0.62390812  0.41165559  1
  O  O218  1  0.25595246  0.62407517  0.66226694  1
  O  O219  1  0.25141335  0.62925956  0.91080986  1
  O  O220  1  0.25746111  0.87373194  0.16805048  1
  O  O221  1  0.25897738  0.88073940  0.41158125  1
  O  O222  1  0.25986622  0.88094965  0.66051280  1
  O  O223  1  0.25847678  0.87986870  0.90678738  1
  O  O224  1  0.50866391  0.12019135  0.16194733  1
  O  O225  1  0.49730663  0.12735683  0.41705890  1
  O  O226  1  0.49012484  0.12897797  0.66408543  1
  O  O227  1  0.49830740  0.12077649  0.91535391  1
  O  O228  1  0.50255292  0.37410088  0.16335273  1
  O  O229  1  0.50016253  0.36923943  0.41409448  1
  O  O230  1  0.49705494  0.37153377  0.66546679  1
  O  O231  1  0.51071399  0.37501843  0.91598911  1
  O  O232  1  0.50072309  0.62871541  0.16695157  1
  O  O233  1  0.50437636  0.62412238  0.41637580  1
  O  O234  1  0.49884264  0.62270145  0.66372056  1
  O  O235  1  0.51051268  0.62990020  0.91838090  1
  O  O236  1  0.49537891  0.87469239  0.16962760  1
  O  O237  1  0.50044472  0.88113753  0.41687256  1
  O  O238  1  0.48982081  0.88008648  0.65900850  1
  O  O239  1  0.49953125  0.87667605  0.91348112  1
  O  O240  1  0.75016767  0.11986998  0.16922711  1
  O  O241  1  0.75162603  0.12846287  0.41963270  1
  O  O242  1  0.74788232  0.12760872  0.65184100  1
  O  O243  1  0.75521024  0.11782235  0.91155934  1
  O  O244  1  0.75062077  0.37374729  0.17124963  1
  O  O245  1  0.75064304  0.37426992  0.41854806  1
  O  O246  1  0.73964903  0.37450261  0.65925110  1
  O  O247  1  0.74360451  0.37574482  0.91167647  1
  O  O248  1  0.75514820  0.63047376  0.17025025  1
  O  O249  1  0.75208151  0.62173693  0.42200768  1
  O  O250  1  0.75178546  0.62346576  0.65687358  1
  O  O251  1  0.74038829  0.63046076  0.91429800  1
  O  O252  1  0.75483585  0.87572593  0.17374554  1
  O  O253  1  0.74123247  0.87758255  0.41809121  1
  O  O254  1  0.74979934  0.87519010  0.65315573  1
  O  O255  1  0.74921622  0.87662707  0.91122050  1
  O  O256  1  0.11699411  0.11680502  0.04777367  1
  O  O257  1  0.12355477  0.12690340  0.30092706  1
  O  O258  1  0.13561692  0.13030384  0.54784162  1
  O  O259  1  0.12651090  0.11670003  0.78280614  1
  O  O260  1  0.11868391  0.36583412  0.03425667  1
  O  O261  1  0.12275334  0.37741514  0.28490391  1
  O  O262  1  0.13373749  0.37969774  0.54176613  1
  O  O263  1  0.12959546  0.36981561  0.77583640  1
  O  O264  1  0.12370235  0.63821507  0.03787070  1
  O  O265  1  0.12536741  0.62043433  0.28542379  1
  O  O266  1  0.13074543  0.61833876  0.53507472  1
  O  O267  1  0.12621316  0.63322516  0.77655903  1
  O  O268  1  0.12148931  0.87345811  0.04113770  1
  O  O269  1  0.12262234  0.88372196  0.29098362  1
  O  O270  1  0.12876333  0.88326403  0.53084477  1
  O  O271  1  0.12403585  0.88598558  0.77948185  1
  O  O272  1  0.38208848  0.11804418  0.03442683  1
  O  O273  1  0.37292442  0.12409204  0.29793271  1
  O  O274  1  0.37063417  0.12971969  0.54882727  1
  O  O275  1  0.37757644  0.12232939  0.80147898  1
  O  O276  1  0.38494868  0.36871214  0.02856383  1
  O  O277  1  0.37880508  0.36839308  0.29506653  1
  O  O278  1  0.37533764  0.36779272  0.54980408  1
  O  O279  1  0.38361783  0.37229254  0.79198651  1
  O  O280  1  0.37922501  0.63376056  0.05099790  1
  O  O281  1  0.38399326  0.62481445  0.28868065  1
  O  O282  1  0.38295375  0.62409654  0.52867954  1
  O  O283  1  0.38608349  0.62754034  0.78578143  1
  O  O284  1  0.37566600  0.87211981  0.05264089  1
  O  O285  1  0.37949879  0.88027869  0.29987650  1
  O  O286  1  0.37235071  0.87779385  0.54193431  1
  O  O287  1  0.37791124  0.87546223  0.79518331  1
  O  O288  1  0.63136186  0.11913163  0.04945845  1
  O  O289  1  0.62434441  0.12643978  0.30549114  1
  O  O290  1  0.61536855  0.12437219  0.53419195  1
  O  O291  1  0.62332290  0.11800952  0.78154938  1
  O  O292  1  0.63688323  0.37208095  0.03611154  1
  O  O293  1  0.62622047  0.37370332  0.29922232  1
  O  O294  1  0.61988568  0.37557799  0.54618924  1
  O  O295  1  0.62335225  0.37400709  0.79764735  1
  O  O296  1  0.62965988  0.63245753  0.05020428  1
  O  O297  1  0.63009458  0.62252890  0.30680198  1
  O  O298  1  0.61660427  0.62289180  0.53014665  1
  O  O299  1  0.62280236  0.62582442  0.79722021  1
  O  O300  1  0.62807025  0.86913367  0.04215136  1
  O  O301  1  0.62221659  0.87722319  0.30728788  1
  O  O302  1  0.62288157  0.88215594  0.52877555  1
  O  O303  1  0.62244804  0.87589144  0.79354589  1
  O  O304  1  0.87407855  0.11966493  0.04882051  1
  O  O305  1  0.87615173  0.12971585  0.31427062  1
  O  O306  1  0.87967499  0.13923732  0.52261726  1
  O  O307  1  0.87260228  0.12029416  0.79262271  1
  O  O308  1  0.86415125  0.37040804  0.03413477  1
  O  O309  1  0.87147458  0.37687204  0.30250233  1
  O  O310  1  0.87009880  0.37128581  0.54161002  1
  O  O311  1  0.86561562  0.37584422  0.77473472  1
  O  O312  1  0.87179884  0.63040726  0.04941592  1
  O  O313  1  0.87289776  0.62128463  0.30269468  1
  O  O314  1  0.87468211  0.62133274  0.54412610  1
  O  O315  1  0.86434138  0.62820920  0.78061850  1
  O  O316  1  0.87301781  0.87434447  0.05572537  1
  O  O317  1  0.87035005  0.87877411  0.29967770  1
  O  O318  1  0.87354726  0.87062369  0.52282705  1
  O  O319  1  0.87247215  0.87659044  0.79161838  1
