# generated using pymatgen
data_VFe(PbO3)2
_symmetry_space_group_name_H-M   'P 1'
_cell_length_a   15.39091281
_cell_length_b   15.39009187
_cell_length_c   18.45023669
_cell_angle_alpha   90.00330635
_cell_angle_beta   90.05673787
_cell_angle_gamma   89.99271859
_symmetry_Int_Tables_number   1
_chemical_formula_structural   VFe(PbO3)2
_chemical_formula_sum   'V32 Fe32 Pb64 O192'
_cell_volume   4370.26040110
_cell_formula_units_Z   32
loop_
 _symmetry_equiv_pos_site_id
 _symmetry_equiv_pos_as_xyz
  1  'x, y, z'
loop_
 _atom_site_type_symbol
 _atom_site_label
 _atom_site_symmetry_multiplicity
 _atom_site_fract_x
 _atom_site_fract_y
 _atom_site_fract_z
 _atom_site_occupancy
  V  V0  1  0.62493212  0.87435821  0.40023828  1
  V  V1  1  0.62423395  0.12426890  0.63845974  1
  V  V2  1  0.87452790  0.37206789  0.14537176  1
  V  V3  1  0.37487873  0.37995279  0.13747902  1
  V  V4  1  0.87432745  0.62136038  0.14601973  1
  V  V5  1  0.38115833  0.12348084  0.39176920  1
  V  V6  1  0.37490696  0.87487623  0.39099325  1
  V  V7  1  0.12163117  0.12415222  0.88984254  1
  V  V8  1  0.37911684  0.62607006  0.89005453  1
  V  V9  1  0.38381710  0.12770061  0.13498993  1
  V  V10  1  0.87323025  0.62445867  0.38552175  1
  V  V11  1  0.87502241  0.37842331  0.89068635  1
  V  V12  1  0.12518727  0.62623339  0.89214130  1
  V  V13  1  0.12317295  0.37658348  0.89167656  1
  V  V14  1  0.62536731  0.87392372  0.88967057  1
  V  V15  1  0.12293809  0.37499074  0.63540298  1
  V  V16  1  0.87369632  0.87043838  0.89176606  1
  V  V17  1  0.37519912  0.62161086  0.39032923  1
  V  V18  1  0.13394606  0.12478137  0.39396546  1
  V  V19  1  0.87409131  0.87233719  0.14484284  1
  V  V20  1  0.37696424  0.63232529  0.13712073  1
  V  V21  1  0.37411359  0.37114611  0.39030252  1
  V  V22  1  0.62506713  0.12339359  0.39252197  1
  V  V23  1  0.87669681  0.62434592  0.89186713  1
  V  V24  1  0.87737411  0.12359392  0.13950134  1
  V  V25  1  0.62879869  0.62588025  0.88670930  1
  V  V26  1  0.12566383  0.12456568  0.14098941  1
  V  V27  1  0.87690107  0.12477924  0.39185976  1
  V  V28  1  0.87467081  0.37535631  0.63261116  1
  V  V29  1  0.12572588  0.62710634  0.63624813  1
  V  V30  1  0.12420705  0.88007901  0.63251820  1
  V  V31  1  0.12106839  0.87448141  0.89116502  1
  Fe  Fe32  1  0.63263405  0.12511815  0.13228666  1
  Fe  Fe33  1  0.37637113  0.87839158  0.12932717  1
  Fe  Fe34  1  0.87961792  0.12559074  0.88694644  1
  Fe  Fe35  1  0.37336874  0.87330029  0.89331453  1
  Fe  Fe36  1  0.12706169  0.87674816  0.38243981  1
  Fe  Fe37  1  0.62658302  0.37796486  0.88097847  1
  Fe  Fe38  1  0.37266062  0.87428432  0.63584364  1
  Fe  Fe39  1  0.12780697  0.62570336  0.37791470  1
  Fe  Fe40  1  0.37303468  0.37768764  0.88203133  1
  Fe  Fe41  1  0.12546753  0.62363886  0.14945297  1
  Fe  Fe42  1  0.62353811  0.37098320  0.39687242  1
  Fe  Fe43  1  0.37533622  0.12560424  0.88409668  1
  Fe  Fe44  1  0.12346457  0.12712543  0.62863962  1
  Fe  Fe45  1  0.62514589  0.87510230  0.13458192  1
  Fe  Fe46  1  0.62964989  0.12507311  0.88643853  1
  Fe  Fe47  1  0.37163929  0.37549412  0.63829992  1
  Fe  Fe48  1  0.87807155  0.62270987  0.62841618  1
  Fe  Fe49  1  0.87477593  0.37337989  0.38338792  1
  Fe  Fe50  1  0.87598430  0.87425401  0.62520606  1
  Fe  Fe51  1  0.62319010  0.37509903  0.13693942  1
  Fe  Fe52  1  0.12567900  0.37341213  0.38305861  1
  Fe  Fe53  1  0.62610662  0.62443927  0.14216817  1
  Fe  Fe54  1  0.62220152  0.62598500  0.39796737  1
  Fe  Fe55  1  0.62542982  0.37295115  0.63079366  1
  Fe  Fe56  1  0.37103120  0.12520592  0.63765772  1
  Fe  Fe57  1  0.12568673  0.37157969  0.14270420  1
  Fe  Fe58  1  0.12515172  0.87722932  0.14300770  1
  Fe  Fe59  1  0.62498474  0.87624115  0.62662429  1
  Fe  Fe60  1  0.37178268  0.62504496  0.63074782  1
  Fe  Fe61  1  0.87597440  0.12664973  0.63329397  1
  Fe  Fe62  1  0.87501341  0.87686255  0.39357859  1
  Fe  Fe63  1  0.62510266  0.62467564  0.62355795  1
  Pb  Pb64  1  0.00453994  -0.00868359  0.00466476  1
  Pb  Pb65  1  -0.00303074  -0.00765640  0.25830145  1
  Pb  Pb66  1  0.00018435  0.00415196  0.50012120  1
  Pb  Pb67  1  -0.00787373  0.00581955  0.74444638  1
  Pb  Pb68  1  0.00458912  0.25744990  0.00375520  1
  Pb  Pb69  1  -0.00052842  0.25491458  0.25632859  1
  Pb  Pb70  1  0.00166146  0.24367373  0.49953575  1
  Pb  Pb71  1  -0.00464639  0.24429335  0.74793019  1
  Pb  Pb72  1  0.00883605  0.50295469  0.00934255  1
  Pb  Pb73  1  0.00508881  0.49467714  0.25541597  1
  Pb  Pb74  1  0.00205006  0.50107897  0.48816610  1
  Pb  Pb75  1  0.00100484  0.49877284  0.74676389  1
  Pb  Pb76  1  0.00997818  0.74663689  0.00972400  1
  Pb  Pb77  1  0.00662356  0.75352778  0.25592678  1
  Pb  Pb78  1  0.00037036  0.75209681  0.48988734  1
  Pb  Pb79  1  -0.00238409  0.75017188  0.74261546  1
  Pb  Pb80  1  0.25238690  -0.00643934  0.00100382  1
  Pb  Pb81  1  0.24930640  -0.00388756  0.24884556  1
  Pb  Pb82  1  0.25972037  0.00287938  0.50520321  1
  Pb  Pb83  1  0.26096361  0.00218617  0.75297983  1
  Pb  Pb84  1  0.25190518  0.25524743  -0.00330133  1
  Pb  Pb85  1  0.24807931  0.24954186  0.25262855  1
  Pb  Pb86  1  0.25997683  0.25046842  0.50748867  1
  Pb  Pb87  1  0.25922771  0.24386291  0.74951661  1
  Pb  Pb88  1  0.24277435  0.50611850  0.00481195  1
  Pb  Pb89  1  0.24433499  0.49814510  0.25172757  1
  Pb  Pb90  1  0.25613662  0.50043749  0.49818504  1
  Pb  Pb91  1  0.25462923  0.49646171  0.74891276  1
  Pb  Pb92  1  0.24592258  0.75399744  0.00531406  1
  Pb  Pb93  1  0.24493181  0.75425673  0.24894873  1
  Pb  Pb94  1  0.25424852  0.75040313  0.49764365  1
  Pb  Pb95  1  0.25818394  0.75543640  0.75244238  1
  Pb  Pb96  1  0.49772132  0.00129934  -0.00571138  1
  Pb  Pb97  1  0.50729842  -0.00360349  0.24386784  1
  Pb  Pb98  1  0.49710308  -0.00459926  0.50820663  1
  Pb  Pb99  1  0.49454246  -0.00122327  0.74711191  1
  Pb  Pb100  1  0.50645083  0.25183368  -0.01155281  1
  Pb  Pb101  1  0.51079842  0.25500250  0.25126804  1
  Pb  Pb102  1  0.49448531  0.25672556  0.50954635  1
  Pb  Pb103  1  0.49864903  0.25556564  0.74750003  1
  Pb  Pb104  1  0.50764867  0.49443636  -0.00263522  1
  Pb  Pb105  1  0.51958368  0.50243163  0.26338728  1
  Pb  Pb106  1  0.50519729  0.49927205  0.50507837  1
  Pb  Pb107  1  0.50149248  0.49605896  0.73785722  1
  Pb  Pb108  1  0.50981050  0.75223638  0.00444866  1
  Pb  Pb109  1  0.50990293  0.74803145  0.25265506  1
  Pb  Pb110  1  0.49689159  0.75189152  0.50634393  1
  Pb  Pb111  1  0.50151487  0.74990240  0.73678531  1
  Pb  Pb112  1  0.74647451  0.00416378  0.00090578  1
  Pb  Pb113  1  0.75544093  -0.00339981  0.25347684  1
  Pb  Pb114  1  0.75305881  -0.00126519  0.50605470  1
  Pb  Pb115  1  0.75205492  0.00392309  0.74376207  1
  Pb  Pb116  1  0.74261433  0.24734225  -0.00128467  1
  Pb  Pb117  1  0.74772011  0.25690226  0.25312525  1
  Pb  Pb118  1  0.74986400  0.25103617  0.50104618  1
  Pb  Pb119  1  0.73666888  0.24342658  0.75545134  1
  Pb  Pb120  1  0.74134500  0.50026700  0.00460806  1
  Pb  Pb121  1  0.74802349  0.49413753  0.25722818  1
  Pb  Pb122  1  0.74398709  0.49887003  0.49565889  1
  Pb  Pb123  1  0.74349267  0.49891664  0.73942773  1
  Pb  Pb124  1  0.74368340  0.74752056  0.00575118  1
  Pb  Pb125  1  0.75099351  0.75210391  0.25675299  1
  Pb  Pb126  1  0.76157119  0.74343026  0.50495436  1
  Pb  Pb127  1  0.75024482  0.74951356  0.73255129  1
  O  O128  1  0.11967133  0.00826102  0.16698301  1
  O  O129  1  0.12552246  0.00758358  0.41466427  1
  O  O130  1  0.12056002  -0.00606527  0.64996574  1
  O  O131  1  0.11994242  0.00148950  0.91451041  1
  O  O132  1  0.11992051  0.24200118  0.16844570  1
  O  O133  1  0.12389789  0.24254156  0.41301417  1
  O  O134  1  0.11874158  0.25944554  0.65601284  1
  O  O135  1  0.12059774  0.24883244  0.91375453  1
  O  O136  1  0.12718176  0.49603512  0.16820483  1
  O  O137  1  0.12890312  0.50072767  0.40764877  1
  O  O138  1  0.12285969  0.50040448  0.66332421  1
  O  O139  1  0.12226912  0.50208061  0.91953625  1
  O  O140  1  0.12553449  0.75101980  0.16679130  1
  O  O141  1  0.12883176  0.75011387  0.40666527  1
  O  O142  1  0.12214369  0.74399598  0.65825493  1
  O  O143  1  0.12234912  0.74963844  0.92025892  1
  O  O144  1  0.37234208  0.01252230  0.16170503  1
  O  O145  1  0.37495513  -0.00034029  0.41625697  1
  O  O146  1  0.37088332  -0.00092477  0.66444149  1
  O  O147  1  0.37246277  0.00105170  0.91587048  1
  O  O148  1  0.37170316  0.24008633  0.16588510  1
  O  O149  1  0.37423485  0.25023181  0.41476808  1
  O  O150  1  0.37172407  0.24988106  0.66479582  1
  O  O151  1  0.37012602  0.25145095  0.91194314  1
  O  O152  1  0.37194620  0.49211725  0.15498166  1
  O  O153  1  0.37326176  0.49911633  0.40826810  1
  O  O154  1  0.36869353  0.50160352  0.66294206  1
  O  O155  1  0.37111498  0.51020829  0.91518597  1
  O  O156  1  0.37543927  0.74735373  0.15325162  1
  O  O157  1  0.37535037  0.75503132  0.41011493  1
  O  O158  1  0.36931501  0.74909044  0.66549689  1
  O  O159  1  0.37242571  0.74143077  0.91759150  1
  O  O160  1  0.62900811  0.00090530  0.16435029  1
  O  O161  1  0.62097802  0.00571292  0.41931321  1
  O  O162  1  0.62583356  0.00592141  0.66174375  1
  O  O163  1  0.63151340  -0.00984321  0.91008055  1
  O  O164  1  0.62747671  0.24962928  0.16614905  1
  O  O165  1  0.62114542  0.23925708  0.41798197  1
  O  O166  1  0.62779222  0.24495945  0.66131379  1
  O  O167  1  0.63163612  0.25383507  0.91019683  1
  O  O168  1  0.62401702  0.49869742  0.17073160  1
  O  O169  1  0.61946720  0.49815063  0.41487909  1
  O  O170  1  0.62767248  0.49875636  0.65514193  1
  O  O171  1  0.62816460  0.50544676  0.91369865  1
  O  O172  1  0.62514119  0.75006966  0.17066020  1
  O  O173  1  0.61755084  0.75879946  0.41280040  1
  O  O174  1  0.62545302  0.74984945  0.65351871  1
  O  O175  1  0.62763377  0.74981244  0.91667549  1
  O  O176  1  0.87515989  -0.00326128  0.16614362  1
  O  O177  1  0.86991017  0.00812373  0.41585008  1
  O  O178  1  0.87946735  -0.00158500  0.65745514  1
  O  O179  1  0.87753730  -0.01299853  0.91445213  1
  O  O180  1  0.87629750  0.25274360  0.16394893  1
  O  O181  1  0.87170017  0.24215979  0.41237272  1
  O  O182  1  0.88234755  0.25994271  0.65874632  1
  O  O183  1  0.88028111  0.26060127  0.91124963  1
  O  O184  1  0.87423444  0.50072937  0.16710367  1
  O  O185  1  0.87394613  0.50539894  0.40708006  1
  O  O186  1  0.87946446  0.49341299  0.66050602  1
  O  O187  1  0.87933094  0.50132614  0.91996436  1
  O  O188  1  0.87420420  0.75121176  0.16810283  1
  O  O189  1  0.87304208  0.74540819  0.40912730  1
  O  O190  1  0.87976961  0.74939047  0.65907876  1
  O  O191  1  0.87771828  0.75076129  0.92061239  1
  O  O192  1  -0.00242484  0.12491779  0.17014621  1
  O  O193  1  -0.00431597  0.12388681  0.40854888  1
  O  O194  1  0.00221135  0.12703615  0.66604304  1
  O  O195  1  0.00520705  0.12478794  0.91971947  1
  O  O196  1  -0.00629113  0.37524534  0.16732252  1
  O  O197  1  0.00014156  0.37271809  0.40975940  1
  O  O198  1  0.00206167  0.38048728  0.66347693  1
  O  O199  1  -0.00090142  0.37942480  0.92162714  1
  O  O200  1  -0.00950598  0.62492755  0.17054328  1
  O  O201  1  -0.00434885  0.62584231  0.40328765  1
  O  O202  1  0.00624349  0.62153875  0.66317842  1
  O  O203  1  0.00073138  0.62609399  0.92094298  1
  O  O204  1  -0.00730063  0.87523797  0.16884003  1
  O  O205  1  0.00241280  0.87909073  0.40930435  1
  O  O206  1  0.00816510  0.86920017  0.65897347  1
  O  O207  1  -0.00240693  0.87072745  0.92102002  1
  O  O208  1  0.24213727  0.12549215  0.16206901  1
  O  O209  1  0.25153932  0.12517004  0.41157980  1
  O  O210  1  0.24289388  0.12619600  0.66324730  1
  O  O211  1  0.23668562  0.12456947  0.91448441  1
  O  O212  1  0.25813430  0.36560315  0.16587290  1
  O  O213  1  0.25611789  0.37204090  0.41216059  1
  O  O214  1  0.23772310  0.37741642  0.66198884  1
  O  O215  1  0.24363707  0.37866617  0.91490099  1
  O  O216  1  0.26317549  0.62135553  0.16699406  1
  O  O217  1  0.25740770  0.62699246  0.41031163  1
  O  O218  1  0.23975381  0.62370108  0.66398414  1
  O  O219  1  0.24753620  0.62625712  0.91800665  1
  O  O220  1  0.25376134  0.88035392  0.16344836  1
  O  O221  1  0.25691214  0.87973455  0.41062526  1
  O  O222  1  0.23729017  0.87051177  0.66386402  1
  O  O223  1  0.24162908  0.87321217  0.91710658  1
  O  O224  1  0.49851461  0.12529165  0.15156345  1
  O  O225  1  0.50086460  0.12375522  0.41844748  1
  O  O226  1  0.50566752  0.12542505  0.66065243  1
  O  O227  1  0.50243082  0.12357767  0.90917399  1
  O  O228  1  0.49014468  0.36690596  0.16269721  1
  O  O229  1  0.48950108  0.37246872  0.41736410  1
  O  O230  1  0.50014276  0.37294211  0.65837718  1
  O  O231  1  0.49948761  0.37990022  0.90874475  1
  O  O232  1  0.48977707  0.62067022  0.16769662  1
  O  O233  1  0.48880644  0.62760339  0.41723338  1
  O  O234  1  0.49904452  0.62440634  0.65543836  1
  O  O235  1  0.49928365  0.62634005  0.90856385  1
  O  O236  1  0.49825705  0.87858575  0.16363818  1
  O  O237  1  0.49423732  0.87988302  0.41841997  1
  O  O238  1  0.50039781  0.87686717  0.66100892  1
  O  O239  1  0.50784885  0.87125040  0.90934786  1
  O  O240  1  0.75953736  0.12580422  0.16679256  1
  O  O241  1  0.74470518  0.12384414  0.41418229  1
  O  O242  1  0.74762505  0.12529600  0.66016112  1
  O  O243  1  0.75774134  0.12283516  0.91673115  1
  O  O244  1  0.75507883  0.37611508  0.16647813  1
  O  O245  1  0.75115881  0.37146153  0.41516281  1
  O  O246  1  0.75914265  0.37568514  0.65150668  1
  O  O247  1  0.75986055  0.38208586  0.91133283  1
  O  O248  1  0.75725151  0.62523329  0.17123608  1
  O  O249  1  0.75413062  0.62668331  0.40959570  1
  O  O250  1  0.75250939  0.62300689  0.65560234  1
  O  O251  1  0.75192934  0.62653383  0.91685058  1
  O  O252  1  0.75561035  0.87356951  0.16803776  1
  O  O253  1  0.74093853  0.87976197  0.41333582  1
  O  O254  1  0.75059228  0.87650891  0.65427609  1
  O  O255  1  0.75362143  0.86800660  0.91336872  1
  O  O256  1  0.12217986  0.12528494  0.04972067  1
  O  O257  1  0.12850749  0.12410242  0.30206814  1
  O  O258  1  0.11530659  0.12680831  0.52788228  1
  O  O259  1  0.11888556  0.12445891  0.79871742  1
  O  O260  1  0.12045033  0.37163796  0.04182534  1
  O  O261  1  0.12737910  0.36752480  0.28156199  1
  O  O262  1  0.12265732  0.37917246  0.54387028  1
  O  O263  1  0.11782060  0.37860750  0.80061141  1
  O  O264  1  0.12367130  0.62163259  0.04689522  1
  O  O265  1  0.13089738  0.62436813  0.27600698  1
  O  O266  1  0.12638651  0.62408081  0.54472164  1
  O  O267  1  0.12496832  0.62663641  0.80113570  1
  O  O268  1  0.11846818  0.87737897  0.04148416  1
  O  O269  1  0.12769315  0.88079317  0.28056828  1
  O  O270  1  0.12727751  0.87239906  0.54097898  1
  O  O271  1  0.11773576  0.87358291  0.80021533  1
  O  O272  1  0.37379909  0.12878510  0.04356964  1
  O  O273  1  0.38117327  0.12406485  0.30050307  1
  O  O274  1  0.36660563  0.12646453  0.53515606  1
  O  O275  1  0.36554970  0.12193536  0.78303794  1
  O  O276  1  0.37251346  0.37189176  0.04586557  1
  O  O277  1  0.37660249  0.36918826  0.29896509  1
  O  O278  1  0.36696484  0.36964838  0.53638454  1
  O  O279  1  0.36859959  0.37832199  0.78155913  1
  O  O280  1  0.37700834  0.62317330  0.04591819  1
  O  O281  1  0.37710884  0.62503833  0.29912763  1
  O  O282  1  0.36443381  0.62817949  0.53034480  1
  O  O283  1  0.37174452  0.62775314  0.79886404  1
  O  O284  1  0.37391206  0.87904730  0.02813925  1
  O  O285  1  0.37917277  0.87808730  0.29966591  1
  O  O286  1  0.36917660  0.87580600  0.53494039  1
  O  O287  1  0.36506275  0.87518055  0.79238894  1
  O  O288  1  0.63746436  0.12546113  0.03136343  1
  O  O289  1  0.62281375  0.12324232  0.30094722  1
  O  O290  1  0.62561202  0.12443647  0.54694314  1
  O  O291  1  0.63802127  0.12761018  0.78549357  1
  O  O292  1  0.62633233  0.38359091  0.03646652  1
  O  O293  1  0.61830770  0.36895710  0.29371316  1
  O  O294  1  0.62058239  0.36959681  0.52833576  1
  O  O295  1  0.63347533  0.37415733  0.78040455  1
  O  O296  1  0.62714141  0.62779411  0.04132127  1
  O  O297  1  0.61301148  0.62481812  0.29483255  1
  O  O298  1  0.62263489  0.62470963  0.52122611  1
  O  O299  1  0.63077300  0.62602820  0.79575216  1
  O  O300  1  0.62693657  0.86583412  0.03416025  1
  O  O301  1  0.61650675  0.88206688  0.30774188  1
  O  O302  1  0.61706856  0.88240535  0.52527848  1
  O  O303  1  0.62932318  0.87085199  0.79902658  1
  O  O304  1  0.87842971  0.12336642  0.04803913  1
  O  O305  1  0.87166240  0.12265614  0.30006952  1
  O  O306  1  0.87796816  0.12773332  0.53292916  1
  O  O307  1  0.88356314  0.12295862  0.78653293  1
  O  O308  1  0.87442009  0.37536184  0.05418323  1
  O  O309  1  0.87201143  0.37262653  0.28267475  1
  O  O310  1  0.88077320  0.37565247  0.54111220  1
  O  O311  1  0.88037482  0.38381962  0.79983182  1
  O  O312  1  0.87396895  0.62339174  0.05482483  1
  O  O313  1  0.87065728  0.62588824  0.29370318  1
  O  O314  1  0.87854138  0.62910986  0.52887675  1
  O  O315  1  0.87701815  0.62488820  0.80097638  1
  O  O316  1  0.87457454  0.87278352  0.05366630  1
  O  O317  1  0.86924392  0.88176256  0.29179649  1
  O  O318  1  0.87355793  0.87207649  0.52315854  1
  O  O319  1  0.87816441  0.86744933  0.80084988  1
