# generated using pymatgen
data_VFe(PbO3)2
_symmetry_space_group_name_H-M   'P 1'
_cell_length_a   15.39896706
_cell_length_b   15.39114898
_cell_length_c   18.49803238
_cell_angle_alpha   89.95998832
_cell_angle_beta   90.03087816
_cell_angle_gamma   90.00886076
_symmetry_Int_Tables_number   1
_chemical_formula_structural   VFe(PbO3)2
_chemical_formula_sum   'V32 Fe32 Pb64 O192'
_cell_volume   4384.17613184
_cell_formula_units_Z   32
loop_
 _symmetry_equiv_pos_site_id
 _symmetry_equiv_pos_as_xyz
  1  'x, y, z'
loop_
 _atom_site_type_symbol
 _atom_site_label
 _atom_site_symmetry_multiplicity
 _atom_site_fract_x
 _atom_site_fract_y
 _atom_site_fract_z
 _atom_site_occupancy
  V  V0  1  0.12466514  0.36652693  0.63770186  1
  V  V1  1  0.12762506  0.37362490  0.38561384  1
  V  V2  1  0.12939616  0.87238334  0.38542515  1
  V  V3  1  0.37759766  0.87633167  0.14429902  1
  V  V4  1  0.37462551  0.37430146  0.39282112  1
  V  V5  1  0.12597154  0.11776835  0.63950090  1
  V  V6  1  0.12631127  0.12567659  0.38687434  1
  V  V7  1  0.87312931  0.12438626  0.88935003  1
  V  V8  1  0.62689326  0.37216323  0.88378735  1
  V  V9  1  0.62547552  0.87772481  0.88629313  1
  V  V10  1  0.62586729  0.12744355  0.88485984  1
  V  V11  1  0.87243576  0.87664752  0.14440969  1
  V  V12  1  0.87165945  0.62389152  0.14578527  1
  V  V13  1  0.12241240  0.87474280  0.14206216  1
  V  V14  1  0.87531033  0.37549532  0.88794058  1
  V  V15  1  0.37116412  0.87502935  0.63728606  1
  V  V16  1  0.62486485  0.62515018  0.14214558  1
  V  V17  1  0.37035124  0.87495925  0.88932729  1
  V  V18  1  0.12422157  0.37227448  0.88977160  1
  V  V19  1  0.37252148  0.62489110  0.38973097  1
  V  V20  1  0.11822238  0.87777638  0.89051124  1
  V  V21  1  0.62416065  0.37586154  0.14493780  1
  V  V22  1  0.62606312  0.12237159  0.14602727  1
  V  V23  1  0.86843467  0.87535623  0.40070997  1
  V  V24  1  0.87585833  0.12435700  0.39301112  1
  V  V25  1  0.12932623  0.86731998  0.63748238  1
  V  V26  1  0.62987233  0.62400413  0.39781130  1
  V  V27  1  0.12339532  0.12456191  0.13963397  1
  V  V28  1  0.37295806  0.12377588  0.39013523  1
  V  V29  1  0.12414504  0.37631457  0.13948516  1
  V  V30  1  0.37928505  0.62200433  0.14034404  1
  V  V31  1  0.12659025  0.61657274  0.63688521  1
  Fe  Fe32  1  0.62632805  0.87192574  0.14203580  1
  Fe  Fe33  1  0.61790409  0.87366373  0.39381336  1
  Fe  Fe34  1  0.12377638  0.62460436  0.88862583  1
  Fe  Fe35  1  0.87348269  0.87588342  0.88256200  1
  Fe  Fe36  1  0.88237797  0.37592909  0.62786291  1
  Fe  Fe37  1  0.37622115  0.37484976  0.88451822  1
  Fe  Fe38  1  0.12297307  0.12678058  0.88759836  1
  Fe  Fe39  1  0.88026478  0.62664974  0.62292560  1
  Fe  Fe40  1  0.62569371  0.37525305  0.62392084  1
  Fe  Fe41  1  0.62328594  0.37719044  0.39966139  1
  Fe  Fe42  1  0.37758794  0.12607277  0.13614673  1
  Fe  Fe43  1  0.37733237  0.12321688  0.88965972  1
  Fe  Fe44  1  0.37027238  0.12388511  0.63360041  1
  Fe  Fe45  1  0.87240419  0.12319181  0.14173658  1
  Fe  Fe46  1  0.12923647  0.62115252  0.37570163  1
  Fe  Fe47  1  0.87908664  0.87566618  0.62251653  1
  Fe  Fe48  1  0.37031136  0.87456663  0.38263116  1
  Fe  Fe49  1  0.62612880  0.62316062  0.87858867  1
  Fe  Fe50  1  0.12343027  0.62621157  0.14758994  1
  Fe  Fe51  1  0.87960863  0.62664457  0.39573560  1
  Fe  Fe52  1  0.36920535  0.62754962  0.64071919  1
  Fe  Fe53  1  0.37695011  0.62770189  0.88366627  1
  Fe  Fe54  1  0.62292091  0.87536575  0.62595897  1
  Fe  Fe55  1  0.87347562  0.37325609  0.14526976  1
  Fe  Fe56  1  0.87802740  0.37375145  0.38767469  1
  Fe  Fe57  1  0.87410725  0.62707622  0.88378296  1
  Fe  Fe58  1  0.62398460  0.12430844  0.62450412  1
  Fe  Fe59  1  0.87898230  0.12626345  0.62501133  1
  Fe  Fe60  1  0.37780691  0.37434856  0.13540309  1
  Fe  Fe61  1  0.62266813  0.12461324  0.39654905  1
  Fe  Fe62  1  0.62301477  0.62770153  0.63062294  1
  Fe  Fe63  1  0.37074113  0.37557914  0.63799555  1
  Pb  Pb64  1  -0.00740712  0.00809578  0.00205646  1
  Pb  Pb65  1  -0.00265668  -0.00213530  0.25466019  1
  Pb  Pb66  1  -0.00125057  -0.00061488  0.50112565  1
  Pb  Pb67  1  -0.00740604  -0.00592604  0.74625569  1
  Pb  Pb68  1  -0.00918461  0.25421897  0.00478312  1
  Pb  Pb69  1  -0.00508769  0.25269604  0.25062760  1
  Pb  Pb70  1  -0.00371030  0.24786938  0.49947773  1
  Pb  Pb71  1  0.00402783  0.24468731  0.74703717  1
  Pb  Pb72  1  0.00065954  0.50263191  0.00143352  1
  Pb  Pb73  1  -0.01567713  0.50284112  0.25937683  1
  Pb  Pb74  1  -0.00282476  0.50132599  0.49439498  1
  Pb  Pb75  1  -0.00269859  0.51249952  0.74893712  1
  Pb  Pb76  1  0.00052162  0.74324705  0.00125812  1
  Pb  Pb77  1  -0.00572945  0.74244817  0.25841076  1
  Pb  Pb78  1  -0.00060474  0.74771716  0.49776683  1
  Pb  Pb79  1  -0.01409969  0.75027455  0.74833513  1
  Pb  Pb80  1  0.25463212  0.00578363  0.00061359  1
  Pb  Pb81  1  0.25439824  -0.00479901  0.24918839  1
  Pb  Pb82  1  0.25195843  0.00431289  0.50038359  1
  Pb  Pb83  1  0.24766334  0.01066402  0.75692442  1
  Pb  Pb84  1  0.26008248  0.24769169  0.00014513  1
  Pb  Pb85  1  0.25402388  0.24836374  0.24469722  1
  Pb  Pb86  1  0.25826404  0.25033873  0.50507288  1
  Pb  Pb87  1  0.26471208  0.24804255  0.75771628  1
  Pb  Pb88  1  0.24985850  0.50223979  -0.00297130  1
  Pb  Pb89  1  0.24682448  0.50281126  0.24775540  1
  Pb  Pb90  1  0.25895731  0.49646524  0.50546299  1
  Pb  Pb91  1  0.26207012  0.49913127  0.75688564  1
  Pb  Pb92  1  0.24349882  0.74034567  0.00494648  1
  Pb  Pb93  1  0.25318319  0.75060247  0.25025535  1
  Pb  Pb94  1  0.25329539  0.74009458  0.49970789  1
  Pb  Pb95  1  0.24505365  0.74084708  0.75734607  1
  Pb  Pb96  1  0.50813078  -0.00385558  0.00189079  1
  Pb  Pb97  1  0.51019762  -0.00013877  0.26143937  1
  Pb  Pb98  1  0.50172153  -0.00212034  0.49891255  1
  Pb  Pb99  1  0.49619526  0.00713485  0.73985784  1
  Pb  Pb100  1  0.49290096  0.25061905  -0.00049964  1
  Pb  Pb101  1  0.50731051  0.24729854  0.25614850  1
  Pb  Pb102  1  0.50310064  0.25164815  0.50360450  1
  Pb  Pb103  1  0.49853993  0.25165499  0.73645918  1
  Pb  Pb104  1  0.49651579  0.49953512  -0.00861041  1
  Pb  Pb105  1  0.51013383  0.49507279  0.25895988  1
  Pb  Pb106  1  0.49573369  0.50906990  0.50995482  1
  Pb  Pb107  1  0.50304030  0.49995620  0.73756829  1
  Pb  Pb108  1  0.50826896  0.75486487  -0.00256704  1
  Pb  Pb109  1  0.50004527  0.75707235  0.25575298  1
  Pb  Pb110  1  0.49971441  0.74993530  0.50365797  1
  Pb  Pb111  1  0.50667735  0.73890575  0.74703322  1
  Pb  Pb112  1  0.75061548  0.00396098  0.00035200  1
  Pb  Pb113  1  0.73576206  -0.00128899  0.26381782  1
  Pb  Pb114  1  0.74168229  0.00203618  0.50370474  1
  Pb  Pb115  1  0.75352213  -0.00382066  0.73030071  1
  Pb  Pb116  1  0.75779089  0.25230786  0.00435716  1
  Pb  Pb117  1  0.74767864  0.25425818  0.25903362  1
  Pb  Pb118  1  0.74314062  0.25277308  0.49909647  1
  Pb  Pb119  1  0.75214839  0.25083762  0.72962203  1
  Pb  Pb120  1  0.75281107  0.49775198  -0.00468402  1
  Pb  Pb121  1  0.74858352  0.48928217  0.26494703  1
  Pb  Pb122  1  0.75957903  0.48755501  0.50154271  1
  Pb  Pb123  1  0.75310527  0.50703957  0.73068436  1
  Pb  Pb124  1  0.75031791  0.74985083  -0.00676390  1
  Pb  Pb125  1  0.75292471  0.74463865  0.25820451  1
  Pb  Pb126  1  0.73724345  0.74677035  0.50950375  1
  Pb  Pb127  1  0.75246380  0.74783720  0.73395412  1
  O  O128  1  0.12434199  -0.00270457  0.16847892  1
  O  O129  1  0.13055107  0.00472754  0.41274492  1
  O  O130  1  0.12684397  0.00229307  0.66014042  1
  O  O131  1  0.12620117  -0.00708871  0.91799377  1
  O  O132  1  0.12380165  0.25103102  0.16373309  1
  O  O133  1  0.12860854  0.24866277  0.41438652  1
  O  O134  1  0.12231959  0.24974952  0.65781215  1
  O  O135  1  0.12036681  0.25629533  0.91571894  1
  O  O136  1  0.12639728  0.49280309  0.16239409  1
  O  O137  1  0.12862489  0.48995617  0.40398668  1
  O  O138  1  0.12505016  0.50308860  0.65466975  1
  O  O139  1  0.12151767  0.49257576  0.91747052  1
  O  O140  1  0.12432105  0.75651573  0.16817207  1
  O  O141  1  0.13405720  0.75557336  0.40047481  1
  O  O142  1  0.12775135  0.75362595  0.65710635  1
  O  O143  1  0.12689247  0.76056634  0.91842200  1
  O  O144  1  0.37429524  -0.00471601  0.16147387  1
  O  O145  1  0.36915445  0.00655774  0.40773612  1
  O  O146  1  0.36532329  -0.00580575  0.66427727  1
  O  O147  1  0.37830444  -0.00798407  0.91867992  1
  O  O148  1  0.37875351  0.25040395  0.16854063  1
  O  O149  1  0.37151622  0.25257021  0.41356204  1
  O  O150  1  0.36751878  0.24934658  0.66359438  1
  O  O151  1  0.37589712  0.25051146  0.91461516  1
  O  O152  1  0.37739908  0.50452648  0.16202888  1
  O  O153  1  0.36914220  0.49722918  0.41467869  1
  O  O154  1  0.36715761  0.50099045  0.66517452  1
  O  O155  1  0.37505160  0.50010710  0.91275838  1
  O  O156  1  0.37691146  0.74796986  0.16698669  1
  O  O157  1  0.36755179  0.74270401  0.40827447  1
  O  O158  1  0.36300090  0.76065935  0.66259541  1
  O  O159  1  0.37858239  0.75992016  0.91570280  1
  O  O160  1  0.62474481  0.00237981  0.16783054  1
  O  O161  1  0.62313202  -0.00131798  0.41796407  1
  O  O162  1  0.62180942  -0.00150654  0.65532060  1
  O  O163  1  0.62503801  0.00033890  0.91414333  1
  O  O164  1  0.62551003  0.25248945  0.16794270  1
  O  O165  1  0.62270991  0.24945458  0.41247888  1
  O  O166  1  0.62517453  0.24941933  0.65367321  1
  O  O167  1  0.63014247  0.25312445  0.91267497  1
  O  O168  1  0.62488124  0.49995950  0.17102646  1
  O  O169  1  0.61882634  0.50927517  0.42158205  1
  O  O170  1  0.62461769  0.50100718  0.65186256  1
  O  O171  1  0.62885024  0.49036603  0.90837984  1
  O  O172  1  0.62459208  0.74490596  0.17076694  1
  O  O173  1  0.61731779  0.74322243  0.41364239  1
  O  O174  1  0.62186231  0.75465130  0.66018831  1
  O  O175  1  0.62405677  0.75914206  0.90802850  1
  O  O176  1  0.87497251  -0.00693715  0.16837088  1
  O  O177  1  0.88250514  -0.00138106  0.41606978  1
  O  O178  1  0.88265043  0.00016903  0.65448608  1
  O  O179  1  0.87295925  0.00180684  0.91675998  1
  O  O180  1  0.87153283  0.24730308  0.17319899  1
  O  O181  1  0.88113998  0.24267801  0.40658569  1
  O  O182  1  0.88448044  0.25048399  0.65779853  1
  O  O183  1  0.87374755  0.25002116  0.91803085  1
  O  O184  1  0.87261731  0.50612142  0.16557824  1
  O  O185  1  0.88131816  0.49908287  0.41075578  1
  O  O186  1  0.88380100  0.50257520  0.65491151  1
  O  O187  1  0.87469702  0.49660923  0.91491325  1
  O  O188  1  0.87345002  0.75085016  0.17238017  1
  O  O189  1  0.88391250  0.75869932  0.41307537  1
  O  O190  1  0.88450216  0.75204420  0.65223863  1
  O  O191  1  0.87322383  0.75354925  0.91663763  1
  O  O192  1  0.00329848  0.12247314  0.16813949  1
  O  O193  1  0.00380314  0.12288622  0.41212840  1
  O  O194  1  0.00887400  0.12549300  0.66208147  1
  O  O195  1  -0.00471438  0.12410479  0.91772162  1
  O  O196  1  0.00602283  0.37434520  0.16683461  1
  O  O197  1  0.01108032  0.36875001  0.40683885  1
  O  O198  1  0.01145686  0.37779747  0.66711870  1
  O  O199  1  -0.00094752  0.37403961  0.91829129  1
  O  O200  1  -0.00894381  0.62703953  0.16684167  1
  O  O201  1  0.01031310  0.62744875  0.40840678  1
  O  O202  1  0.01067922  0.62888886  0.65906981  1
  O  O203  1  -0.00061346  0.62620106  0.92020690  1
  O  O204  1  -0.00548530  0.87353881  0.16975499  1
  O  O205  1  0.01609087  0.87853285  0.41247432  1
  O  O206  1  0.01257733  0.87924430  0.65918516  1
  O  O207  1  0.00385073  0.87707256  0.91379705  1
  O  O208  1  0.24590070  0.12403005  0.16357290  1
  O  O209  1  0.25211001  0.12878374  0.41362117  1
  O  O210  1  0.24129911  0.12581958  0.66670509  1
  O  O211  1  0.24847790  0.12276849  0.91817970  1
  O  O212  1  0.24518015  0.37267672  0.16168804  1
  O  O213  1  0.24884553  0.37130399  0.41447697  1
  O  O214  1  0.23584458  0.37650180  0.66813491  1
  O  O215  1  0.24159966  0.37455137  0.91055970  1
  O  O216  1  0.26052519  0.62559998  0.16340075  1
  O  O217  1  0.25252486  0.61998085  0.41291523  1
  O  O218  1  0.23990585  0.62982506  0.66722148  1
  O  O219  1  0.25015523  0.62809124  0.91869386  1
  O  O220  1  0.25219176  0.87386490  0.16459769  1
  O  O221  1  0.24537404  0.87950100  0.41502189  1
  O  O222  1  0.24300213  0.87933902  0.66997799  1
  O  O223  1  0.25332352  0.87748800  0.91099347  1
  O  O224  1  0.50751138  0.12576312  0.16852206  1
  O  O225  1  0.48789702  0.12712465  0.41321108  1
  O  O226  1  0.49673394  0.12312001  0.65626144  1
  O  O227  1  0.50789175  0.12533465  0.91289154  1
  O  O228  1  0.50732195  0.37648269  0.16908143  1
  O  O229  1  0.48866003  0.37724402  0.41605216  1
  O  O230  1  0.49923241  0.37495872  0.65482653  1
  O  O231  1  0.50968178  0.37220818  0.90654336  1
  O  O232  1  0.49827447  0.62545109  0.16884775  1
  O  O233  1  0.48784580  0.62165010  0.41640410  1
  O  O234  1  0.49543948  0.62852177  0.65891803  1
  O  O235  1  0.50316508  0.62595856  0.91201719  1
  O  O236  1  0.49494707  0.87272203  0.16696037  1
  O  O237  1  0.49087928  0.87476524  0.41384915  1
  O  O238  1  0.48686580  0.87773694  0.65363590  1
  O  O239  1  0.50328288  0.87839388  0.91461337  1
  O  O240  1  0.74223145  0.12473473  0.17256642  1
  O  O241  1  0.75984444  0.11976070  0.41000185  1
  O  O242  1  0.75236694  0.12359411  0.65071915  1
  O  O243  1  0.74873601  0.12453952  0.91879270  1
  O  O244  1  0.74199252  0.37677251  0.17183766  1
  O  O245  1  0.75286959  0.37625719  0.41261482  1
  O  O246  1  0.75442828  0.37605079  0.65154613  1
  O  O247  1  0.74977896  0.37285479  0.91549472  1
  O  O248  1  0.75110739  0.62733340  0.17104677  1
  O  O249  1  0.74589028  0.62820203  0.41253095  1
  O  O250  1  0.75316983  0.62981864  0.64672532  1
  O  O251  1  0.74800469  0.62513936  0.91549103  1
  O  O252  1  0.75624242  0.87245661  0.16897477  1
  O  O253  1  0.75314392  0.87430474  0.41258445  1
  O  O254  1  0.75233201  0.87553720  0.64561350  1
  O  O255  1  0.74276673  0.87920227  0.90925850  1
  O  O256  1  0.12133590  0.12207410  0.04837016  1
  O  O257  1  0.12667581  0.12569014  0.29577027  1
  O  O258  1  0.12903451  0.12106272  0.54794557  1
  O  O259  1  0.12299754  0.12460076  0.78850354  1
  O  O260  1  0.12147693  0.37428827  0.04853455  1
  O  O261  1  0.13177523  0.36875621  0.29462488  1
  O  O262  1  0.12434782  0.37091570  0.54627729  1
  O  O263  1  0.11899888  0.37385745  0.79910683  1
  O  O264  1  0.12625828  0.63032592  0.04653006  1
  O  O265  1  0.13237781  0.62092662  0.27393068  1
  O  O266  1  0.13144627  0.62454429  0.54529472  1
  O  O267  1  0.12332073  0.62666340  0.78930807  1
  O  O268  1  0.12172594  0.87741585  0.05109993  1
  O  O269  1  0.12978237  0.88121617  0.29372721  1
  O  O270  1  0.13404253  0.87262936  0.54621293  1
  O  O271  1  0.11915878  0.87700896  0.79929519  1
  O  O272  1  0.37624183  0.12982150  0.03614211  1
  O  O273  1  0.37265250  0.12882180  0.29855182  1
  O  O274  1  0.36289250  0.12474958  0.53358194  1
  O  O275  1  0.36875856  0.12005292  0.78902168  1
  O  O276  1  0.38263101  0.37041332  0.03583406  1
  O  O277  1  0.37351560  0.37514815  0.30160343  1
  O  O278  1  0.36061511  0.37595678  0.53644123  1
  O  O279  1  0.36810485  0.37322621  0.78385501  1
  O  O280  1  0.38153116  0.62571756  0.04929871  1
  O  O281  1  0.37395429  0.62044646  0.29854003  1
  O  O282  1  0.36232721  0.62289158  0.53893522  1
  O  O283  1  0.36561327  0.63200779  0.78334382  1
  O  O284  1  0.37691524  0.87095429  0.05342404  1
  O  O285  1  0.36880283  0.87174434  0.28246427  1
  O  O286  1  0.36232251  0.87588508  0.54569189  1
  O  O287  1  0.37428963  0.87645920  0.79883333  1
  O  O288  1  0.62802109  0.12444392  0.05511630  1
  O  O289  1  0.62042148  0.11570178  0.29337524  1
  O  O290  1  0.62432770  0.12423596  0.52221199  1
  O  O291  1  0.62882525  0.12554953  0.79431181  1
  O  O292  1  0.62507454  0.37689911  0.05443342  1
  O  O293  1  0.62267137  0.38598055  0.29664761  1
  O  O294  1  0.62637655  0.37073772  0.52169774  1
  O  O295  1  0.63153777  0.37099813  0.79347376  1
  O  O296  1  0.62578595  0.62328396  0.05144249  1
  O  O297  1  0.61991587  0.62026183  0.30586411  1
  O  O298  1  0.61541554  0.63705515  0.52826334  1
  O  O299  1  0.62519630  0.63010442  0.77864008  1
  O  O300  1  0.61879770  0.87539999  0.04261507  1
  O  O301  1  0.62062501  0.88120042  0.29076547  1
  O  O302  1  0.62062706  0.86692384  0.52410048  1
  O  O303  1  0.62187966  0.88088739  0.79600981  1
  O  O304  1  0.87071317  0.12224585  0.04196331  1
  O  O305  1  0.88040308  0.11702127  0.30128195  1
  O  O306  1  0.88677855  0.12657449  0.52489074  1
  O  O307  1  0.87278412  0.12547349  0.79840379  1
  O  O308  1  0.87128696  0.36735358  0.04490009  1
  O  O309  1  0.87545231  0.37967622  0.28409738  1
  O  O310  1  0.88731034  0.37587933  0.52640088  1
  O  O311  1  0.87690044  0.37408895  0.79741454  1
  O  O312  1  0.86943764  0.62938040  0.05484694  1
  O  O313  1  0.87677058  0.63031581  0.29266146  1
  O  O314  1  0.88834281  0.62751985  0.52097545  1
  O  O315  1  0.88294945  0.62784196  0.78355752  1
  O  O316  1  0.87357218  0.87393582  0.05353964  1
  O  O317  1  0.87902909  0.87937094  0.30848214  1
  O  O318  1  0.88868834  0.87679820  0.51988296  1
  O  O319  1  0.88269234  0.87640418  0.78301831  1
