# generated using pymatgen
data_VFe(PbO3)2
_symmetry_space_group_name_H-M   'P 1'
_cell_length_a   15.39965056
_cell_length_b   15.39616891
_cell_length_c   18.51809140
_cell_angle_alpha   89.99245228
_cell_angle_beta   89.94934589
_cell_angle_gamma   89.98934179
_symmetry_Int_Tables_number   1
_chemical_formula_structural   VFe(PbO3)2
_chemical_formula_sum   'V32 Fe32 Pb64 O192'
_cell_volume   4390.55655527
_cell_formula_units_Z   32
loop_
 _symmetry_equiv_pos_site_id
 _symmetry_equiv_pos_as_xyz
  1  'x, y, z'
loop_
 _atom_site_type_symbol
 _atom_site_label
 _atom_site_symmetry_multiplicity
 _atom_site_fract_x
 _atom_site_fract_y
 _atom_site_fract_z
 _atom_site_occupancy
  V  V0  1  0.62261810  0.12186524  0.64443282  1
  V  V1  1  0.62305452  0.86763567  0.89304669  1
  V  V2  1  0.87818153  0.62695042  0.13750419  1
  V  V3  1  0.13049467  0.87608881  0.64650165  1
  V  V4  1  0.37425382  0.62332609  0.89209113  1
  V  V5  1  0.12559247  0.12424395  0.64626128  1
  V  V6  1  0.37614186  0.37544999  0.89229259  1
  V  V7  1  0.62118339  0.37333353  0.88627283  1
  V  V8  1  0.88548671  0.87780386  0.65185807  1
  V  V9  1  0.87594810  0.37339653  0.64000642  1
  V  V10  1  0.12579984  0.62219814  0.13751324  1
  V  V11  1  0.62106586  0.12204987  0.89154487  1
  V  V12  1  0.37249799  0.37778099  0.13695966  1
  V  V13  1  0.37483603  0.12672777  0.38416142  1
  V  V14  1  0.62161726  0.62082483  0.88617266  1
  V  V15  1  0.62336958  0.87632310  0.64071563  1
  V  V16  1  0.62785845  0.37206004  0.39484898  1
  V  V17  1  0.37475565  0.37352012  0.38714961  1
  V  V18  1  0.12452797  0.62393014  0.38930983  1
  V  V19  1  0.62877581  0.87127467  0.38778935  1
  V  V20  1  0.87388106  0.37828254  0.13653663  1
  V  V21  1  0.87574229  0.87845406  0.13465678  1
  V  V22  1  0.87491164  0.62215173  0.39702765  1
  V  V23  1  0.37057547  0.37456359  0.64069532  1
  V  V24  1  0.12143953  0.37348522  0.39387843  1
  V  V25  1  0.62584641  0.37658908  0.13895786  1
  V  V26  1  0.62399223  0.12343695  0.38592063  1
  V  V27  1  0.12119053  0.37782741  0.88806467  1
  V  V28  1  0.37428099  0.87807300  0.64062936  1
  V  V29  1  0.37349097  0.12353746  0.64169521  1
  V  V30  1  0.37324089  0.11881222  0.90964524  1
  V  V31  1  0.12719918  0.62418927  0.64630967  1
  Fe  Fe32  1  0.37707531  0.62188252  0.14052157  1
  Fe  Fe33  1  0.37398666  0.62186446  0.38398734  1
  Fe  Fe34  1  0.87453654  0.62829028  0.64618593  1
  Fe  Fe35  1  0.12310043  0.87499493  0.37873771  1
  Fe  Fe36  1  0.37631081  0.87279021  0.12845901  1
  Fe  Fe37  1  0.62106828  0.62548946  0.63131218  1
  Fe  Fe38  1  0.12138651  0.38002446  0.12997999  1
  Fe  Fe39  1  0.63152836  0.87407017  0.12999224  1
  Fe  Fe40  1  0.12651437  0.62352121  0.88118337  1
  Fe  Fe41  1  0.12660913  0.37218984  0.63815397  1
  Fe  Fe42  1  0.63009412  0.12618946  0.13273188  1
  Fe  Fe43  1  0.12695950  0.12676731  0.89707398  1
  Fe  Fe44  1  0.62677833  0.62410797  0.39106151  1
  Fe  Fe45  1  0.62193766  0.36985600  0.63459673  1
  Fe  Fe46  1  0.63103377  0.62387991  0.13795533  1
  Fe  Fe47  1  0.12230070  0.12825709  0.12494839  1
  Fe  Fe48  1  0.37280566  0.63004652  0.63245892  1
  Fe  Fe49  1  0.37805775  0.87182502  0.90120906  1
  Fe  Fe50  1  0.87543821  0.12585505  0.38418131  1
  Fe  Fe51  1  0.12593009  0.12624277  0.38075710  1
  Fe  Fe52  1  0.87218633  0.62437013  0.87516307  1
  Fe  Fe53  1  0.37763399  0.12781086  0.12281967  1
  Fe  Fe54  1  0.87201070  0.12798604  0.87831148  1
  Fe  Fe55  1  0.12624378  0.87341255  0.88606601  1
  Fe  Fe56  1  0.12162175  0.87018827  0.13665135  1
  Fe  Fe57  1  0.37616880  0.87590458  0.37838800  1
  Fe  Fe58  1  0.87130229  0.87483112  0.87574568  1
  Fe  Fe59  1  0.86755168  0.37659030  0.88035587  1
  Fe  Fe60  1  0.87547323  0.37547058  0.38990751  1
  Fe  Fe61  1  0.87598689  0.12259497  0.64849226  1
  Fe  Fe62  1  0.87477235  0.12809916  0.13298382  1
  Fe  Fe63  1  0.87484301  0.87295347  0.38555086  1
  Pb  Pb64  1  -0.00609124  0.00347625  -0.01239444  1
  Pb  Pb65  1  0.01245239  0.00573685  0.24428061  1
  Pb  Pb66  1  -0.00014213  -0.00028391  0.49191353  1
  Pb  Pb67  1  0.01529215  0.00529664  0.76544071  1
  Pb  Pb68  1  -0.01029443  0.24069715  -0.00311796  1
  Pb  Pb69  1  0.00120830  0.24031633  0.24637730  1
  Pb  Pb70  1  -0.00855785  0.23795017  0.50261745  1
  Pb  Pb71  1  -0.00742583  0.25051079  0.75561111  1
  Pb  Pb72  1  -0.00555869  0.50470154  -0.01056533  1
  Pb  Pb73  1  -0.00680875  0.49235281  0.25057364  1
  Pb  Pb74  1  -0.00259678  0.50178463  0.50843809  1
  Pb  Pb75  1  -0.00888013  0.49978488  0.75163568  1
  Pb  Pb76  1  -0.00001125  0.75376788  -0.01445524  1
  Pb  Pb77  1  -0.00173608  0.75982904  0.25440404  1
  Pb  Pb78  1  -0.00256894  0.74916039  0.50367325  1
  Pb  Pb79  1  0.00632742  0.74615472  0.75808560  1
  Pb  Pb80  1  0.23158944  -0.01255687  0.00816047  1
  Pb  Pb81  1  0.25119897  -0.00049261  0.23223176  1
  Pb  Pb82  1  0.24821163  -0.00300741  0.48777968  1
  Pb  Pb83  1  0.24598372  -0.00150072  0.76432112  1
  Pb  Pb84  1  0.23873683  0.25411334  0.00752767  1
  Pb  Pb85  1  0.24027255  0.24273007  0.23900197  1
  Pb  Pb86  1  0.24586762  0.25446167  0.50056002  1
  Pb  Pb87  1  0.24572374  0.24080601  0.75875821  1
  Pb  Pb88  1  0.24863961  0.49857587  0.00246345  1
  Pb  Pb89  1  0.25417949  0.50458910  0.25126342  1
  Pb  Pb90  1  0.24669514  0.49529632  0.50222037  1
  Pb  Pb91  1  0.24606243  0.50341258  0.75193307  1
  Pb  Pb92  1  0.24366679  0.75727490  0.00222807  1
  Pb  Pb93  1  0.26210527  0.76168992  0.24727074  1
  Pb  Pb94  1  0.25623292  0.74937636  0.49323237  1
  Pb  Pb95  1  0.24679768  0.75414330  0.75715762  1
  Pb  Pb96  1  0.50653283  -0.01110778  0.01189774  1
  Pb  Pb97  1  0.49841823  -0.00314428  0.23368201  1
  Pb  Pb98  1  0.50245104  -0.00144902  0.49340485  1
  Pb  Pb99  1  0.48891630  -0.00731594  0.76046866  1
  Pb  Pb100  1  0.50366530  0.24742402  0.00496010  1
  Pb  Pb101  1  0.50131312  0.24918504  0.24221532  1
  Pb  Pb102  1  0.50316318  0.25391777  0.50102352  1
  Pb  Pb103  1  0.49462356  0.24523873  0.75349841  1
  Pb  Pb104  1  0.50104742  0.51006167  0.00714944  1
  Pb  Pb105  1  0.50554338  0.51495636  0.25641410  1
  Pb  Pb106  1  0.50201795  0.50128555  0.49950966  1
  Pb  Pb107  1  0.50145845  0.50386601  0.74127084  1
  Pb  Pb108  1  0.49125014  0.74263886  0.01292211  1
  Pb  Pb109  1  0.50118157  0.75224104  0.24083035  1
  Pb  Pb110  1  0.49366762  0.74000820  0.49359861  1
  Pb  Pb111  1  0.49062014  0.75551153  0.75103882  1
  Pb  Pb112  1  0.74872075  0.00454758  -0.00345931  1
  Pb  Pb113  1  0.75659784  0.00612534  0.24488593  1
  Pb  Pb114  1  0.75932201  0.00330678  0.49973936  1
  Pb  Pb115  1  0.75354224  -0.00215978  0.75607796  1
  Pb  Pb116  1  0.75238422  0.24233957  -0.00035540  1
  Pb  Pb117  1  0.76258903  0.25064445  0.25182326  1
  Pb  Pb118  1  0.75643414  0.24192996  0.50412105  1
  Pb  Pb119  1  0.75603367  0.25148557  0.75199761  1
  Pb  Pb120  1  0.74374413  0.50521843  -0.00463667  1
  Pb  Pb121  1  0.74943770  0.50117739  0.25499909  1
  Pb  Pb122  1  0.74042218  0.49909445  0.50874476  1
  Pb  Pb123  1  0.74891535  0.50119231  0.74224179  1
  Pb  Pb124  1  0.74743298  0.74945010  -0.00555250  1
  Pb  Pb125  1  0.75036726  0.75014636  0.24946161  1
  Pb  Pb126  1  0.75550718  0.73828695  0.50957203  1
  Pb  Pb127  1  0.75175678  0.74906969  0.74998483  1
  O  O128  1  0.12175016  0.00013772  0.15283643  1
  O  O129  1  0.12584193  0.00103074  0.41016501  1
  O  O130  1  0.12841283  0.00275391  0.67309377  1
  O  O131  1  0.12621004  -0.00093127  0.91603027  1
  O  O132  1  0.12424084  0.25634329  0.15773891  1
  O  O133  1  0.12717555  0.25652641  0.41298926  1
  O  O134  1  0.12815972  0.24292628  0.66784323  1
  O  O135  1  0.13499014  0.26239825  0.90994624  1
  O  O136  1  0.11979406  0.50457831  0.16686428  1
  O  O137  1  0.12432563  0.50022748  0.42015657  1
  O  O138  1  0.12834585  0.50407438  0.66392043  1
  O  O139  1  0.13101155  0.49594986  0.91189784  1
  O  O140  1  0.11938929  0.73599740  0.16207777  1
  O  O141  1  0.12211229  0.73976565  0.41038481  1
  O  O142  1  0.12768834  0.75135263  0.66990324  1
  O  O143  1  0.12792973  0.74633021  0.91049383  1
  O  O144  1  0.37683367  0.00232941  0.14815109  1
  O  O145  1  0.37703434  0.00554783  0.40907148  1
  O  O146  1  0.37408404  0.00149082  0.67223001  1
  O  O147  1  0.38184338  0.00493201  0.91925823  1
  O  O148  1  0.37904571  0.26078605  0.15944495  1
  O  O149  1  0.37572785  0.25106820  0.41672711  1
  O  O150  1  0.37144515  0.24645099  0.67048164  1
  O  O151  1  0.38082462  0.26384395  0.91802902  1
  O  O152  1  0.37953698  0.49142000  0.16771609  1
  O  O153  1  0.37364601  0.49222583  0.41361980  1
  O  O154  1  0.37051185  0.49212709  0.65751444  1
  O  O155  1  0.38206986  0.50096662  0.91736310  1
  O  O156  1  0.37577086  0.74733225  0.16052509  1
  O  O157  1  0.37439141  0.74997237  0.40913166  1
  O  O158  1  0.37468695  0.75724243  0.66605621  1
  O  O159  1  0.38252549  0.73849581  0.91510826  1
  O  O160  1  0.63109356  -0.00035374  0.16125142  1
  O  O161  1  0.62530989  0.00019838  0.41446042  1
  O  O162  1  0.61800269  0.00219403  0.67196515  1
  O  O163  1  0.62277633  0.00525233  0.91121369  1
  O  O164  1  0.63052009  0.26062676  0.16484538  1
  O  O165  1  0.62218482  0.24966900  0.41588232  1
  O  O166  1  0.61909940  0.24195960  0.66602690  1
  O  O167  1  0.62014348  0.25602289  0.90953817  1
  O  O168  1  0.62999898  0.49169023  0.16858221  1
  O  O169  1  0.62480784  0.49158782  0.41736413  1
  O  O170  1  0.62096137  0.49597593  0.66024903  1
  O  O171  1  0.62183534  0.49780336  0.91136511  1
  O  O172  1  0.63284074  0.74960539  0.16238219  1
  O  O173  1  0.62712239  0.75601441  0.40995849  1
  O  O174  1  0.61699484  0.75998538  0.65955663  1
  O  O175  1  0.62424687  0.74994962  0.90891118  1
  O  O176  1  0.87598604  -0.00571519  0.15110121  1
  O  O177  1  0.87305672  -0.00030080  0.41437081  1
  O  O178  1  0.86969259  -0.00543358  0.66924680  1
  O  O179  1  0.86902062  0.00197043  0.90248875  1
  O  O180  1  0.87226025  0.26115062  0.15824423  1
  O  O181  1  0.87397646  0.25116979  0.42060859  1
  O  O182  1  0.87595012  0.25413892  0.66529909  1
  O  O183  1  0.86987206  0.25351018  0.90871189  1
  O  O184  1  0.87412448  0.49963906  0.16473873  1
  O  O185  1  0.87701167  0.50344404  0.42282113  1
  O  O186  1  0.87651236  0.49418948  0.66011105  1
  O  O187  1  0.87159459  0.50015907  0.90950148  1
  O  O188  1  0.87543785  0.74272863  0.15959144  1
  O  O189  1  0.87676774  0.74203492  0.42012824  1
  O  O190  1  0.87183930  0.75943900  0.66836102  1
  O  O191  1  0.86725043  0.74904114  0.90516155  1
  O  O192  1  -0.00153668  0.13015269  0.15800981  1
  O  O193  1  0.00181430  0.12734778  0.41433478  1
  O  O194  1  0.00841896  0.12204768  0.66785976  1
  O  O195  1  -0.00209448  0.13056885  0.90662949  1
  O  O196  1  -0.00790641  0.38033382  0.15712072  1
  O  O197  1  0.00633946  0.37755171  0.41752378  1
  O  O198  1  -0.00233840  0.37355390  0.66300333  1
  O  O199  1  0.00580820  0.37804088  0.90225980  1
  O  O200  1  -0.00595816  0.61919813  0.16419289  1
  O  O201  1  0.00137685  0.62117448  0.42156588  1
  O  O202  1  0.00793531  0.62897265  0.66690856  1
  O  O203  1  -0.00066023  0.62183963  0.90432170  1
  O  O204  1  -0.00867886  0.86704295  0.16007652  1
  O  O205  1  0.00026006  0.87160184  0.41678056  1
  O  O206  1  0.00151032  0.87772711  0.66836001  1
  O  O207  1  -0.00320012  0.87373742  0.90332553  1
  O  O208  1  0.25202704  0.13149038  0.14959399  1
  O  O209  1  0.25537765  0.12828210  0.40961748  1
  O  O210  1  0.24925784  0.12262818  0.67258000  1
  O  O211  1  0.25832151  0.13008180  0.91919163  1
  O  O212  1  0.25633915  0.37928282  0.15831088  1
  O  O213  1  0.24816562  0.37552779  0.41620537  1
  O  O214  1  0.25486785  0.37018571  0.67105965  1
  O  O215  1  0.25906900  0.38243830  0.91349757  1
  O  O216  1  0.24257210  0.61715718  0.15761563  1
  O  O217  1  0.24156246  0.62084263  0.41032037  1
  O  O218  1  0.24797572  0.62794754  0.66754289  1
  O  O219  1  0.25886404  0.61974254  0.90989775  1
  O  O220  1  0.24907804  0.87175575  0.15608187  1
  O  O221  1  0.24937798  0.87411572  0.40933981  1
  O  O222  1  0.25219522  0.87807584  0.67000883  1
  O  O223  1  0.25204535  0.87293487  0.91626768  1
  O  O224  1  0.50229224  0.13175204  0.15720748  1
  O  O225  1  0.50008372  0.12649584  0.41485518  1
  O  O226  1  0.49711256  0.12429163  0.67057466  1
  O  O227  1  0.50633951  0.13167409  0.91958700  1
  O  O228  1  0.50613306  0.37519736  0.15899446  1
  O  O229  1  0.50042054  0.37230941  0.41597268  1
  O  O230  1  0.48824014  0.36868981  0.66390544  1
  O  O231  1  0.50327467  0.37985274  0.91711138  1
  O  O232  1  0.50501739  0.62053854  0.16582623  1
  O  O233  1  0.50030465  0.62159058  0.41137264  1
  O  O234  1  0.49603048  0.62466639  0.66184501  1
  O  O235  1  0.50180307  0.62226179  0.91814168  1
  O  O236  1  0.50378422  0.87387678  0.15466467  1
  O  O237  1  0.50804303  0.87802198  0.41020924  1
  O  O238  1  0.49901539  0.88097851  0.66952207  1
  O  O239  1  0.50964270  0.87761929  0.92069660  1
  O  O240  1  0.75273356  0.12833918  0.16642951  1
  O  O241  1  0.74412514  0.12637554  0.41566749  1
  O  O242  1  0.73877147  0.12296375  0.66553778  1
  O  O243  1  0.74035936  0.13088628  0.90869221  1
  O  O244  1  0.75233427  0.37875135  0.16408107  1
  O  O245  1  0.74425559  0.37313168  0.41680848  1
  O  O246  1  0.75395382  0.37226921  0.65894966  1
  O  O247  1  0.73744600  0.37760369  0.90748658  1
  O  O248  1  0.76108157  0.62003064  0.16595836  1
  O  O249  1  0.75693017  0.62244460  0.41858847  1
  O  O250  1  0.74486790  0.62797544  0.66226662  1
  O  O251  1  0.74204637  0.62315999  0.90730200  1
  O  O252  1  0.76120550  0.87035244  0.16299866  1
  O  O253  1  0.74429159  0.87582426  0.41793878  1
  O  O254  1  0.73687615  0.87891950  0.66472220  1
  O  O255  1  0.74106348  0.87764960  0.91021948  1
  O  O256  1  0.12108117  0.13402563  0.02258605  1
  O  O257  1  0.12158227  0.13045655  0.28065166  1
  O  O258  1  0.12941180  0.12107127  0.55556604  1
  O  O259  1  0.13383785  0.11899849  0.79452363  1
  O  O260  1  0.13276283  0.38198226  0.03080098  1
  O  O261  1  0.12327694  0.37859229  0.30307775  1
  O  O262  1  0.13762468  0.37451222  0.53933725  1
  O  O263  1  0.13071516  0.37933235  0.79647301  1
  O  O264  1  0.12050056  0.61988719  0.04625278  1
  O  O265  1  0.11852462  0.61801251  0.29926560  1
  O  O266  1  0.12773683  0.62800845  0.55514397  1
  O  O267  1  0.13172701  0.62687350  0.78130679  1
  O  O268  1  0.12566882  0.86519837  0.03489864  1
  O  O269  1  0.11572726  0.87233067  0.27788149  1
  O  O270  1  0.12923675  0.87647074  0.55572858  1
  O  O271  1  0.13007713  0.88029333  0.78372854  1
  O  O272  1  0.38552349  0.13913813  0.02120797  1
  O  O273  1  0.37846651  0.12983316  0.29351536  1
  O  O274  1  0.37315735  0.12322632  0.55118094  1
  O  O275  1  0.38048455  0.13178819  0.81740157  1
  O  O276  1  0.37508225  0.38221956  0.04579636  1
  O  O277  1  0.37350677  0.37118281  0.29653368  1
  O  O278  1  0.36716803  0.36683970  0.54954259  1
  O  O279  1  0.37775843  0.37586852  0.80112745  1
  O  O280  1  0.38516893  0.62089310  0.03949795  1
  O  O281  1  0.37022799  0.61515982  0.28308398  1
  O  O282  1  0.37126630  0.63527840  0.53293959  1
  O  O283  1  0.37895708  0.62181157  0.80070202  1
  O  O284  1  0.38129753  0.86596369  0.02567390  1
  O  O285  1  0.37332178  0.87478723  0.27878164  1
  O  O286  1  0.37494515  0.87881624  0.54968423  1
  O  O287  1  0.38733283  0.87403441  0.79925272  1
  O  O288  1  0.63503044  0.13058073  0.03226735  1
  O  O289  1  0.62517506  0.12479354  0.29518566  1
  O  O290  1  0.61921635  0.11850032  0.55358586  1
  O  O291  1  0.61745152  0.12559553  0.80037165  1
  O  O292  1  0.63033350  0.37885969  0.04788354  1
  O  O293  1  0.62626848  0.37239634  0.30396049  1
  O  O294  1  0.61744701  0.37076777  0.53524057  1
  O  O295  1  0.61715712  0.37421887  0.79502349  1
  O  O296  1  0.63147637  0.61662257  0.03753078  1
  O  O297  1  0.63302584  0.61477412  0.29087938  1
  O  O298  1  0.62838921  0.62305115  0.52999954  1
  O  O299  1  0.61635723  0.62140955  0.79497623  1
  O  O300  1  0.63317230  0.87886951  0.02956017  1
  O  O301  1  0.63356832  0.87432539  0.29694160  1
  O  O302  1  0.62066374  0.88391042  0.55027551  1
  O  O303  1  0.61818593  0.87416236  0.80153072  1
  O  O304  1  0.87128476  0.13484562  0.03172201  1
  O  O305  1  0.87415526  0.13152360  0.28369222  1
  O  O306  1  0.87255745  0.12762561  0.54749110  1
  O  O307  1  0.87030830  0.13325495  0.77519073  1
  O  O308  1  0.87034313  0.38143767  0.04553919  1
  O  O309  1  0.87622604  0.37719884  0.29082531  1
  O  O310  1  0.87753874  0.37145825  0.54844832  1
  O  O311  1  0.87342152  0.37375236  0.78020459  1
  O  O312  1  0.87753633  0.62367563  0.04632269  1
  O  O313  1  0.87802604  0.62200898  0.30619358  1
  O  O314  1  0.87882530  0.63411122  0.54497795  1
  O  O315  1  0.87373134  0.62226614  0.77297355  1
  O  O316  1  0.87245612  0.87039254  0.04370566  1
  O  O317  1  0.87616798  0.86494003  0.28666720  1
  O  O318  1  0.87657642  0.87642203  0.56019185  1
  O  O319  1  0.86230837  0.87458366  0.77461845  1
